REMARK  Name = 11882032
REMARK  11 active torsions:
REMARK  status: ('A' for Active; 'I' for Inactive)
REMARK    1  A    between atoms: S_1  and  C_39
REMARK    2  A    between atoms: S_1  and  C_42
REMARK    3  A    between atoms: N_7  and  C_13
REMARK    4  A    between atoms: N_8  and  C_19
REMARK    5  A    between atoms: N_9  and  C_29
REMARK    6  A    between atoms: N_10  and  C_32
REMARK    7  A    between atoms: C_14  and  C_17
REMARK    8  A    between atoms: C_18  and  C_20
REMARK    9  A    between atoms: C_19  and  C_22
REMARK   10  A    between atoms: C_19  and  C_25
REMARK   11  A    between atoms: C_22  and  C_23
REMARK                            x       y       z     vdW  Elec       q    Type
REMARK                         _______ _______ _______ _____ _____    ______ ____
ROOT
ATOM      3  O   UNL     1      -5.209   1.027   0.229  0.00  0.00    -0.268 OA
ATOM      6  N   UNL     1      -3.601  -0.517   0.823  0.00  0.00    -0.283 N 
ATOM     13  C   UNL     1      -1.652  -1.719   1.469  0.00  0.00    +0.094 C 
ATOM     14  C   UNL     1      -2.744   0.439   1.510  0.00  0.00    +0.164 C 
ATOM     15  C   UNL     1      -1.720  -0.410   2.261  0.00  0.00    +0.056 C 
ATOM     16  C   UNL     1      -3.064  -1.877   0.917  0.00  0.00    +0.131 C 
ATOM     18  C   UNL     1      -4.830  -0.144   0.270  0.00  0.00    +0.264 C 
ENDROOT
BRANCH  13   7
ATOM      4  O   UNL     1       1.087  -2.538   1.647  0.00  0.00    -0.253 OA
ATOM      7  N   UNL     1      -0.669  -1.674   0.416  0.00  0.00    -0.295 N 
ATOM     10  N   UNL     1       1.373  -1.936  -0.604  0.00  0.00    -0.269 N 
ATOM     21  C   UNL     1       0.656  -2.096   0.585  0.00  0.00    +0.304 C 
ATOM     43  H   UNL     1      -0.932  -1.257  -0.472  0.00  0.00    +0.151 HD
ATOM     45  H   UNL     1       0.864  -1.553  -1.396  0.00  0.00    +0.156 HD
BRANCH  10  32
ATOM     32  C   UNL     1       2.733  -2.243  -0.846  0.00  0.00    +0.036 A 
ATOM     37  C   UNL     1       3.521  -2.774   0.176  0.00  0.00    +0.038 A 
ATOM     38  C   UNL     1       3.285  -2.015  -2.106  0.00  0.00    +0.023 A 
ATOM     39  C   UNL     1       4.861  -3.077  -0.063  0.00  0.00    +0.009 A 
ATOM     40  C   UNL     1       4.626  -2.317  -2.345  0.00  0.00    +0.003 A 
ATOM     41  C   UNL     1       5.414  -2.848  -1.324  0.00  0.00    +0.015 A 
BRANCH  39   1
ATOM      1  S   UNL     1       5.869  -3.757   1.240  0.00  0.00    -0.129 S 
ATOM     42  C   UNL     1       5.781  -2.448   2.495  0.00  0.00    +0.090 C 
ENDBRANCH  39   1
ENDBRANCH  10  32
ENDBRANCH  13   7
BRANCH  18  20
ATOM      9  N   UNL     1      -6.043  -1.284  -1.600  0.00  0.00    -0.346 N 
ATOM     20  C   UNL     1      -5.641  -1.217  -0.292  0.00  0.00    +0.104 A 
ATOM     24  C   UNL     1      -6.138  -2.323   0.360  0.00  0.00    +0.032 A 
ATOM     26  C   UNL     1      -6.790  -2.417  -1.793  0.00  0.00    +0.086 A 
ATOM     28  C   UNL     1      -6.866  -3.082  -0.589  0.00  0.00    +0.020 A 
ATOM     29  C   UNL     1      -5.736  -0.318  -2.632  0.00  0.00    +0.149 C 
ENDBRANCH  18  20
BRANCH  14  17
ATOM      2  O   UNL     1      -2.296   1.190  -0.712  0.00  0.00    -0.274 OA
ATOM      8  N   UNL     1      -1.226   2.238   1.070  0.00  0.00    -0.302 N 
ATOM     17  C   UNL     1      -2.084   1.319   0.491  0.00  0.00    +0.234 C 
ATOM     44  H   UNL     1      -1.195   2.311   2.083  0.00  0.00    +0.150 HD
BRANCH   8  19
ATOM     19  C   UNL     1      -0.450   3.187   0.304  0.00  0.00    +0.163 C 
BRANCH  19  25
ATOM      5  O   UNL     1      -2.140   4.825   0.909  0.00  0.00    -0.274 OA
ATOM     12  N   UNL     1      -1.083   5.035  -1.120  0.00  0.00    -0.328 N 
ATOM     25  C   UNL     1      -1.329   4.410   0.084  0.00  0.00    +0.231 C 
ATOM     47  H   UNL     1      -0.393   4.694  -1.781  0.00  0.00    +0.145 HD
ATOM     48  H   UNL     1      -1.592   5.872  -1.385  0.00  0.00    +0.145 HD
ENDBRANCH  19  25
BRANCH  19  22
ATOM     22  C   UNL     1       0.850   3.583   1.014  0.00  0.00    +0.069 C 
BRANCH  22  23
ATOM     11  N   UNL     1       3.240   0.799   1.246  0.00  0.00    -0.360 N 
ATOM     23  C   UNL     1       1.937   2.556   0.869  0.00  0.00    -0.020 A 
ATOM     27  C   UNL     1       2.913   2.495  -0.165  0.00  0.00    +0.003 A 
ATOM     30  C   UNL     1       2.164   1.500   1.721  0.00  0.00    +0.087 A 
ATOM     31  C   UNL     1       3.718   1.384   0.095  0.00  0.00    +0.047 A 
ATOM     33  C   UNL     1       3.190   3.282  -1.301  0.00  0.00    +0.010 A 
ATOM     34  C   UNL     1       4.790   1.019  -0.727  0.00  0.00    +0.026 A 
ATOM     35  C   UNL     1       4.259   2.928  -2.132  0.00  0.00    +0.001 A 
ATOM     36  C   UNL     1       5.045   1.814  -1.848  0.00  0.00    +0.002 A 
ATOM     46  H   UNL     1       3.628  -0.028   1.677  0.00  0.00    +0.165 HD
ENDBRANCH  22  23
ENDBRANCH  19  22
ENDBRANCH   8  19
ENDBRANCH  14  17
TORSDOF 9
