REMARK  Name = 11883082
REMARK  8 active torsions:
REMARK  status: ('A' for Active; 'I' for Inactive)
REMARK    1  A    between atoms: O_2  and  C_15
REMARK    2  A    between atoms: O_3  and  C_20
REMARK    3  A    between atoms: C_10  and  C_18
REMARK    4  A    between atoms: C_12  and  C_20
REMARK    5  A    between atoms: C_12  and  C_21
REMARK    6  A    between atoms: C_13  and  C_23
REMARK    7  A    between atoms: C_23  and  C_24
REMARK    8  A    between atoms: C_31  and  C_32
REMARK                            x       y       z     vdW  Elec       q    Type
REMARK                         _______ _______ _______ _____ _____    ______ ____
ROOT
ATOM      1  S   UNL     1       0.186   2.905   0.442  0.00  0.00    -0.057 S 
ATOM      5  O   UNL     1       3.748   0.124  -0.531  0.00  0.00    -0.266 OA
ATOM      7  N   UNL     1       0.871   0.505  -0.239  0.00  0.00    -0.229 NA
ATOM      9  N   UNL     1       2.653   2.098   0.067  0.00  0.00    -0.258 N 
ATOM     10  C   UNL     1      -2.826  -0.520   0.148  0.00  0.00    -0.019 C 
ATOM     11  C   UNL     1      -3.352   0.924  -0.272  0.00  0.00    +0.011 C 
ATOM     12  C   UNL     1      -4.907   1.173  -0.184  0.00  0.00    +0.021 C 
ATOM     13  C   UNL     1      -1.343  -0.690  -0.423  0.00  0.00    +0.054 C 
ATOM     14  C   UNL     1      -3.726  -1.604  -0.499  0.00  0.00    +0.010 C 
ATOM     15  C   UNL     1      -5.655  -0.025  -0.834  0.00  0.00    +0.123 C 
ATOM     16  C   UNL     1      -2.498   2.051   0.378  0.00  0.00    +0.049 C 
ATOM     17  C   UNL     1      -5.216  -1.378  -0.285  0.00  0.00    +0.032 C 
ATOM     18  C   UNL     1      -2.815  -0.733   1.681  0.00  0.00    +0.012 C 
ATOM     19  C   UNL     1      -0.507   0.530  -0.132  0.00  0.00    +0.058 A 
ATOM     21  C   UNL     1      -5.264   2.443  -1.006  0.00  0.00    +0.016 C 
ATOM     22  C   UNL     1      -1.047   1.754   0.208  0.00  0.00    +0.015 A 
ATOM     25  C   UNL     1       1.343   1.699   0.047  0.00  0.00    +0.165 A 
ATOM     31  C   UNL     1       3.791   1.311  -0.217  0.00  0.00    +0.285 C 
ATOM     38  H   UNL     1       2.801   3.071   0.324  0.00  0.00    +0.157 HD
ENDROOT
BRANCH  31  32
ATOM      6  O   UNL     1       5.020   3.283   0.315  0.00  0.00    -0.458 OA
ATOM     32  C   UNL     1       5.083   2.005  -0.068  0.00  0.00    +0.189 A 
ATOM     33  C   UNL     1       6.332   1.550  -0.259  0.00  0.00    +0.054 A 
ATOM     34  C   UNL     1       7.161   2.659   0.035  0.00  0.00    +0.042 A 
ATOM     35  C   UNL     1       6.316   3.688   0.378  0.00  0.00    +0.196 A 
ENDBRANCH  31  32
BRANCH  15   2
ATOM      2  O   UNL     1      -7.065   0.107  -0.656  0.00  0.00    -0.391 OA
ATOM     36  H   UNL     1      -7.385   0.783  -1.276  0.00  0.00    +0.210 HD
ENDBRANCH  15   2
BRANCH  12  20
ATOM     20  C   UNL     1      -5.433   1.441   1.244  0.00  0.00    +0.165 C 
BRANCH  20   3
ATOM      3  O   UNL     1      -6.824   1.654   1.158  0.00  0.00    -0.394 OA
ATOM     37  H   UNL     1      -6.974   2.598   0.984  0.00  0.00    +0.209 HD
ENDBRANCH  20   3
ENDBRANCH  12  20
BRANCH  13  23
ATOM     23  C   UNL     1      -0.633  -1.976   0.019  0.00  0.00    +0.106 C 
BRANCH  23  24
ATOM      4  O   UNL     1       0.789  -1.645  -1.847  0.00  0.00    -0.276 OA
ATOM      8  N   UNL     1       1.704  -2.774  -0.035  0.00  0.00    -0.301 N 
ATOM     24  C   UNL     1       0.679  -2.112  -0.711  0.00  0.00    +0.216 C 
ATOM     26  C   UNL     1       3.008  -2.948  -0.678  0.00  0.00    +0.108 C 
ATOM     27  C   UNL     1       1.618  -3.300   1.333  0.00  0.00    +0.108 C 
ATOM     28  C   UNL     1       3.424  -4.416  -0.680  0.00  0.00    +0.019 C 
ATOM     29  C   UNL     1       2.009  -4.776   1.371  0.00  0.00    +0.019 C 
ATOM     30  C   UNL     1       3.377  -5.006   0.729  0.00  0.00    +0.003 C 
ENDBRANCH  23  24
ENDBRANCH  13  23
TORSDOF 6
