MODEL 1
REMARK VINA RESULT:      -7.7      0.000      0.000
REMARK  Name = 7050197
REMARK  10 active torsions:
REMARK  status: ('A' for Active; 'I' for Inactive)
REMARK    1  A    between atoms: O_1  and  C_11
REMARK    2  A    between atoms: O_2  and  C_14
REMARK    3  A    between atoms: O_3  and  C_16
REMARK    4  A    between atoms: N_8  and  C_12
REMARK    5  A    between atoms: N_9  and  C_18
REMARK    6  A    between atoms: C_11  and  C_17
REMARK    7  A    between atoms: C_18  and  C_20
REMARK    8  A    between atoms: C_18  and  C_22
REMARK    9  A    between atoms: C_19  and  C_21
REMARK   10  A    between atoms: C_20  and  C_23
REMARK                            x       y       z     vdW  Elec       q    Type
REMARK                         _______ _______ _______ _____ _____    ______ ____
ROOT
ATOM     11  C   UNL     1      15.256   7.246  20.304  0.00  0.00    +0.146 C 
ATOM     12  C   UNL     1      17.619   7.112  21.226  0.00  0.00    +0.107 C 
ATOM     13  C   UNL     1      16.374   7.986  21.039  0.00  0.00    +0.069 C 
ATOM     14  C   UNL     1      18.106   6.518  19.898  0.00  0.00    +0.163 C 
ATOM     15  C   UNL     1      15.747   6.677  18.975  0.00  0.00    +0.078 C 
ATOM     16  C   UNL     1      16.985   5.794  19.148  0.00  0.00    +0.148 C 
ENDROOT
BRANCH  11  17
ATOM      4  O   UNL     1      13.954   8.799  19.038  0.00  0.00    -0.273 OA
ATOM      9  N   UNL     1      13.218   8.174  21.157  0.00  0.00    -0.301 N 
ATOM     17  C   UNL     1      14.082   8.152  20.075  0.00  0.00    +0.246 C 
ATOM     36  H   UNL     1      13.353   7.500  21.905  0.00  0.00    +0.150 HD
BRANCH   9  18
ATOM     18  C   UNL     1      12.023   8.986  21.198  0.00  0.00    +0.163 C 
BRANCH  18  22
ATOM      7  O   UNL     1      10.595   8.420  19.313  0.00  0.00    -0.274 OA
ATOM     10  N   UNL     1      10.385   7.208  21.253  0.00  0.00    -0.328 N 
ATOM     22  C   UNL     1      10.930   8.210  20.477  0.00  0.00    +0.231 C 
ATOM     37  H   UNL     1       9.655   6.605  20.889  0.00  0.00    +0.145 HD
ATOM     38  H   UNL     1      10.687   7.032  22.206  0.00  0.00    +0.145 HD
ENDBRANCH  18  22
BRANCH  18  20
ATOM     20  C   UNL     1      11.590   9.307  22.633  0.00  0.00    +0.067 C 
BRANCH  20  23
ATOM     23  C   UNL     1      11.250  10.765  22.827  0.00  0.00    -0.045 A 
ATOM     25  C   UNL     1      10.868  11.232  24.084  0.00  0.00    +0.004 A 
ATOM     26  C   UNL     1      11.316  11.646  21.747  0.00  0.00    +0.004 A 
ATOM     29  C   UNL     1      10.553  12.578  24.263  0.00  0.00    +0.000 A 
ATOM     30  C   UNL     1      11.001  12.993  21.926  0.00  0.00    +0.000 A 
ATOM     31  C   UNL     1      10.620  13.459  23.184  0.00  0.00    +0.000 A 
ENDBRANCH  20  23
ENDBRANCH  18  20
ENDBRANCH   9  18
ENDBRANCH  11  17
BRANCH  12   8
ATOM      5  O   UNL     1      19.613   6.098  22.942  0.00  0.00    -0.267 OA
ATOM      8  N   UNL     1      18.669   7.886  21.853  0.00  0.00    -0.303 N 
ATOM     19  C   UNL     1      19.617   7.304  22.690  0.00  0.00    +0.280 C 
ATOM     32  H   UNL     1      18.688   8.891  21.705  0.00  0.00    +0.149 HD
BRANCH  19  21
ATOM      6  O   UNL     1      20.335   9.536  23.302  0.00  0.00    -0.458 OA
ATOM     21  C   UNL     1      20.639   8.214  23.225  0.00  0.00    +0.189 A 
ATOM     24  C   UNL     1      21.913   7.984  23.689  0.00  0.00    +0.054 A 
ATOM     27  C   UNL     1      22.425   9.245  24.077  0.00  0.00    +0.042 A 
ATOM     28  C   UNL     1      21.427  10.157  23.821  0.00  0.00    +0.196 A 
ENDBRANCH  19  21
ENDBRANCH  12   8
BRANCH  11   1
ATOM      1  O   UNL     1      14.750   6.184  21.105  0.00  0.00    -0.379 OA
ATOM     33  H   UNL     1      14.572   5.421  20.528  0.00  0.00    +0.211 HD
ENDBRANCH  11   1
BRANCH  14   2
ATOM      2  O   UNL     1      19.136   5.563  20.163  0.00  0.00    -0.387 OA
ATOM     34  H   UNL     1      18.963   4.774  19.621  0.00  0.00    +0.210 HD
ENDBRANCH  14   2
BRANCH  16   3
ATOM      3  O   UNL     1      17.471   5.423  17.859  0.00  0.00    -0.389 OA
ATOM     35  H   UNL     1      17.975   4.598  17.962  0.00  0.00    +0.210 HD
ENDBRANCH  16   3
TORSDOF 10
ENDMDL
MODEL 2
REMARK VINA RESULT:      -7.4      2.669      3.522
REMARK  Name = 7050197
REMARK  10 active torsions:
REMARK  status: ('A' for Active; 'I' for Inactive)
REMARK    1  A    between atoms: O_1  and  C_11
REMARK    2  A    between atoms: O_2  and  C_14
REMARK    3  A    between atoms: O_3  and  C_16
REMARK    4  A    between atoms: N_8  and  C_12
REMARK    5  A    between atoms: N_9  and  C_18
REMARK    6  A    between atoms: C_11  and  C_17
REMARK    7  A    between atoms: C_18  and  C_20
REMARK    8  A    between atoms: C_18  and  C_22
REMARK    9  A    between atoms: C_19  and  C_21
REMARK   10  A    between atoms: C_20  and  C_23
REMARK                            x       y       z     vdW  Elec       q    Type
REMARK                         _______ _______ _______ _____ _____    ______ ____
ROOT
ATOM     11  C   UNL     1      15.787   7.033  20.952  0.00  0.00    +0.146 C 
ATOM     12  C   UNL     1      18.226   7.631  21.336  0.00  0.00    +0.107 C 
ATOM     13  C   UNL     1      16.782   8.141  21.304  0.00  0.00    +0.069 C 
ATOM     14  C   UNL     1      18.609   6.914  20.035  0.00  0.00    +0.163 C 
ATOM     15  C   UNL     1      16.167   6.341  19.645  0.00  0.00    +0.078 C 
ATOM     16  C   UNL     1      17.605   5.818  19.667  0.00  0.00    +0.148 C 
ENDROOT
BRANCH  11  17
ATOM      4  O   UNL     1      14.095   8.676  21.334  0.00  0.00    -0.273 OA
ATOM      9  N   UNL     1      13.531   6.714  20.214  0.00  0.00    -0.301 N 
ATOM     17  C   UNL     1      14.395   7.583  20.859  0.00  0.00    +0.246 C 
ATOM     36  H   UNL     1      13.915   5.899  19.746  0.00  0.00    +0.150 HD
BRANCH   9  18
ATOM     18  C   UNL     1      12.127   6.998  20.015  0.00  0.00    +0.163 C 
BRANCH  18  22
ATOM      7  O   UNL     1      10.675   7.318  21.938  0.00  0.00    -0.274 OA
ATOM     10  N   UNL     1      11.602   5.245  21.594  0.00  0.00    -0.328 N 
ATOM     22  C   UNL     1      11.400   6.573  21.283  0.00  0.00    +0.231 C 
ATOM     37  H   UNL     1      11.163   4.828  22.408  0.00  0.00    +0.145 HD
ATOM     38  H   UNL     1      12.186   4.635  21.031  0.00  0.00    +0.145 HD
ENDBRANCH  18  22
BRANCH  18  20
ATOM     20  C   UNL     1      11.871   8.481  19.725  0.00  0.00    +0.067 C 
BRANCH  20  23
ATOM     23  C   UNL     1      11.928   8.806  18.252  0.00  0.00    -0.045 A 
ATOM     25  C   UNL     1      10.808   8.595  17.448  0.00  0.00    +0.004 A 
ATOM     26  C   UNL     1      13.100   9.316  17.694  0.00  0.00    +0.004 A 
ATOM     29  C   UNL     1      10.860   8.894  16.086  0.00  0.00    +0.000 A 
ATOM     30  C   UNL     1      13.152   9.616  16.333  0.00  0.00    +0.000 A 
ATOM     31  C   UNL     1      12.032   9.405  15.529  0.00  0.00    +0.000 A 
ENDBRANCH  20  23
ENDBRANCH  18  20
ENDBRANCH   9  18
ENDBRANCH  11  17
BRANCH  12   8
ATOM      5  O   UNL     1      20.345   7.627  23.198  0.00  0.00    -0.267 OA
ATOM      8  N   UNL     1      19.128   8.733  21.594  0.00  0.00    -0.303 N 
ATOM     19  C   UNL     1      20.151   8.647  22.535  0.00  0.00    +0.280 C 
ATOM     32  H   UNL     1      18.981   9.609  21.099  0.00  0.00    +0.149 HD
BRANCH  19  21
ATOM      6  O   UNL     1      20.937  10.773  21.676  0.00  0.00    -0.458 OA
ATOM     21  C   UNL     1      21.003   9.838  22.659  0.00  0.00    +0.189 A 
ATOM     24  C   UNL     1      21.906  10.217  23.625  0.00  0.00    +0.054 A 
ATOM     27  C   UNL     1      22.426  11.466  23.209  0.00  0.00    +0.042 A 
ATOM     28  C   UNL     1      21.805  11.760  22.018  0.00  0.00    +0.196 A 
ENDBRANCH  19  21
ENDBRANCH  12   8
BRANCH  11   1
ATOM      1  O   UNL     1      15.733   6.063  21.992  0.00  0.00    -0.379 OA
ATOM     33  H   UNL     1      15.663   5.182  21.588  0.00  0.00    +0.211 HD
ENDBRANCH  11   1
BRANCH  14   2
ATOM      2  O   UNL     1      19.886   6.292  20.202  0.00  0.00    -0.387 OA
ATOM     34  H   UNL     1      19.960   6.000  21.128  0.00  0.00    +0.210 HD
ENDBRANCH  14   2
BRANCH  16   3
ATOM      3  O   UNL     1      17.935   5.321  18.371  0.00  0.00    -0.389 OA
ATOM     35  H   UNL     1      18.558   4.584  18.490  0.00  0.00    +0.210 HD
ENDBRANCH  16   3
TORSDOF 10
ENDMDL
MODEL 3
REMARK VINA RESULT:      -7.2     28.199     30.276
REMARK  Name = 7050197
REMARK  10 active torsions:
REMARK  status: ('A' for Active; 'I' for Inactive)
REMARK    1  A    between atoms: O_1  and  C_11
REMARK    2  A    between atoms: O_2  and  C_14
REMARK    3  A    between atoms: O_3  and  C_16
REMARK    4  A    between atoms: N_8  and  C_12
REMARK    5  A    between atoms: N_9  and  C_18
REMARK    6  A    between atoms: C_11  and  C_17
REMARK    7  A    between atoms: C_18  and  C_20
REMARK    8  A    between atoms: C_18  and  C_22
REMARK    9  A    between atoms: C_19  and  C_21
REMARK   10  A    between atoms: C_20  and  C_23
REMARK                            x       y       z     vdW  Elec       q    Type
REMARK                         _______ _______ _______ _____ _____    ______ ____
ROOT
ATOM     11  C   UNL     1      -5.366 -11.143  17.143  0.00  0.00    +0.146 C 
ATOM     12  C   UNL     1      -7.654 -10.213  17.737  0.00  0.00    +0.107 C 
ATOM     13  C   UNL     1      -6.413 -10.066  16.851  0.00  0.00    +0.069 C 
ATOM     14  C   UNL     1      -7.292 -10.265  19.227  0.00  0.00    +0.163 C 
ATOM     15  C   UNL     1      -4.998 -11.171  18.625  0.00  0.00    +0.078 C 
ATOM     16  C   UNL     1      -6.228 -11.327  19.521  0.00  0.00    +0.148 C 
ENDROOT
BRANCH  11  17
ATOM      4  O   UNL     1      -3.169 -10.297  16.733  0.00  0.00    -0.273 OA
ATOM      9  N   UNL     1      -4.253 -11.487  15.050  0.00  0.00    -0.301 N 
ATOM     17  C   UNL     1      -4.137 -10.926  16.310  0.00  0.00    +0.246 C 
ATOM     36  H   UNL     1      -5.042 -12.096  14.856  0.00  0.00    +0.150 HD
BRANCH   9  18
ATOM     18  C   UNL     1      -3.216 -11.399  14.047  0.00  0.00    +0.163 C 
BRANCH  18  22
ATOM      7  O   UNL     1      -0.972 -11.909  14.832  0.00  0.00    -0.274 OA
ATOM     10  N   UNL     1      -2.449 -13.641  14.523  0.00  0.00    -0.328 N 
ATOM     22  C   UNL     1      -2.083 -12.312  14.492  0.00  0.00    +0.231 C 
ATOM     37  H   UNL     1      -1.792 -14.356  14.816  0.00  0.00    +0.145 HD
ATOM     38  H   UNL     1      -3.378 -13.957  14.261  0.00  0.00    +0.145 HD
ENDBRANCH  18  22
BRANCH  18  20
ATOM     20  C   UNL     1      -3.717 -11.810  12.657  0.00  0.00    +0.067 C 
BRANCH  20  23
ATOM     23  C   UNL     1      -4.014 -10.625  11.771  0.00  0.00    -0.045 A 
ATOM     25  C   UNL     1      -5.173  -9.876  11.971  0.00  0.00    +0.004 A 
ATOM     26  C   UNL     1      -3.128 -10.278  10.750  0.00  0.00    +0.004 A 
ATOM     29  C   UNL     1      -5.449  -8.782  11.152  0.00  0.00    +0.000 A 
ATOM     30  C   UNL     1      -3.403  -9.183   9.931  0.00  0.00    +0.000 A 
ATOM     31  C   UNL     1      -4.563  -8.435  10.132  0.00  0.00    +0.000 A 
ENDBRANCH  20  23
ENDBRANCH  18  20
ENDBRANCH   9  18
ENDBRANCH  11  17
BRANCH  12   8
ATOM      5  O   UNL     1      -9.574 -10.138  15.672  0.00  0.00    -0.267 OA
ATOM      8  N   UNL     1      -8.573  -9.126  17.475  0.00  0.00    -0.303 N 
ATOM     19  C   UNL     1      -9.491  -9.170  16.430  0.00  0.00    +0.280 C 
ATOM     32  H   UNL     1      -8.515  -8.290  18.049  0.00  0.00    +0.149 HD
BRANCH  19  21
ATOM      6  O   UNL     1      -9.901  -6.906  15.668  0.00  0.00    -0.458 OA
ATOM     21  C   UNL     1     -10.378  -8.004  16.311  0.00  0.00    +0.189 A 
ATOM     24  C   UNL     1     -11.665  -7.787  16.744  0.00  0.00    +0.054 A 
ATOM     27  C   UNL     1     -12.001  -6.474  16.341  0.00  0.00    +0.042 A 
ATOM     28  C   UNL     1     -10.895  -5.980  15.690  0.00  0.00    +0.196 A 
ENDBRANCH  19  21
ENDBRANCH  12   8
BRANCH  11   1
ATOM      1  O   UNL     1      -5.849 -12.425  16.760  0.00  0.00    -0.379 OA
ATOM     33  H   UNL     1      -5.106 -13.052  16.778  0.00  0.00    +0.211 HD
ENDBRANCH  11   1
BRANCH  14   2
ATOM      2  O   UNL     1      -8.459 -10.602  19.980  0.00  0.00    -0.387 OA
ATOM     34  H   UNL     1      -8.177 -11.099  20.767  0.00  0.00    +0.210 HD
ENDBRANCH  14   2
BRANCH  16   3
ATOM      3  O   UNL     1      -5.826 -11.196  20.884  0.00  0.00    -0.389 OA
ATOM     35  H   UNL     1      -5.013 -10.664  20.900  0.00  0.00    +0.210 HD
ENDBRANCH  16   3
TORSDOF 10
ENDMDL
MODEL 4
REMARK VINA RESULT:      -7.0      2.292      3.184
REMARK  Name = 7050197
REMARK  10 active torsions:
REMARK  status: ('A' for Active; 'I' for Inactive)
REMARK    1  A    between atoms: O_1  and  C_11
REMARK    2  A    between atoms: O_2  and  C_14
REMARK    3  A    between atoms: O_3  and  C_16
REMARK    4  A    between atoms: N_8  and  C_12
REMARK    5  A    between atoms: N_9  and  C_18
REMARK    6  A    between atoms: C_11  and  C_17
REMARK    7  A    between atoms: C_18  and  C_20
REMARK    8  A    between atoms: C_18  and  C_22
REMARK    9  A    between atoms: C_19  and  C_21
REMARK   10  A    between atoms: C_20  and  C_23
REMARK                            x       y       z     vdW  Elec       q    Type
REMARK                         _______ _______ _______ _____ _____    ______ ____
ROOT
ATOM     11  C   UNL     1      16.384   7.455  21.005  0.00  0.00    +0.146 C 
ATOM     12  C   UNL     1      18.822   6.861  21.401  0.00  0.00    +0.107 C 
ATOM     13  C   UNL     1      17.751   7.955  21.474  0.00  0.00    +0.069 C 
ATOM     14  C   UNL     1      18.895   6.224  20.007  0.00  0.00    +0.163 C 
ATOM     15  C   UNL     1      16.466   6.842  19.609  0.00  0.00    +0.078 C 
ATOM     16  C   UNL     1      17.525   5.742  19.524  0.00  0.00    +0.148 C 
ENDROOT
BRANCH  11  17
ATOM      4  O   UNL     1      14.908   9.002  22.071  0.00  0.00    -0.273 OA
ATOM      9  N   UNL     1      15.057   9.004  19.747  0.00  0.00    -0.301 N 
ATOM     17  C   UNL     1      15.379   8.569  21.022  0.00  0.00    +0.246 C 
ATOM     36  H   UNL     1      15.606   8.666  18.962  0.00  0.00    +0.150 HD
BRANCH   9  18
ATOM     18  C   UNL     1      14.096  10.052  19.488  0.00  0.00    +0.163 C 
BRANCH  18  22
ATOM      7  O   UNL     1      14.246  10.950  17.234  0.00  0.00    -0.274 OA
ATOM     10  N   UNL     1      15.703  11.734  18.827  0.00  0.00    -0.328 N 
ATOM     22  C   UNL     1      14.675  10.928  18.385  0.00  0.00    +0.231 C 
ATOM     37  H   UNL     1      16.169  12.377  18.197  0.00  0.00    +0.145 HD
ATOM     38  H   UNL     1      16.032  11.721  19.788  0.00  0.00    +0.145 HD
ENDBRANCH  18  22
BRANCH  18  20
ATOM     20  C   UNL     1      12.731   9.496  19.067  0.00  0.00    +0.067 C 
BRANCH  20  23
ATOM     23  C   UNL     1      11.954   8.919  20.225  0.00  0.00    -0.045 A 
ATOM     25  C   UNL     1      11.403   9.765  21.186  0.00  0.00    +0.004 A 
ATOM     26  C   UNL     1      11.786   7.538  20.333  0.00  0.00    +0.004 A 
ATOM     29  C   UNL     1      10.686   9.233  22.257  0.00  0.00    +0.000 A 
ATOM     30  C   UNL     1      11.068   7.005  21.403  0.00  0.00    +0.000 A 
ATOM     31  C   UNL     1      10.518   7.852  22.365  0.00  0.00    +0.000 A 
ENDBRANCH  20  23
ENDBRANCH  18  20
ENDBRANCH   9  18
ENDBRANCH  11  17
BRANCH  12   8
ATOM      5  O   UNL     1      20.731   5.602  23.051  0.00  0.00    -0.267 OA
ATOM      8  N   UNL     1      20.107   7.409  21.778  0.00  0.00    -0.303 N 
ATOM     19  C   UNL     1      20.993   6.719  22.600  0.00  0.00    +0.280 C 
ATOM     32  H   UNL     1      20.349   8.344  21.462  0.00  0.00    +0.149 HD
BRANCH  19  21
ATOM      6  O   UNL     1      22.355   8.184  23.967  0.00  0.00    -0.458 OA
ATOM     21  C   UNL     1      22.271   7.392  22.867  0.00  0.00    +0.189 A 
ATOM     24  C   UNL     1      23.468   7.381  22.189  0.00  0.00    +0.054 A 
ATOM     27  C   UNL     1      24.343   8.220  22.920  0.00  0.00    +0.042 A 
ATOM     28  C   UNL     1      23.618   8.684  23.993  0.00  0.00    +0.196 A 
ENDBRANCH  19  21
ENDBRANCH  12   8
BRANCH  11   1
ATOM      1  O   UNL     1      15.872   6.483  21.910  0.00  0.00    -0.379 OA
ATOM     33  H   UNL     1      15.875   6.864  22.805  0.00  0.00    +0.211 HD
ENDBRANCH  11   1
BRANCH  14   2
ATOM      2  O   UNL     1      19.761   5.088  20.057  0.00  0.00    -0.387 OA
ATOM     34  H   UNL     1      19.667   4.676  20.934  0.00  0.00    +0.210 HD
ENDBRANCH  14   2
BRANCH  16   3
ATOM      3  O   UNL     1      17.647   5.322  18.165  0.00  0.00    -0.389 OA
ATOM     35  H   UNL     1      17.877   4.377  18.170  0.00  0.00    +0.210 HD
ENDBRANCH  16   3
TORSDOF 10
ENDMDL
MODEL 5
REMARK VINA RESULT:      -6.7      2.476      3.947
REMARK  Name = 7050197
REMARK  10 active torsions:
REMARK  status: ('A' for Active; 'I' for Inactive)
REMARK    1  A    between atoms: O_1  and  C_11
REMARK    2  A    between atoms: O_2  and  C_14
REMARK    3  A    between atoms: O_3  and  C_16
REMARK    4  A    between atoms: N_8  and  C_12
REMARK    5  A    between atoms: N_9  and  C_18
REMARK    6  A    between atoms: C_11  and  C_17
REMARK    7  A    between atoms: C_18  and  C_20
REMARK    8  A    between atoms: C_18  and  C_22
REMARK    9  A    between atoms: C_19  and  C_21
REMARK   10  A    between atoms: C_20  and  C_23
REMARK                            x       y       z     vdW  Elec       q    Type
REMARK                         _______ _______ _______ _____ _____    ______ ____
ROOT
ATOM     11  C   UNL     1      12.157   8.204  21.516  0.00  0.00    +0.146 C 
ATOM     12  C   UNL     1      14.581   7.713  20.936  0.00  0.00    +0.107 C 
ATOM     13  C   UNL     1      13.611   8.659  21.651  0.00  0.00    +0.069 C 
ATOM     14  C   UNL     1      14.187   7.490  19.470  0.00  0.00    +0.163 C 
ATOM     15  C   UNL     1      11.771   8.006  20.052  0.00  0.00    +0.078 C 
ATOM     16  C   UNL     1      12.726   7.055  19.328  0.00  0.00    +0.148 C 
ENDROOT
BRANCH  11  17
ATOM      4  O   UNL     1      10.027   8.973  22.279  0.00  0.00    -0.273 OA
ATOM      9  N   UNL     1      11.891  10.336  22.577  0.00  0.00    -0.301 N 
ATOM     17  C   UNL     1      11.231   9.190  22.165  0.00  0.00    +0.246 C 
ATOM     36  H   UNL     1      12.906  10.352  22.552  0.00  0.00    +0.150 HD
BRANCH   9  18
ATOM     18  C   UNL     1      11.222  11.450  23.210  0.00  0.00    +0.163 C 
BRANCH  18  22
ATOM      7  O   UNL     1      10.799  11.610  25.599  0.00  0.00    -0.274 OA
ATOM     10  N   UNL     1      12.924  11.102  24.890  0.00  0.00    -0.328 N 
ATOM     22  C   UNL     1      11.598  11.418  24.685  0.00  0.00    +0.231 C 
ATOM     37  H   UNL     1      13.304  11.033  25.828  0.00  0.00    +0.145 HD
ATOM     38  H   UNL     1      13.568  10.924  24.126  0.00  0.00    +0.145 HD
ENDBRANCH  18  22
BRANCH  18  20
ATOM     20  C   UNL     1      11.617  12.794  22.587  0.00  0.00    +0.067 C 
BRANCH  20  23
ATOM     23  C   UNL     1      10.469  13.771  22.531  0.00  0.00    -0.045 A 
ATOM     25  C   UNL     1       9.866  14.070  21.309  0.00  0.00    +0.004 A 
ATOM     26  C   UNL     1      10.009  14.376  23.701  0.00  0.00    +0.004 A 
ATOM     29  C   UNL     1       8.805  14.974  21.256  0.00  0.00    +0.000 A 
ATOM     30  C   UNL     1       8.947  15.279  23.649  0.00  0.00    +0.000 A 
ATOM     31  C   UNL     1       8.345  15.578  22.426  0.00  0.00    +0.000 A 
ENDBRANCH  20  23
ENDBRANCH  18  20
ENDBRANCH   9  18
ENDBRANCH  11  17
BRANCH  12   8
ATOM      5  O   UNL     1      16.912   6.186  21.365  0.00  0.00    -0.267 OA
ATOM      8  N   UNL     1      15.928   8.234  21.028  0.00  0.00    -0.303 N 
ATOM     19  C   UNL     1      17.027   7.406  21.243  0.00  0.00    +0.280 C 
ATOM     32  H   UNL     1      16.067   9.239  20.972  0.00  0.00    +0.149 HD
BRANCH  19  21
ATOM      6  O   UNL     1      18.348   9.438  21.273  0.00  0.00    -0.458 OA
ATOM     21  C   UNL     1      18.333   8.079  21.279  0.00  0.00    +0.189 A 
ATOM     24  C   UNL     1      19.615   7.583  21.320  0.00  0.00    +0.054 A 
ATOM     27  C   UNL     1      20.473   8.708  21.341  0.00  0.00    +0.042 A 
ATOM     28  C   UNL     1      19.654   9.812  21.311  0.00  0.00    +0.196 A 
ENDBRANCH  19  21
ENDBRANCH  12   8
BRANCH  11   1
ATOM      1  O   UNL     1      11.949   6.985  22.221  0.00  0.00    -0.379 OA
ATOM     33  H   UNL     1      12.721   6.823  22.791  0.00  0.00    +0.211 HD
ENDBRANCH  11   1
BRANCH  14   2
ATOM      2  O   UNL     1      15.003   6.453  18.920  0.00  0.00    -0.387 OA
ATOM     34  H   UNL     1      14.670   5.601  19.249  0.00  0.00    +0.210 HD
ENDBRANCH  14   2
BRANCH  16   3
ATOM      3  O   UNL     1      12.394   7.035  17.940  0.00  0.00    -0.389 OA
ATOM     35  H   UNL     1      13.076   6.514  17.483  0.00  0.00    +0.210 HD
ENDBRANCH  16   3
TORSDOF 10
ENDMDL
MODEL 6
REMARK VINA RESULT:      -6.7      3.207      4.529
REMARK  Name = 7050197
REMARK  10 active torsions:
REMARK  status: ('A' for Active; 'I' for Inactive)
REMARK    1  A    between atoms: O_1  and  C_11
REMARK    2  A    between atoms: O_2  and  C_14
REMARK    3  A    between atoms: O_3  and  C_16
REMARK    4  A    between atoms: N_8  and  C_12
REMARK    5  A    between atoms: N_9  and  C_18
REMARK    6  A    between atoms: C_11  and  C_17
REMARK    7  A    between atoms: C_18  and  C_20
REMARK    8  A    between atoms: C_18  and  C_22
REMARK    9  A    between atoms: C_19  and  C_21
REMARK   10  A    between atoms: C_20  and  C_23
REMARK                            x       y       z     vdW  Elec       q    Type
REMARK                         _______ _______ _______ _____ _____    ______ ____
ROOT
ATOM     11  C   UNL     1      15.729   7.322  21.036  0.00  0.00    +0.146 C 
ATOM     12  C   UNL     1      17.351   9.186  21.626  0.00  0.00    +0.107 C 
ATOM     13  C   UNL     1      16.061   8.809  20.892  0.00  0.00    +0.069 C 
ATOM     14  C   UNL     1      18.529   8.296  21.208  0.00  0.00    +0.163 C 
ATOM     15  C   UNL     1      16.901   6.447  20.597  0.00  0.00    +0.078 C 
ATOM     16  C   UNL     1      18.195   6.807  21.330  0.00  0.00    +0.148 C 
ENDROOT
BRANCH  11  17
ATOM      4  O   UNL     1      14.569   6.430  19.147  0.00  0.00    -0.273 OA
ATOM      9  N   UNL     1      13.338   7.359  20.891  0.00  0.00    -0.301 N 
ATOM     17  C   UNL     1      14.501   6.975  20.247  0.00  0.00    +0.246 C 
ATOM     36  H   UNL     1      13.394   7.681  21.853  0.00  0.00    +0.150 HD
BRANCH   9  18
ATOM     18  C   UNL     1      12.020   7.159  20.331  0.00  0.00    +0.163 C 
BRANCH  18  22
ATOM      7  O   UNL     1      10.278   7.126  22.027  0.00  0.00    -0.274 OA
ATOM     10  N   UNL     1      11.449   5.193  21.616  0.00  0.00    -0.328 N 
ATOM     22  C   UNL     1      11.163   6.527  21.418  0.00  0.00    +0.231 C 
ATOM     37  H   UNL     1      10.941   4.647  22.303  0.00  0.00    +0.145 HD
ATOM     38  H   UNL     1      12.168   4.706  21.091  0.00  0.00    +0.145 HD
ENDBRANCH  18  22
BRANCH  18  20
ATOM     20  C   UNL     1      11.390   8.471  19.850  0.00  0.00    +0.067 C 
BRANCH  20  23
ATOM     23  C   UNL     1      12.160   9.107  18.718  0.00  0.00    -0.045 A 
ATOM     25  C   UNL     1      12.060   8.587  17.428  0.00  0.00    +0.004 A 
ATOM     26  C   UNL     1      12.971  10.216  18.962  0.00  0.00    +0.004 A 
ATOM     29  C   UNL     1      12.772   9.173  16.382  0.00  0.00    +0.000 A 
ATOM     30  C   UNL     1      13.682  10.803  17.916  0.00  0.00    +0.000 A 
ATOM     31  C   UNL     1      13.582  10.282  16.625  0.00  0.00    +0.000 A 
ENDBRANCH  20  23
ENDBRANCH  18  20
ENDBRANCH   9  18
ENDBRANCH  11  17
BRANCH  12   8
ATOM      5  O   UNL     1      16.232  11.377  23.005  0.00  0.00    -0.267 OA
ATOM      8  N   UNL     1      17.658  10.581  21.390  0.00  0.00    -0.303 N 
ATOM     19  C   UNL     1      17.057  11.603  22.118  0.00  0.00    +0.280 C 
ATOM     32  H   UNL     1      18.303  10.817  20.641  0.00  0.00    +0.149 HD
BRANCH  19  21
ATOM      6  O   UNL     1      16.593  13.799  21.204  0.00  0.00    -0.458 OA
ATOM     21  C   UNL     1      17.495  12.966  21.784  0.00  0.00    +0.189 A 
ATOM     24  C   UNL     1      18.703  13.603  21.950  0.00  0.00    +0.054 A 
ATOM     27  C   UNL     1      18.531  14.912  21.440  0.00  0.00    +0.042 A 
ATOM     28  C   UNL     1      17.231  14.981  20.998  0.00  0.00    +0.196 A 
ENDBRANCH  19  21
ENDBRANCH  12   8
BRANCH  11   1
ATOM      1  O   UNL     1      15.399   7.014  22.386  0.00  0.00    -0.379 OA
ATOM     33  H   UNL     1      15.168   7.842  22.842  0.00  0.00    +0.211 HD
ENDBRANCH  11   1
BRANCH  14   2
ATOM      2  O   UNL     1      19.642   8.562  22.065  0.00  0.00    -0.387 OA
ATOM     34  H   UNL     1      19.594   9.492  22.343  0.00  0.00    +0.210 HD
ENDBRANCH  14   2
BRANCH  16   3
ATOM      3  O   UNL     1      19.269   6.056  20.766  0.00  0.00    -0.389 OA
ATOM     35  H   UNL     1      19.352   5.234  21.279  0.00  0.00    +0.210 HD
ENDBRANCH  16   3
TORSDOF 10
ENDMDL
MODEL 7
REMARK VINA RESULT:      -6.6      2.604      3.996
REMARK  Name = 7050197
REMARK  10 active torsions:
REMARK  status: ('A' for Active; 'I' for Inactive)
REMARK    1  A    between atoms: O_1  and  C_11
REMARK    2  A    between atoms: O_2  and  C_14
REMARK    3  A    between atoms: O_3  and  C_16
REMARK    4  A    between atoms: N_8  and  C_12
REMARK    5  A    between atoms: N_9  and  C_18
REMARK    6  A    between atoms: C_11  and  C_17
REMARK    7  A    between atoms: C_18  and  C_20
REMARK    8  A    between atoms: C_18  and  C_22
REMARK    9  A    between atoms: C_19  and  C_21
REMARK   10  A    between atoms: C_20  and  C_23
REMARK                            x       y       z     vdW  Elec       q    Type
REMARK                         _______ _______ _______ _____ _____    ______ ____
ROOT
ATOM     11  C   UNL     1      12.068   8.034  21.563  0.00  0.00    +0.146 C 
ATOM     12  C   UNL     1      14.512   7.678  20.968  0.00  0.00    +0.107 C 
ATOM     13  C   UNL     1      13.497   8.564  21.697  0.00  0.00    +0.069 C 
ATOM     14  C   UNL     1      14.124   7.452  19.500  0.00  0.00    +0.163 C 
ATOM     15  C   UNL     1      11.686   7.833  20.099  0.00  0.00    +0.078 C 
ATOM     16  C   UNL     1      12.687   6.942  19.360  0.00  0.00    +0.148 C 
ENDROOT
BRANCH  11  17
ATOM      4  O   UNL     1       9.919   8.652  22.405  0.00  0.00    -0.273 OA
ATOM      9  N   UNL     1      11.676  10.171  22.575  0.00  0.00    -0.301 N 
ATOM     17  C   UNL     1      11.095   8.963  22.228  0.00  0.00    +0.246 C 
ATOM     36  H   UNL     1      12.685  10.268  22.501  0.00  0.00    +0.150 HD
BRANCH   9  18
ATOM     18  C   UNL     1      10.947  11.247  23.207  0.00  0.00    +0.163 C 
BRANCH  18  22
ATOM      7  O   UNL     1      10.787  11.669  25.596  0.00  0.00    -0.274 OA
ATOM     10  N   UNL     1      12.827  11.082  24.719  0.00  0.00    -0.328 N 
ATOM     22  C   UNL     1      11.483  11.376  24.626  0.00  0.00    +0.231 C 
ATOM     37  H   UNL     1      13.308  11.116  25.611  0.00  0.00    +0.145 HD
ATOM     38  H   UNL     1      13.385  10.820  23.912  0.00  0.00    +0.145 HD
ENDBRANCH  18  22
BRANCH  18  20
ATOM     20  C   UNL     1      11.103  12.573  22.455  0.00  0.00    +0.067 C 
BRANCH  20  23
ATOM     23  C   UNL     1      12.324  12.600  21.568  0.00  0.00    -0.045 A 
ATOM     25  C   UNL     1      13.505  13.186  22.024  0.00  0.00    +0.004 A 
ATOM     26  C   UNL     1      12.272  12.040  20.291  0.00  0.00    +0.004 A 
ATOM     29  C   UNL     1      14.633  13.212  21.204  0.00  0.00    +0.000 A 
ATOM     30  C   UNL     1      13.401  12.064  19.472  0.00  0.00    +0.000 A 
ATOM     31  C   UNL     1      14.581  12.651  19.929  0.00  0.00    +0.000 A 
ENDBRANCH  20  23
ENDBRANCH  18  20
ENDBRANCH   9  18
ENDBRANCH  11  17
BRANCH  12   8
ATOM      5  O   UNL     1      16.913   6.280  21.446  0.00  0.00    -0.267 OA
ATOM      8  N   UNL     1      15.830   8.268  21.060  0.00  0.00    -0.303 N 
ATOM     19  C   UNL     1      16.967   7.502  21.300  0.00  0.00    +0.280 C 
ATOM     32  H   UNL     1      15.919   9.278  20.985  0.00  0.00    +0.149 HD
BRANCH  19  21
ATOM      6  O   UNL     1      18.183   9.594  21.436  0.00  0.00    -0.458 OA
ATOM     21  C   UNL     1      18.238   8.241  21.333  0.00  0.00    +0.189 A 
ATOM     24  C   UNL     1      19.544   7.814  21.278  0.00  0.00    +0.054 A 
ATOM     27  C   UNL     1      20.343   8.979  21.353  0.00  0.00    +0.042 A 
ATOM     28  C   UNL     1      19.468  10.036  21.447  0.00  0.00    +0.196 A 
ENDBRANCH  19  21
ENDBRANCH  12   8
BRANCH  11   1
ATOM      1  O   UNL     1      11.928   6.798  22.254  0.00  0.00    -0.379 OA
ATOM     33  H   UNL     1      12.710   6.671  22.819  0.00  0.00    +0.211 HD
ENDBRANCH  11   1
BRANCH  14   2
ATOM      2  O   UNL     1      14.990   6.466  18.934  0.00  0.00    -0.387 OA
ATOM     34  H   UNL     1      14.704   5.593  19.256  0.00  0.00    +0.210 HD
ENDBRANCH  14   2
BRANCH  16   3
ATOM      3  O   UNL     1      12.349   6.921  17.973  0.00  0.00    -0.389 OA
ATOM     35  H   UNL     1      13.056   6.442  17.507  0.00  0.00    +0.210 HD
ENDBRANCH  16   3
TORSDOF 10
ENDMDL
MODEL 8
REMARK VINA RESULT:      -6.5     15.749     18.994
REMARK  Name = 7050197
REMARK  10 active torsions:
REMARK  status: ('A' for Active; 'I' for Inactive)
REMARK    1  A    between atoms: O_1  and  C_11
REMARK    2  A    between atoms: O_2  and  C_14
REMARK    3  A    between atoms: O_3  and  C_16
REMARK    4  A    between atoms: N_8  and  C_12
REMARK    5  A    between atoms: N_9  and  C_18
REMARK    6  A    between atoms: C_11  and  C_17
REMARK    7  A    between atoms: C_18  and  C_20
REMARK    8  A    between atoms: C_18  and  C_22
REMARK    9  A    between atoms: C_19  and  C_21
REMARK   10  A    between atoms: C_20  and  C_23
REMARK                            x       y       z     vdW  Elec       q    Type
REMARK                         _______ _______ _______ _____ _____    ______ ____
ROOT
ATOM     11  C   UNL     1      15.139   7.580   3.247  0.00  0.00    +0.146 C 
ATOM     12  C   UNL     1      13.732   7.967   5.327  0.00  0.00    +0.107 C 
ATOM     13  C   UNL     1      13.878   7.184   4.018  0.00  0.00    +0.069 C 
ATOM     14  C   UNL     1      13.808   9.483   5.099  0.00  0.00    +0.163 C 
ATOM     15  C   UNL     1      15.193   9.087   3.009  0.00  0.00    +0.078 C 
ATOM     16  C   UNL     1      15.058   9.882   4.309  0.00  0.00    +0.148 C 
ENDROOT
BRANCH  11  17
ATOM      4  O   UNL     1      15.917   7.241   1.014  0.00  0.00    -0.273 OA
ATOM      9  N   UNL     1      14.393   5.731   1.919  0.00  0.00    -0.301 N 
ATOM     17  C   UNL     1      15.211   6.847   1.940  0.00  0.00    +0.246 C 
ATOM     36  H   UNL     1      13.957   5.427   2.784  0.00  0.00    +0.150 HD
BRANCH   9  18
ATOM     18  C   UNL     1      14.264   4.867   0.767  0.00  0.00    +0.163 C 
BRANCH  18  22
ATOM      7  O   UNL     1      16.175   3.601  -0.044  0.00  0.00    -0.274 OA
ATOM     10  N   UNL     1      15.418   3.203   2.088  0.00  0.00    -0.328 N 
ATOM     22  C   UNL     1      15.373   3.829   0.860  0.00  0.00    +0.231 C 
ATOM     37  H   UNL     1      16.119   2.499   2.290  0.00  0.00    +0.145 HD
ATOM     38  H   UNL     1      14.763   3.418   2.834  0.00  0.00    +0.145 HD
ENDBRANCH  18  22
BRANCH  18  20
ATOM     20  C   UNL     1      12.894   4.179   0.709  0.00  0.00    +0.067 C 
BRANCH  20  23
ATOM     23  C   UNL     1      11.885   4.812   1.635  0.00  0.00    -0.045 A 
ATOM     25  C   UNL     1      11.554   4.188   2.838  0.00  0.00    +0.004 A 
ATOM     26  C   UNL     1      11.282   6.022   1.289  0.00  0.00    +0.004 A 
ATOM     29  C   UNL     1      10.620   4.771   3.694  0.00  0.00    +0.000 A 
ATOM     30  C   UNL     1      10.349   6.606   2.146  0.00  0.00    +0.000 A 
ATOM     31  C   UNL     1      10.018   5.981   3.348  0.00  0.00    +0.000 A 
ENDBRANCH  20  23
ENDBRANCH  18  20
ENDBRANCH   9  18
ENDBRANCH  11  17
BRANCH  12   8
ATOM      5  O   UNL     1      13.450   6.204   7.509  0.00  0.00    -0.267 OA
ATOM      8  N   UNL     1      12.486   7.612   5.972  0.00  0.00    -0.303 N 
ATOM     19  C   UNL     1      12.436   6.729   7.048  0.00  0.00    +0.280 C 
ATOM     32  H   UNL     1      11.619   7.991   5.600  0.00  0.00    +0.149 HD
BRANCH  19  21
ATOM      6  O   UNL     1      10.955   5.455   8.481  0.00  0.00    -0.458 OA
ATOM     21  C   UNL     1      11.102   6.493   7.617  0.00  0.00    +0.189 A 
ATOM     24  C   UNL     1       9.905   7.147   7.441  0.00  0.00    +0.054 A 
ATOM     27  C   UNL     1       8.962   6.469   8.249  0.00  0.00    +0.042 A 
ATOM     28  C   UNL     1       9.650   5.447   8.861  0.00  0.00    +0.196 A 
ENDBRANCH  19  21
ENDBRANCH  12   8
BRANCH  11   1
ATOM      1  O   UNL     1      16.304   7.180   3.960  0.00  0.00    -0.379 OA
ATOM     33  H   UNL     1      16.079   7.111   4.904  0.00  0.00    +0.211 HD
ENDBRANCH  11   1
BRANCH  14   2
ATOM      2  O   UNL     1      13.868  10.143   6.366  0.00  0.00    -0.387 OA
ATOM     34  H   UNL     1      14.795  10.148   6.660  0.00  0.00    +0.210 HD
ENDBRANCH  14   2
BRANCH  16   3
ATOM      3  O   UNL     1      14.968  11.271   3.995  0.00  0.00    -0.389 OA
ATOM     35  H   UNL     1      14.028  11.518   4.024  0.00  0.00    +0.210 HD
ENDBRANCH  16   3
TORSDOF 10
ENDMDL
MODEL 9
REMARK VINA RESULT:      -6.5     16.424     18.392
REMARK  Name = 7050197
REMARK  10 active torsions:
REMARK  status: ('A' for Active; 'I' for Inactive)
REMARK    1  A    between atoms: O_1  and  C_11
REMARK    2  A    between atoms: O_2  and  C_14
REMARK    3  A    between atoms: O_3  and  C_16
REMARK    4  A    between atoms: N_8  and  C_12
REMARK    5  A    between atoms: N_9  and  C_18
REMARK    6  A    between atoms: C_11  and  C_17
REMARK    7  A    between atoms: C_18  and  C_20
REMARK    8  A    between atoms: C_18  and  C_22
REMARK    9  A    between atoms: C_19  and  C_21
REMARK   10  A    between atoms: C_20  and  C_23
REMARK                            x       y       z     vdW  Elec       q    Type
REMARK                         _______ _______ _______ _____ _____    ______ ____
ROOT
ATOM     11  C   UNL     1      13.976   7.830   3.319  0.00  0.00    +0.146 C 
ATOM     12  C   UNL     1      16.376   8.051   4.124  0.00  0.00    +0.107 C 
ATOM     13  C   UNL     1      15.416   7.338   3.166  0.00  0.00    +0.069 C 
ATOM     14  C   UNL     1      15.898   7.969   5.580  0.00  0.00    +0.163 C 
ATOM     15  C   UNL     1      13.505   7.725   4.768  0.00  0.00    +0.078 C 
ATOM     16  C   UNL     1      14.449   8.441   5.735  0.00  0.00    +0.148 C 
ENDROOT
BRANCH  11  17
ATOM      4  O   UNL     1      12.460   7.598   1.488  0.00  0.00    -0.273 OA
ATOM      9  N   UNL     1      12.959   5.729   2.783  0.00  0.00    -0.301 N 
ATOM     17  C   UNL     1      13.055   7.061   2.419  0.00  0.00    +0.246 C 
ATOM     36  H   UNL     1      13.596   5.366   3.486  0.00  0.00    +0.150 HD
BRANCH   9  18
ATOM     18  C   UNL     1      12.118   4.779   2.090  0.00  0.00    +0.163 C 
BRANCH  18  22
ATOM      7  O   UNL     1      12.742   3.151   0.396  0.00  0.00    -0.274 OA
ATOM     10  N   UNL     1      14.270   3.681   2.027  0.00  0.00    -0.328 N 
ATOM     22  C   UNL     1      13.041   3.777   1.411  0.00  0.00    +0.231 C 
ATOM     37  H   UNL     1      14.986   3.059   1.667  0.00  0.00    +0.145 HD
ATOM     38  H   UNL     1      14.511   4.221   2.853  0.00  0.00    +0.145 HD
ENDBRANCH  18  22
BRANCH  18  20
ATOM     20  C   UNL     1      11.154   4.057   3.040  0.00  0.00    +0.067 C 
BRANCH  20  23
ATOM     23  C   UNL     1      10.289   5.011   3.827  0.00  0.00    -0.045 A 
ATOM     25  C   UNL     1       9.733   6.127   3.202  0.00  0.00    +0.004 A 
ATOM     26  C   UNL     1      10.044   4.776   5.181  0.00  0.00    +0.004 A 
ATOM     29  C   UNL     1       8.934   7.009   3.929  0.00  0.00    +0.000 A 
ATOM     30  C   UNL     1       9.244   5.657   5.908  0.00  0.00    +0.000 A 
ATOM     31  C   UNL     1       8.689   6.774   5.282  0.00  0.00    +0.000 A 
ENDBRANCH  20  23
ENDBRANCH  18  20
ENDBRANCH   9  18
ENDBRANCH  11  17
BRANCH  12   8
ATOM      5  O   UNL     1      18.796   9.486   4.316  0.00  0.00    -0.267 OA
ATOM      8  N   UNL     1      17.704   7.491   3.993  0.00  0.00    -0.303 N 
ATOM     19  C   UNL     1      18.850   8.274   4.101  0.00  0.00    +0.280 C 
ATOM     32  H   UNL     1      17.796   6.503   3.776  0.00  0.00    +0.149 HD
BRANCH  19  21
ATOM      6  O   UNL     1      20.643   7.390   2.731  0.00  0.00    -0.458 OA
ATOM     21  C   UNL     1      20.126   7.556   3.977  0.00  0.00    +0.189 A 
ATOM     24  C   UNL     1      20.948   6.984   4.920  0.00  0.00    +0.054 A 
ATOM     27  C   UNL     1      22.041   6.434   4.209  0.00  0.00    +0.042 A 
ATOM     28  C   UNL     1      21.808   6.707   2.881  0.00  0.00    +0.196 A 
ENDBRANCH  19  21
ENDBRANCH  12   8
BRANCH  11   1
ATOM      1  O   UNL     1      13.865   9.184   2.892  0.00  0.00    -0.379 OA
ATOM     33  H   UNL     1      13.024   9.543   3.225  0.00  0.00    +0.211 HD
ENDBRANCH  11   1
BRANCH  14   2
ATOM      2  O   UNL     1      16.717   8.816   6.389  0.00  0.00    -0.387 OA
ATOM     34  H   UNL     1      17.452   8.281   6.737  0.00  0.00    +0.210 HD
ENDBRANCH  14   2
BRANCH  16   3
ATOM      3  O   UNL     1      14.029   8.176   7.073  0.00  0.00    -0.389 OA
ATOM     35  H   UNL     1      13.150   8.576   7.189  0.00  0.00    +0.210 HD
ENDBRANCH  16   3
TORSDOF 10
ENDMDL
MODEL 10
REMARK VINA RESULT:      -6.5     29.088     31.946
REMARK  Name = 7050197
REMARK  10 active torsions:
REMARK  status: ('A' for Active; 'I' for Inactive)
REMARK    1  A    between atoms: O_1  and  C_11
REMARK    2  A    between atoms: O_2  and  C_14
REMARK    3  A    between atoms: O_3  and  C_16
REMARK    4  A    between atoms: N_8  and  C_12
REMARK    5  A    between atoms: N_9  and  C_18
REMARK    6  A    between atoms: C_11  and  C_17
REMARK    7  A    between atoms: C_18  and  C_20
REMARK    8  A    between atoms: C_18  and  C_22
REMARK    9  A    between atoms: C_19  and  C_21
REMARK   10  A    between atoms: C_20  and  C_23
REMARK                            x       y       z     vdW  Elec       q    Type
REMARK                         _______ _______ _______ _____ _____    ______ ____
ROOT
ATOM     11  C   UNL     1     -17.281   3.812  24.793  0.00  0.00    +0.146 C 
ATOM     12  C   UNL     1     -16.523   3.002  27.078  0.00  0.00    +0.107 C 
ATOM     13  C   UNL     1     -16.351   4.058  25.982  0.00  0.00    +0.069 C 
ATOM     14  C   UNL     1     -16.380   1.576  26.528  0.00  0.00    +0.163 C 
ATOM     15  C   UNL     1     -17.116   2.398  24.241  0.00  0.00    +0.078 C 
ATOM     16  C   UNL     1     -17.295   1.332  25.324  0.00  0.00    +0.148 C 
ENDROOT
BRANCH  11  17
ATOM      4  O   UNL     1     -17.806   5.756  23.507  0.00  0.00    -0.273 OA
ATOM      9  N   UNL     1     -15.882   4.549  22.994  0.00  0.00    -0.301 N 
ATOM     17  C   UNL     1     -17.035   4.821  23.711  0.00  0.00    +0.246 C 
ATOM     36  H   UNL     1     -15.252   3.828  23.334  0.00  0.00    +0.150 HD
BRANCH   9  18
ATOM     18  C   UNL     1     -15.432   5.357  21.883  0.00  0.00    +0.163 C 
BRANCH  18  22
ATOM      7  O   UNL     1     -17.014   4.435  20.283  0.00  0.00    -0.274 OA
ATOM     10  N   UNL     1     -17.106   6.682  20.748  0.00  0.00    -0.328 N 
ATOM     22  C   UNL     1     -16.576   5.416  20.880  0.00  0.00    +0.231 C 
ATOM     37  H   UNL     1     -17.884   6.860  20.122  0.00  0.00    +0.145 HD
ATOM     38  H   UNL     1     -16.748   7.480  21.265  0.00  0.00    +0.145 HD
ENDBRANCH  18  22
BRANCH  18  20
ATOM     20  C   UNL     1     -15.033   6.772  22.319  0.00  0.00    +0.067 C 
BRANCH  20  23
ATOM     23  C   UNL     1     -13.790   7.268  21.620  0.00  0.00    -0.045 A 
ATOM     25  C   UNL     1     -13.645   8.626  21.337  0.00  0.00    +0.004 A 
ATOM     26  C   UNL     1     -12.788   6.369  21.257  0.00  0.00    +0.004 A 
ATOM     29  C   UNL     1     -12.497   9.085  20.691  0.00  0.00    +0.000 A 
ATOM     30  C   UNL     1     -11.640   6.828  20.611  0.00  0.00    +0.000 A 
ATOM     31  C   UNL     1     -11.495   8.186  20.328  0.00  0.00    +0.000 A 
ENDBRANCH  20  23
ENDBRANCH  18  20
ENDBRANCH   9  18
ENDBRANCH  11  17
BRANCH  12   8
ATOM      5  O   UNL     1     -17.035   2.777  29.842  0.00  0.00    -0.267 OA
ATOM      8  N   UNL     1     -15.565   3.236  28.137  0.00  0.00    -0.303 N 
ATOM     19  C   UNL     1     -15.903   3.103  29.481  0.00  0.00    +0.280 C 
ATOM     32  H   UNL     1     -14.630   3.545  27.889  0.00  0.00    +0.149 HD
BRANCH  19  21
ATOM      6  O   UNL     1     -14.981   4.329  31.358  0.00  0.00    -0.458 OA
ATOM     21  C   UNL     1     -14.814   3.342  30.438  0.00  0.00    +0.189 A 
ATOM     24  C   UNL     1     -13.590   2.736  30.600  0.00  0.00    +0.054 A 
ATOM     27  C   UNL     1     -12.966   3.390  31.689  0.00  0.00    +0.042 A 
ATOM     28  C   UNL     1     -13.853   4.351  32.115  0.00  0.00    +0.196 A 
ENDBRANCH  19  21
ENDBRANCH  12   8
BRANCH  11   1
ATOM      1  O   UNL     1     -18.639   4.006  25.175  0.00  0.00    -0.379 OA
ATOM     33  H   UNL     1     -19.176   3.303  24.770  0.00  0.00    +0.211 HD
ENDBRANCH  11   1
BRANCH  14   2
ATOM      2  O   UNL     1     -16.748   0.643  27.546  0.00  0.00    -0.387 OA
ATOM     34  H   UNL     1     -17.599   0.243  27.297  0.00  0.00    +0.210 HD
ENDBRANCH  14   2
BRANCH  16   3
ATOM      3  O   UNL     1     -16.981   0.054  24.771  0.00  0.00    -0.389 OA
ATOM     35  H   UNL     1     -17.373  -0.620  25.352  0.00  0.00    +0.210 HD
ENDBRANCH  16   3
TORSDOF 10
ENDMDL
