MODEL 1
REMARK VINA RESULT:      -7.0      0.000      0.000
REMARK  Name = 75536562
REMARK  9 active torsions:
REMARK  status: ('A' for Active; 'I' for Inactive)
REMARK    1  A    between atoms: O_2  and  C_10
REMARK    2  A    between atoms: N_5  and  C_17
REMARK    3  A    between atoms: N_6  and  C_11
REMARK    4  A    between atoms: N_6  and  C_19
REMARK    5  A    between atoms: N_7  and  C_25
REMARK    6  A    between atoms: C_8  and  C_18
REMARK    7  A    between atoms: C_9  and  C_17
REMARK    8  A    between atoms: C_19  and  C_20
REMARK    9  A    between atoms: C_26  and  C_27
REMARK                            x       y       z     vdW  Elec       q    Type
REMARK                         _______ _______ _______ _____ _____    ______ ____
ROOT
ATOM      1  O   UNL     1     -17.546   5.380  24.568  0.00  0.00    -0.371 OA
ATOM      9  C   UNL     1     -17.026   4.212  25.224  0.00  0.00    +0.165 C 
ATOM     10  C   UNL     1     -15.704   3.897  24.537  0.00  0.00    +0.164 C 
ATOM     11  C   UNL     1     -16.013   4.304  23.108  0.00  0.00    +0.111 C 
ATOM     16  C   UNL     1     -16.844   5.557  23.325  0.00  0.00    +0.181 C 
ENDROOT
BRANCH  10   2
ATOM      2  O   UNL     1     -15.362   2.530  24.654  0.00  0.00    -0.388 OA
ATOM     30  H   UNL     1     -14.537   2.377  24.164  0.00  0.00    +0.210 HD
ENDBRANCH  10   2
BRANCH  11   6
ATOM      6  N   UNL     1     -14.829   4.543  22.300  0.00  0.00    -0.305 NA
ATOM     29  H   UNL     1     -15.092   4.544  21.314  0.00  0.00    +0.123 HD
BRANCH   6  19
ATOM     19  C   UNL     1     -14.220   5.827  22.627  0.00  0.00    +0.116 C 
BRANCH  19  20
ATOM     20  C   UNL     1     -13.527   6.438  21.439  0.00  0.00    -0.033 A 
ATOM     21  C   UNL     1     -14.262   7.166  20.502  0.00  0.00    +0.007 A 
ATOM     22  C   UNL     1     -12.151   6.279  21.275  0.00  0.00    +0.007 A 
ATOM     23  C   UNL     1     -13.620   7.733  19.401  0.00  0.00    +0.023 A 
ATOM     24  C   UNL     1     -11.510   6.846  20.173  0.00  0.00    +0.023 A 
ATOM     25  C   UNL     1     -12.245   7.573  19.236  0.00  0.00    +0.033 A 
BRANCH  25   7
ATOM      4  O   UNL     1     -10.208   9.785  19.086  0.00  0.00    -0.276 OA
ATOM      7  N   UNL     1     -11.603   8.140  18.134  0.00  0.00    -0.286 N 
ATOM     26  C   UNL     1     -10.659   9.175  18.122  0.00  0.00    +0.214 C 
ATOM     27  C   UNL     1     -10.203   9.500  16.721  0.00  0.00    +0.109 C 
ATOM     31  H   UNL     1     -11.860   7.745  17.231  0.00  0.00    +0.155 HD
ENDBRANCH  25   7
ENDBRANCH  19  20
ENDBRANCH   6  19
ENDBRANCH  11   6
BRANCH   9  17
ATOM     17  C   UNL     1     -16.881   4.479  26.711  0.00  0.00    +0.138 C 
BRANCH  17   5
ATOM      3  O   UNL     1     -16.591   3.937  29.549  0.00  0.00    -0.276 OA
ATOM      5  N   UNL     1     -16.009   3.524  27.331  0.00  0.00    -0.313 N 
ATOM     18  C   UNL     1     -15.934   3.331  28.705  0.00  0.00    +0.216 C 
ATOM     28  H   UNL     1     -15.420   2.964  26.721  0.00  0.00    +0.149 HD
BRANCH  18   8
ATOM      8  C   UNL     1     -14.961   2.256  29.085  0.00  0.00    +0.075 C 
ATOM     12  C   UNL     1     -15.699   0.936  29.338  0.00  0.00    +0.013 C 
ATOM     13  C   UNL     1     -14.251   2.608  30.393  0.00  0.00    +0.013 C 
ATOM     14  C   UNL     1     -15.314   0.509  30.750  0.00  0.00    +0.001 C 
ATOM     15  C   UNL     1     -14.992   1.814  31.458  0.00  0.00    +0.001 C 
ENDBRANCH  18   8
ENDBRANCH  17   5
ENDBRANCH   9  17
TORSDOF 8
ENDMDL
MODEL 2
REMARK VINA RESULT:      -6.9     16.356     18.514
REMARK  Name = 75536562
REMARK  9 active torsions:
REMARK  status: ('A' for Active; 'I' for Inactive)
REMARK    1  A    between atoms: O_2  and  C_10
REMARK    2  A    between atoms: N_5  and  C_17
REMARK    3  A    between atoms: N_6  and  C_11
REMARK    4  A    between atoms: N_6  and  C_19
REMARK    5  A    between atoms: N_7  and  C_25
REMARK    6  A    between atoms: C_8  and  C_18
REMARK    7  A    between atoms: C_9  and  C_17
REMARK    8  A    between atoms: C_19  and  C_20
REMARK    9  A    between atoms: C_26  and  C_27
REMARK                            x       y       z     vdW  Elec       q    Type
REMARK                         _______ _______ _______ _____ _____    ______ ____
ROOT
ATOM      1  O   UNL     1     -12.105  -9.415  15.859  0.00  0.00    -0.371 OA
ATOM      9  C   UNL     1     -12.116  -7.985  15.715  0.00  0.00    +0.165 C 
ATOM     10  C   UNL     1     -10.818  -7.489  16.338  0.00  0.00    +0.164 C 
ATOM     11  C   UNL     1     -10.649  -8.472  17.482  0.00  0.00    +0.111 C 
ATOM     16  C   UNL     1     -11.109  -9.768  16.835  0.00  0.00    +0.181 C 
ENDROOT
BRANCH  10   2
ATOM      2  O   UNL     1     -10.924  -6.150  16.780  0.00  0.00    -0.388 OA
ATOM     30  H   UNL     1     -11.269  -6.154  17.689  0.00  0.00    +0.210 HD
ENDBRANCH  10   2
BRANCH  11   6
ATOM      6  N   UNL     1      -9.290  -8.545  17.992  0.00  0.00    -0.305 NA
ATOM     29  H   UNL     1      -9.272  -8.179  18.944  0.00  0.00    +0.123 HD
BRANCH   6  19
ATOM     19  C   UNL     1      -8.808  -9.921  18.008  0.00  0.00    +0.116 C 
BRANCH  19  20
ATOM     20  C   UNL     1      -7.361 -10.014  17.603  0.00  0.00    -0.033 A 
ATOM     21  C   UNL     1      -6.425 -10.556  18.484  0.00  0.00    +0.007 A 
ATOM     22  C   UNL     1      -6.957  -9.558  16.348  0.00  0.00    +0.007 A 
ATOM     23  C   UNL     1      -5.084 -10.642  18.109  0.00  0.00    +0.023 A 
ATOM     24  C   UNL     1      -5.616  -9.645  15.974  0.00  0.00    +0.023 A 
ATOM     25  C   UNL     1      -4.679 -10.186  16.855  0.00  0.00    +0.033 A 
BRANCH  25   7
ATOM      4  O   UNL     1      -3.275 -12.148  15.055  0.00  0.00    -0.276 OA
ATOM      7  N   UNL     1      -3.337 -10.272  16.480  0.00  0.00    -0.286 N 
ATOM     26  C   UNL     1      -2.734 -11.213  15.635  0.00  0.00    +0.214 C 
ATOM     27  C   UNL     1      -1.256 -10.960  15.482  0.00  0.00    +0.109 C 
ATOM     31  H   UNL     1      -2.730  -9.557  16.875  0.00  0.00    +0.155 HD
ENDBRANCH  25   7
ENDBRANCH  19  20
ENDBRANCH   6  19
ENDBRANCH  11   6
BRANCH   9  17
ATOM     17  C   UNL     1     -12.256  -7.618  14.248  0.00  0.00    +0.138 C 
BRANCH  17   5
ATOM      3  O   UNL     1     -12.379  -6.125  11.761  0.00  0.00    -0.276 OA
ATOM      5  N   UNL     1     -12.531  -6.220  14.084  0.00  0.00    -0.313 N 
ATOM     18  C   UNL     1     -12.569  -5.585  12.848  0.00  0.00    +0.216 C 
ATOM     28  H   UNL     1     -12.706  -5.676  14.924  0.00  0.00    +0.149 HD
BRANCH  18   8
ATOM      8  C   UNL     1     -12.901  -4.128  12.958  0.00  0.00    +0.075 C 
ATOM     12  C   UNL     1     -14.408  -3.940  13.168  0.00  0.00    +0.013 C 
ATOM     13  C   UNL     1     -12.555  -3.395  11.661  0.00  0.00    +0.013 C 
ATOM     14  C   UNL     1     -14.874  -3.022  12.043  0.00  0.00    +0.001 C 
ATOM     15  C   UNL     1     -13.880  -3.274  10.923  0.00  0.00    +0.001 C 
ENDBRANCH  18   8
ENDBRANCH  17   5
ENDBRANCH   9  17
TORSDOF 8
ENDMDL
MODEL 3
REMARK VINA RESULT:      -6.7     26.061     30.285
REMARK  Name = 75536562
REMARK  9 active torsions:
REMARK  status: ('A' for Active; 'I' for Inactive)
REMARK    1  A    between atoms: O_2  and  C_10
REMARK    2  A    between atoms: N_5  and  C_17
REMARK    3  A    between atoms: N_6  and  C_11
REMARK    4  A    between atoms: N_6  and  C_19
REMARK    5  A    between atoms: N_7  and  C_25
REMARK    6  A    between atoms: C_8  and  C_18
REMARK    7  A    between atoms: C_9  and  C_17
REMARK    8  A    between atoms: C_19  and  C_20
REMARK    9  A    between atoms: C_26  and  C_27
REMARK                            x       y       z     vdW  Elec       q    Type
REMARK                         _______ _______ _______ _____ _____    ______ ____
ROOT
ATOM      1  O   UNL     1      11.311   6.996  21.238  0.00  0.00    -0.371 OA
ATOM      9  C   UNL     1      11.689   7.984  22.210  0.00  0.00    +0.165 C 
ATOM     10  C   UNL     1      12.871   8.733  21.611  0.00  0.00    +0.164 C 
ATOM     11  C   UNL     1      13.571   7.619  20.854  0.00  0.00    +0.111 C 
ATOM     16  C   UNL     1      12.387   6.847  20.295  0.00  0.00    +0.181 C 
ENDROOT
BRANCH  10   2
ATOM      2  O   UNL     1      13.689   9.312  22.609  0.00  0.00    -0.388 OA
ATOM     30  H   UNL     1      14.413   8.694  22.808  0.00  0.00    +0.210 HD
ENDBRANCH  10   2
BRANCH  11   6
ATOM      6  N   UNL     1      14.476   8.094  19.821  0.00  0.00    -0.305 NA
ATOM     29  H   UNL     1      15.189   8.685  20.249  0.00  0.00    +0.123 HD
BRANCH   6  19
ATOM     19  C   UNL     1      15.131   6.981  19.144  0.00  0.00    +0.116 C 
BRANCH  19  20
ATOM     20  C   UNL     1      16.501   6.710  19.705  0.00  0.00    -0.033 A 
ATOM     21  C   UNL     1      16.943   7.407  20.830  0.00  0.00    +0.007 A 
ATOM     22  C   UNL     1      17.328   5.763  19.101  0.00  0.00    +0.007 A 
ATOM     23  C   UNL     1      18.213   7.156  21.350  0.00  0.00    +0.023 A 
ATOM     24  C   UNL     1      18.597   5.512  19.622  0.00  0.00    +0.023 A 
ATOM     25  C   UNL     1      19.040   6.209  20.747  0.00  0.00    +0.033 A 
BRANCH  25   7
ATOM      4  O   UNL     1      21.701   7.453  20.090  0.00  0.00    -0.276 OA
ATOM      7  N   UNL     1      20.310   5.958  21.267  0.00  0.00    -0.286 N 
ATOM     26  C   UNL     1      21.522   6.569  20.921  0.00  0.00    +0.214 C 
ATOM     27  C   UNL     1      22.676   6.014  21.718  0.00  0.00    +0.109 C 
ATOM     31  H   UNL     1      20.350   5.239  21.986  0.00  0.00    +0.155 HD
ENDBRANCH  25   7
ENDBRANCH  19  20
ENDBRANCH   6  19
ENDBRANCH  11   6
BRANCH   9  17
ATOM     17  C   UNL     1      10.504   8.881  22.519  0.00  0.00    +0.138 C 
BRANCH  17   5
ATOM      3  O   UNL     1      10.633  11.062  24.431  0.00  0.00    -0.276 OA
ATOM      5  N   UNL     1      10.807  10.257  22.252  0.00  0.00    -0.313 N 
ATOM     18  C   UNL     1      10.846  11.240  23.234  0.00  0.00    +0.216 C 
ATOM     28  H   UNL     1      11.003  10.514  21.289  0.00  0.00    +0.149 HD
BRANCH  18   8
ATOM      8  C   UNL     1      11.211  12.587  22.689  0.00  0.00    +0.075 C 
ATOM     12  C   UNL     1      11.724  12.456  21.250  0.00  0.00    +0.013 C 
ATOM     13  C   UNL     1      12.355  13.204  23.496  0.00  0.00    +0.013 C 
ATOM     14  C   UNL     1      13.109  13.094  21.242  0.00  0.00    +0.001 C 
ATOM     15  C   UNL     1      13.601  12.929  22.669  0.00  0.00    +0.001 C 
ENDBRANCH  18   8
ENDBRANCH  17   5
ENDBRANCH   9  17
TORSDOF 8
ENDMDL
MODEL 4
REMARK VINA RESULT:      -6.6     20.265     23.101
REMARK  Name = 75536562
REMARK  9 active torsions:
REMARK  status: ('A' for Active; 'I' for Inactive)
REMARK    1  A    between atoms: O_2  and  C_10
REMARK    2  A    between atoms: N_5  and  C_17
REMARK    3  A    between atoms: N_6  and  C_11
REMARK    4  A    between atoms: N_6  and  C_19
REMARK    5  A    between atoms: N_7  and  C_25
REMARK    6  A    between atoms: C_8  and  C_18
REMARK    7  A    between atoms: C_9  and  C_17
REMARK    8  A    between atoms: C_19  and  C_20
REMARK    9  A    between atoms: C_26  and  C_27
REMARK                            x       y       z     vdW  Elec       q    Type
REMARK                         _______ _______ _______ _____ _____    ______ ____
ROOT
ATOM      1  O   UNL     1      -2.038 -10.965  12.844  0.00  0.00    -0.371 OA
ATOM      9  C   UNL     1      -2.137 -12.397  12.787  0.00  0.00    +0.165 C 
ATOM     10  C   UNL     1      -2.763 -12.829  14.106  0.00  0.00    +0.164 C 
ATOM     11  C   UNL     1      -2.166 -11.810  15.060  0.00  0.00    +0.111 C 
ATOM     16  C   UNL     1      -2.198 -10.549  14.212  0.00  0.00    +0.181 C 
ENDROOT
BRANCH  10   2
ATOM      2  O   UNL     1      -2.418 -14.158  14.443  0.00  0.00    -0.388 OA
ATOM     30  H   UNL     1      -1.737 -14.133  15.135  0.00  0.00    +0.210 HD
ENDBRANCH  10   2
BRANCH  11   6
ATOM      6  N   UNL     1      -2.903 -11.674  16.305  0.00  0.00    -0.305 NA
ATOM     29  H   UNL     1      -2.282 -11.890  17.085  0.00  0.00    +0.123 HD
BRANCH   6  19
ATOM     19  C   UNL     1      -3.412 -10.317  16.469  0.00  0.00    +0.116 C 
BRANCH  19  20
ATOM     20  C   UNL     1      -4.749 -10.298  17.158  0.00  0.00    -0.033 A 
ATOM     21  C   UNL     1      -4.886 -10.855  18.431  0.00  0.00    +0.007 A 
ATOM     22  C   UNL     1      -5.852  -9.724  16.526  0.00  0.00    +0.007 A 
ATOM     23  C   UNL     1      -6.125 -10.837  19.070  0.00  0.00    +0.023 A 
ATOM     24  C   UNL     1      -7.092  -9.707  17.166  0.00  0.00    +0.023 A 
ATOM     25  C   UNL     1      -7.228 -10.264  18.438  0.00  0.00    +0.033 A 
BRANCH  25   7
ATOM      4  O   UNL     1      -9.189 -12.488  18.960  0.00  0.00    -0.276 OA
ATOM      7  N   UNL     1      -8.469 -10.247  19.077  0.00  0.00    -0.286 N 
ATOM     26  C   UNL     1      -9.346 -11.318  19.292  0.00  0.00    +0.214 C 
ATOM     27  C   UNL     1     -10.590 -10.883  20.024  0.00  0.00    +0.109 C 
ATOM     31  H   UNL     1      -8.765  -9.337  19.426  0.00  0.00    +0.155 HD
ENDBRANCH  25   7
ENDBRANCH  19  20
ENDBRANCH   6  19
ENDBRANCH  11   6
BRANCH   9  17
ATOM     17  C   UNL     1      -2.951 -12.808  11.573  0.00  0.00    +0.138 C 
BRANCH  17   5
ATOM      3  O   UNL     1      -4.668 -12.761   9.232  0.00  0.00    -0.276 OA
ATOM      5  N   UNL     1      -3.288 -11.674  10.762  0.00  0.00    -0.313 N 
ATOM     18  C   UNL     1      -4.122 -11.744   9.652  0.00  0.00    +0.216 C 
ATOM     28  H   UNL     1      -2.890 -10.777  11.024  0.00  0.00    +0.149 HD
BRANCH  18   8
ATOM      8  C   UNL     1      -4.327 -10.411   9.000  0.00  0.00    +0.075 C 
ATOM     12  C   UNL     1      -3.678  -9.303   9.838  0.00  0.00    +0.013 C 
ATOM     13  C   UNL     1      -5.816 -10.071   8.921  0.00  0.00    +0.013 C 
ATOM     14  C   UNL     1      -4.789  -8.302  10.135  0.00  0.00    +0.001 C 
ATOM     15  C   UNL     1      -6.059  -9.133  10.093  0.00  0.00    +0.001 C 
ENDBRANCH  18   8
ENDBRANCH  17   5
ENDBRANCH   9  17
TORSDOF 8
ENDMDL
MODEL 5
REMARK VINA RESULT:      -6.6     21.150     22.377
REMARK  Name = 75536562
REMARK  9 active torsions:
REMARK  status: ('A' for Active; 'I' for Inactive)
REMARK    1  A    between atoms: O_2  and  C_10
REMARK    2  A    between atoms: N_5  and  C_17
REMARK    3  A    between atoms: N_6  and  C_11
REMARK    4  A    between atoms: N_6  and  C_19
REMARK    5  A    between atoms: N_7  and  C_25
REMARK    6  A    between atoms: C_8  and  C_18
REMARK    7  A    between atoms: C_9  and  C_17
REMARK    8  A    between atoms: C_19  and  C_20
REMARK    9  A    between atoms: C_26  and  C_27
REMARK                            x       y       z     vdW  Elec       q    Type
REMARK                         _______ _______ _______ _____ _____    ______ ____
ROOT
ATOM      1  O   UNL     1      -3.600 -14.344  13.169  0.00  0.00    -0.371 OA
ATOM      9  C   UNL     1      -3.232 -13.851  14.467  0.00  0.00    +0.165 C 
ATOM     10  C   UNL     1      -2.761 -12.419  14.255  0.00  0.00    +0.164 C 
ATOM     11  C   UNL     1      -2.093 -12.529  12.897  0.00  0.00    +0.111 C 
ATOM     16  C   UNL     1      -3.039 -13.472  12.172  0.00  0.00    +0.181 C 
ENDROOT
BRANCH  10   2
ATOM      2  O   UNL     1      -1.868 -12.002  15.270  0.00  0.00    -0.388 OA
ATOM     30  H   UNL     1      -0.961 -12.070  14.927  0.00  0.00    +0.210 HD
ENDBRANCH  10   2
BRANCH  11   6
ATOM      6  N   UNL     1      -1.936 -11.253  12.219  0.00  0.00    -0.305 NA
ATOM     29  H   UNL     1      -1.880 -11.415  11.213  0.00  0.00    +0.123 HD
BRANCH   6  19
ATOM     19  C   UNL     1      -3.063 -10.370  12.492  0.00  0.00    +0.116 C 
BRANCH  19  20
ATOM     20  C   UNL     1      -3.827 -10.030  11.241  0.00  0.00    -0.033 A 
ATOM     21  C   UNL     1      -3.229  -9.251  10.249  0.00  0.00    +0.007 A 
ATOM     22  C   UNL     1      -5.131 -10.495  11.071  0.00  0.00    +0.007 A 
ATOM     23  C   UNL     1      -3.936  -8.936   9.089  0.00  0.00    +0.023 A 
ATOM     24  C   UNL     1      -5.838 -10.179   9.910  0.00  0.00    +0.023 A 
ATOM     25  C   UNL     1      -5.240  -9.399   8.919  0.00  0.00    +0.033 A 
BRANCH  25   7
ATOM      4  O   UNL     1      -5.346 -10.796   6.255  0.00  0.00    -0.276 OA
ATOM      7  N   UNL     1      -5.949  -9.084   7.759  0.00  0.00    -0.286 N 
ATOM     26  C   UNL     1      -5.959  -9.772   6.539  0.00  0.00    +0.214 C 
ATOM     27  C   UNL     1      -6.858  -9.105   5.528  0.00  0.00    +0.109 C 
ATOM     31  H   UNL     1      -6.525  -8.247   7.816  0.00  0.00    +0.155 HD
ENDBRANCH  25   7
ENDBRANCH  19  20
ENDBRANCH   6  19
ENDBRANCH  11   6
BRANCH   9  17
ATOM     17  C   UNL     1      -4.415 -13.960  15.412  0.00  0.00    +0.138 C 
BRANCH  17   5
ATOM      3  O   UNL     1      -6.352 -11.828  15.777  0.00  0.00    -0.276 OA
ATOM      5  N   UNL     1      -4.392 -12.921  16.401  0.00  0.00    -0.313 N 
ATOM     18  C   UNL     1      -5.366 -11.935  16.502  0.00  0.00    +0.216 C 
ATOM     28  H   UNL     1      -3.616 -12.917  17.057  0.00  0.00    +0.149 HD
BRANCH  18   8
ATOM      8  C   UNL     1      -5.114 -10.989  17.636  0.00  0.00    +0.075 C 
ATOM     12  C   UNL     1      -4.639 -11.758  18.875  0.00  0.00    +0.013 C 
ATOM     13  C   UNL     1      -6.405 -10.277  18.043  0.00  0.00    +0.013 C 
ATOM     14  C   UNL     1      -5.611 -11.389  19.991  0.00  0.00    +0.001 C 
ATOM     15  C   UNL     1      -6.897 -11.041  19.263  0.00  0.00    +0.001 C 
ENDBRANCH  18   8
ENDBRANCH  17   5
ENDBRANCH   9  17
TORSDOF 8
ENDMDL
MODEL 6
REMARK VINA RESULT:      -6.5     17.203     18.908
REMARK  Name = 75536562
REMARK  9 active torsions:
REMARK  status: ('A' for Active; 'I' for Inactive)
REMARK    1  A    between atoms: O_2  and  C_10
REMARK    2  A    between atoms: N_5  and  C_17
REMARK    3  A    between atoms: N_6  and  C_11
REMARK    4  A    between atoms: N_6  and  C_19
REMARK    5  A    between atoms: N_7  and  C_25
REMARK    6  A    between atoms: C_8  and  C_18
REMARK    7  A    between atoms: C_9  and  C_17
REMARK    8  A    between atoms: C_19  and  C_20
REMARK    9  A    between atoms: C_26  and  C_27
REMARK                            x       y       z     vdW  Elec       q    Type
REMARK                         _______ _______ _______ _____ _____    ______ ____
ROOT
ATOM      1  O   UNL     1      -7.428 -12.364  19.196  0.00  0.00    -0.371 OA
ATOM      9  C   UNL     1      -6.634 -11.629  18.251  0.00  0.00    +0.165 C 
ATOM     10  C   UNL     1      -7.274 -10.252  18.144  0.00  0.00    +0.164 C 
ATOM     11  C   UNL     1      -8.743 -10.599  18.304  0.00  0.00    +0.111 C 
ATOM     16  C   UNL     1      -8.682 -11.681  19.370  0.00  0.00    +0.181 C 
ENDROOT
BRANCH  10   2
ATOM      2  O   UNL     1      -6.992  -9.633  16.904  0.00  0.00    -0.388 OA
ATOM     30  H   UNL     1      -6.050  -9.762  16.705  0.00  0.00    +0.210 HD
ENDBRANCH  10   2
BRANCH  11   6
ATOM      6  N   UNL     1      -9.572  -9.470  18.691  0.00  0.00    -0.305 NA
ATOM     29  H   UNL     1      -9.116  -8.606  18.396  0.00  0.00    +0.123 HD
BRANCH   6  19
ATOM     19  C   UNL     1     -10.888  -9.544  18.068  0.00  0.00    +0.116 C 
BRANCH  19  20
ATOM     20  C   UNL     1     -11.127  -8.399  17.122  0.00  0.00    -0.033 A 
ATOM     21  C   UNL     1     -12.421  -8.117  16.683  0.00  0.00    +0.007 A 
ATOM     22  C   UNL     1     -10.056  -7.620  16.684  0.00  0.00    +0.007 A 
ATOM     23  C   UNL     1     -12.643  -7.056  15.805  0.00  0.00    +0.023 A 
ATOM     24  C   UNL     1     -10.279  -6.559  15.806  0.00  0.00    +0.023 A 
ATOM     25  C   UNL     1     -11.573  -6.277  15.366  0.00  0.00    +0.033 A 
BRANCH  25   7
ATOM      4  O   UNL     1     -12.589  -6.265  12.532  0.00  0.00    -0.276 OA
ATOM      7  N   UNL     1     -11.795  -5.216  14.488  0.00  0.00    -0.286 N 
ATOM     26  C   UNL     1     -12.270  -5.268  13.171  0.00  0.00    +0.214 C 
ATOM     27  C   UNL     1     -12.370  -3.894  12.558  0.00  0.00    +0.109 C 
ATOM     31  H   UNL     1     -11.581  -4.292  14.860  0.00  0.00    +0.155 HD
ENDBRANCH  25   7
ENDBRANCH  19  20
ENDBRANCH   6  19
ENDBRANCH  11   6
BRANCH   9  17
ATOM     17  C   UNL     1      -5.190 -11.585  18.717  0.00  0.00    +0.138 C 
BRANCH  17   5
ATOM      3  O   UNL     1      -4.098  -9.746  16.753  0.00  0.00    -0.276 OA
ATOM      5  N   UNL     1      -4.286 -11.890  17.646  0.00  0.00    -0.313 N 
ATOM     18  C   UNL     1      -3.812 -10.941  16.747  0.00  0.00    +0.216 C 
ATOM     28  H   UNL     1      -3.982 -12.854  17.551  0.00  0.00    +0.149 HD
BRANCH  18   8
ATOM      8  C   UNL     1      -2.864 -11.521  15.743  0.00  0.00    +0.075 C 
ATOM     12  C   UNL     1      -1.761 -10.510  15.408  0.00  0.00    +0.013 C 
ATOM     13  C   UNL     1      -3.585 -11.819  14.427  0.00  0.00    +0.013 C 
ATOM     14  C   UNL     1      -1.808 -10.329  13.894  0.00  0.00    +0.001 C 
ATOM     15  C   UNL     1      -3.249 -10.639  13.529  0.00  0.00    +0.001 C 
ENDBRANCH  18   8
ENDBRANCH  17   5
ENDBRANCH   9  17
TORSDOF 8
ENDMDL
MODEL 7
REMARK VINA RESULT:      -6.5     19.562     22.090
REMARK  Name = 75536562
REMARK  9 active torsions:
REMARK  status: ('A' for Active; 'I' for Inactive)
REMARK    1  A    between atoms: O_2  and  C_10
REMARK    2  A    between atoms: N_5  and  C_17
REMARK    3  A    between atoms: N_6  and  C_11
REMARK    4  A    between atoms: N_6  and  C_19
REMARK    5  A    between atoms: N_7  and  C_25
REMARK    6  A    between atoms: C_8  and  C_18
REMARK    7  A    between atoms: C_9  and  C_17
REMARK    8  A    between atoms: C_19  and  C_20
REMARK    9  A    between atoms: C_26  and  C_27
REMARK                            x       y       z     vdW  Elec       q    Type
REMARK                         _______ _______ _______ _____ _____    ______ ____
ROOT
ATOM      1  O   UNL     1      -1.396  -9.856  13.357  0.00  0.00    -0.371 OA
ATOM      9  C   UNL     1      -1.949 -10.826  12.453  0.00  0.00    +0.165 C 
ATOM     10  C   UNL     1      -2.929 -11.654  13.273  0.00  0.00    +0.164 C 
ATOM     11  C   UNL     1      -2.229 -11.687  14.620  0.00  0.00    +0.111 C 
ATOM     16  C   UNL     1      -1.676 -10.274  14.705  0.00  0.00    +0.181 C 
ENDROOT
BRANCH  10   2
ATOM      2  O   UNL     1      -3.117 -12.944  12.725  0.00  0.00    -0.388 OA
ATOM     30  H   UNL     1      -3.947 -12.945  12.219  0.00  0.00    +0.210 HD
ENDBRANCH  10   2
BRANCH  11   6
ATOM      6  N   UNL     1      -3.110 -12.017  15.727  0.00  0.00    -0.305 NA
ATOM     29  H   UNL     1      -2.772 -12.868  16.179  0.00  0.00    +0.123 HD
BRANCH   6  19
ATOM     19  C   UNL     1      -3.143 -10.942  16.712  0.00  0.00    +0.116 C 
BRANCH  19  20
ATOM     20  C   UNL     1      -4.552 -10.563  17.081  0.00  0.00    -0.033 A 
ATOM     21  C   UNL     1      -5.368  -9.921  16.148  0.00  0.00    +0.007 A 
ATOM     22  C   UNL     1      -5.042 -10.852  18.354  0.00  0.00    +0.007 A 
ATOM     23  C   UNL     1      -6.673  -9.569  16.491  0.00  0.00    +0.023 A 
ATOM     24  C   UNL     1      -6.348 -10.500  18.696  0.00  0.00    +0.023 A 
ATOM     25  C   UNL     1      -7.163  -9.857  17.763  0.00  0.00    +0.033 A 
BRANCH  25   7
ATOM      4  O   UNL     1      -9.690 -11.493  17.773  0.00  0.00    -0.276 OA
ATOM      7  N   UNL     1      -8.470  -9.505  18.106  0.00  0.00    -0.286 N 
ATOM     26  C   UNL     1      -9.615 -10.311  18.090  0.00  0.00    +0.214 C 
ATOM     27  C   UNL     1     -10.840  -9.551  18.533  0.00  0.00    +0.109 C 
ATOM     31  H   UNL     1      -8.595  -8.539  18.402  0.00  0.00    +0.155 HD
ENDBRANCH  25   7
ENDBRANCH  19  20
ENDBRANCH   6  19
ENDBRANCH  11   6
BRANCH   9  17
ATOM     17  C   UNL     1      -2.598 -10.120  11.276  0.00  0.00    +0.138 C 
BRANCH  17   5
ATOM      3  O   UNL     1      -4.800  -8.348  10.614  0.00  0.00    -0.276 OA
ATOM      5  N   UNL     1      -3.987 -10.461  11.164  0.00  0.00    -0.313 N 
ATOM     18  C   UNL     1      -4.979  -9.542  10.841  0.00  0.00    +0.216 C 
ATOM     28  H   UNL     1      -4.246 -11.428  11.330  0.00  0.00    +0.149 HD
BRANCH  18   8
ATOM      8  C   UNL     1      -6.340 -10.165  10.766  0.00  0.00    +0.075 C 
ATOM     12  C   UNL     1      -7.409  -9.162  11.214  0.00  0.00    +0.013 C 
ATOM     13  C   UNL     1      -6.442 -11.355  11.722  0.00  0.00    +0.013 C 
ATOM     14  C   UNL     1      -8.167  -9.841  12.350  0.00  0.00    +0.001 C 
ATOM     15  C   UNL     1      -7.156 -10.804  12.947  0.00  0.00    +0.001 C 
ENDBRANCH  18   8
ENDBRANCH  17   5
ENDBRANCH   9  17
TORSDOF 8
ENDMDL
MODEL 8
REMARK VINA RESULT:      -6.5     19.541     22.170
REMARK  Name = 75536562
REMARK  9 active torsions:
REMARK  status: ('A' for Active; 'I' for Inactive)
REMARK    1  A    between atoms: O_2  and  C_10
REMARK    2  A    between atoms: N_5  and  C_17
REMARK    3  A    between atoms: N_6  and  C_11
REMARK    4  A    between atoms: N_6  and  C_19
REMARK    5  A    between atoms: N_7  and  C_25
REMARK    6  A    between atoms: C_8  and  C_18
REMARK    7  A    between atoms: C_9  and  C_17
REMARK    8  A    between atoms: C_19  and  C_20
REMARK    9  A    between atoms: C_26  and  C_27
REMARK                            x       y       z     vdW  Elec       q    Type
REMARK                         _______ _______ _______ _____ _____    ______ ____
ROOT
ATOM      1  O   UNL     1      -9.735  -8.917   7.060  0.00  0.00    -0.371 OA
ATOM      9  C   UNL     1      -9.473  -7.567   7.476  0.00  0.00    +0.165 C 
ATOM     10  C   UNL     1      -7.990  -7.331   7.225  0.00  0.00    +0.164 C 
ATOM     11  C   UNL     1      -7.418  -8.702   7.537  0.00  0.00    +0.111 C 
ATOM     16  C   UNL     1      -8.481  -9.612   6.943  0.00  0.00    +0.181 C 
ENDROOT
BRANCH  10   2
ATOM      2  O   UNL     1      -7.468  -6.319   8.065  0.00  0.00    -0.388 OA
ATOM     30  H   UNL     1      -6.939  -5.712   7.521  0.00  0.00    +0.210 HD
ENDBRANCH  10   2
BRANCH  11   6
ATOM      6  N   UNL     1      -6.100  -8.927   6.970  0.00  0.00    -0.305 NA
ATOM     29  H   UNL     1      -5.449  -8.243   7.357  0.00  0.00    +0.123 HD
BRANCH   6  19
ATOM     19  C   UNL     1      -5.615 -10.267   7.281  0.00  0.00    +0.116 C 
BRANCH  19  20
ATOM     20  C   UNL     1      -4.776 -10.284   8.530  0.00  0.00    -0.033 A 
ATOM     21  C   UNL     1      -4.486 -11.497   9.157  0.00  0.00    +0.007 A 
ATOM     22  C   UNL     1      -4.288  -9.090   9.060  0.00  0.00    +0.007 A 
ATOM     23  C   UNL     1      -3.708 -11.513  10.315  0.00  0.00    +0.023 A 
ATOM     24  C   UNL     1      -3.511  -9.108  10.218  0.00  0.00    +0.023 A 
ATOM     25  C   UNL     1      -3.221 -10.320  10.846  0.00  0.00    +0.033 A 
BRANCH  25   7
ATOM      4  O   UNL     1      -4.026 -10.571  13.736  0.00  0.00    -0.276 OA
ATOM      7  N   UNL     1      -2.443 -10.336  12.005  0.00  0.00    -0.286 N 
ATOM     26  C   UNL     1      -2.873 -10.454  13.333  0.00  0.00    +0.214 C 
ATOM     27  C   UNL     1      -1.716 -10.430  14.300  0.00  0.00    +0.109 C 
ATOM     31  H   UNL     1      -1.440 -10.250  11.856  0.00  0.00    +0.155 HD
ENDBRANCH  25   7
ENDBRANCH  19  20
ENDBRANCH   6  19
ENDBRANCH  11   6
BRANCH   9  17
ATOM     17  C   UNL     1     -10.370  -6.610   6.711  0.00  0.00    +0.138 C 
BRANCH  17   5
ATOM      3  O   UNL     1      -9.829  -4.580   8.715  0.00  0.00    -0.276 OA
ATOM      5  N   UNL     1     -11.314  -5.972   7.582  0.00  0.00    -0.313 N 
ATOM     18  C   UNL     1     -10.965  -5.005   8.517  0.00  0.00    +0.216 C 
ATOM     28  H   UNL     1     -12.288  -6.249   7.500  0.00  0.00    +0.149 HD
BRANCH  18   8
ATOM      8  C   UNL     1     -12.146  -4.485   9.278  0.00  0.00    +0.075 C 
ATOM     12  C   UNL     1     -11.697  -3.438  10.305  0.00  0.00    +0.013 C 
ATOM     13  C   UNL     1     -12.812  -5.608  10.075  0.00  0.00    +0.013 C 
ATOM     14  C   UNL     1     -12.205  -3.934  11.654  0.00  0.00    +0.001 C 
ATOM     15  C   UNL     1     -12.280  -5.442  11.491  0.00  0.00    +0.001 C 
ENDBRANCH  18   8
ENDBRANCH  17   5
ENDBRANCH   9  17
TORSDOF 8
ENDMDL
MODEL 9
REMARK VINA RESULT:      -6.4     20.135     21.255
REMARK  Name = 75536562
REMARK  9 active torsions:
REMARK  status: ('A' for Active; 'I' for Inactive)
REMARK    1  A    between atoms: O_2  and  C_10
REMARK    2  A    between atoms: N_5  and  C_17
REMARK    3  A    between atoms: N_6  and  C_11
REMARK    4  A    between atoms: N_6  and  C_19
REMARK    5  A    between atoms: N_7  and  C_25
REMARK    6  A    between atoms: C_8  and  C_18
REMARK    7  A    between atoms: C_9  and  C_17
REMARK    8  A    between atoms: C_19  and  C_20
REMARK    9  A    between atoms: C_26  and  C_27
REMARK                            x       y       z     vdW  Elec       q    Type
REMARK                         _______ _______ _______ _____ _____    ______ ____
ROOT
ATOM      1  O   UNL     1      -5.029 -11.839  15.875  0.00  0.00    -0.371 OA
ATOM      9  C   UNL     1      -3.967 -11.692  16.832  0.00  0.00    +0.165 C 
ATOM     10  C   UNL     1      -2.922 -10.806  16.168  0.00  0.00    +0.164 C 
ATOM     11  C   UNL     1      -3.037 -11.253  14.722  0.00  0.00    +0.111 C 
ATOM     16  C   UNL     1      -4.539 -11.438  14.583  0.00  0.00    +0.181 C 
ENDROOT
BRANCH  10   2
ATOM      2  O   UNL     1      -1.631 -11.022  16.704  0.00  0.00    -0.388 OA
ATOM     30  H   UNL     1      -1.711 -11.622  17.464  0.00  0.00    +0.210 HD
ENDBRANCH  10   2
BRANCH  11   6
ATOM      6  N   UNL     1      -2.495 -10.297  13.771  0.00  0.00    -0.305 NA
ATOM     29  H   UNL     1      -1.760  -9.754  14.226  0.00  0.00    +0.123 HD
BRANCH   6  19
ATOM     19  C   UNL     1      -1.931 -10.972  12.609  0.00  0.00    +0.116 C 
BRANCH  19  20
ATOM     20  C   UNL     1      -2.744 -10.727  11.367  0.00  0.00    -0.033 A 
ATOM     21  C   UNL     1      -2.796  -9.450  10.808  0.00  0.00    +0.007 A 
ATOM     22  C   UNL     1      -3.446 -11.777  10.773  0.00  0.00    +0.007 A 
ATOM     23  C   UNL     1      -3.549  -9.222   9.657  0.00  0.00    +0.023 A 
ATOM     24  C   UNL     1      -4.200 -11.548   9.622  0.00  0.00    +0.023 A 
ATOM     25  C   UNL     1      -4.252 -10.271   9.064  0.00  0.00    +0.033 A 
BRANCH  25   7
ATOM      4  O   UNL     1      -6.979  -9.042   8.725  0.00  0.00    -0.276 OA
ATOM      7  N   UNL     1      -5.006 -10.043   7.912  0.00  0.00    -0.286 N 
ATOM     26  C   UNL     1      -6.279  -9.466   7.812  0.00  0.00    +0.214 C 
ATOM     27  C   UNL     1      -6.751  -9.398   6.381  0.00  0.00    +0.109 C 
ATOM     31  H   UNL     1      -4.569 -10.338   7.041  0.00  0.00    +0.155 HD
ENDBRANCH  25   7
ENDBRANCH  19  20
ENDBRANCH   6  19
ENDBRANCH  11   6
BRANCH   9  17
ATOM     17  C   UNL     1      -4.516 -11.108  18.122  0.00  0.00    +0.138 C 
BRANCH  17   5
ATOM      3  O   UNL     1      -6.419 -11.025  20.313  0.00  0.00    -0.276 OA
ATOM      5  N   UNL     1      -5.932 -10.897  18.039  0.00  0.00    -0.313 N 
ATOM     18  C   UNL     1      -6.772 -10.873  19.146  0.00  0.00    +0.216 C 
ATOM     28  H   UNL     1      -6.330 -10.757  17.115  0.00  0.00    +0.149 HD
BRANCH  18   8
ATOM      8  C   UNL     1      -8.201 -10.610  18.781  0.00  0.00    +0.075 C 
ATOM     12  C   UNL     1      -9.139 -11.399  19.702  0.00  0.00    +0.013 C 
ATOM     13  C   UNL     1      -8.492 -11.092  17.359  0.00  0.00    +0.013 C 
ATOM     14  C   UNL     1     -10.016 -12.240  18.781  0.00  0.00    +0.001 C 
ATOM     15  C   UNL     1      -9.163 -12.445  17.542  0.00  0.00    +0.001 C 
ENDBRANCH  18   8
ENDBRANCH  17   5
ENDBRANCH   9  17
TORSDOF 8
ENDMDL
MODEL 10
REMARK VINA RESULT:      -6.4     20.184     22.918
REMARK  Name = 75536562
REMARK  9 active torsions:
REMARK  status: ('A' for Active; 'I' for Inactive)
REMARK    1  A    between atoms: O_2  and  C_10
REMARK    2  A    between atoms: N_5  and  C_17
REMARK    3  A    between atoms: N_6  and  C_11
REMARK    4  A    between atoms: N_6  and  C_19
REMARK    5  A    between atoms: N_7  and  C_25
REMARK    6  A    between atoms: C_8  and  C_18
REMARK    7  A    between atoms: C_9  and  C_17
REMARK    8  A    between atoms: C_19  and  C_20
REMARK    9  A    between atoms: C_26  and  C_27
REMARK                            x       y       z     vdW  Elec       q    Type
REMARK                         _______ _______ _______ _____ _____    ______ ____
ROOT
ATOM      1  O   UNL     1      -1.625 -10.409  12.883  0.00  0.00    -0.371 OA
ATOM      9  C   UNL     1      -2.039 -11.782  12.791  0.00  0.00    +0.165 C 
ATOM     10  C   UNL     1      -2.539 -12.164  14.178  0.00  0.00    +0.164 C 
ATOM     11  C   UNL     1      -1.599 -11.361  15.059  0.00  0.00    +0.111 C 
ATOM     16  C   UNL     1      -1.484 -10.066  14.273  0.00  0.00    +0.181 C 
ENDROOT
BRANCH  10   2
ATOM      2  O   UNL     1      -2.444 -13.557  14.407  0.00  0.00    -0.388 OA
ATOM     30  H   UNL     1      -2.542 -14.015  13.555  0.00  0.00    +0.210 HD
ENDBRANCH  10   2
BRANCH  11   6
ATOM      6  N   UNL     1      -2.094 -11.161  16.410  0.00  0.00    -0.305 NA
ATOM     29  H   UNL     1      -1.400 -10.640  16.946  0.00  0.00    +0.123 HD
BRANCH   6  19
ATOM     19  C   UNL     1      -3.345 -10.412  16.406  0.00  0.00    +0.116 C 
BRANCH  19  20
ATOM     20  C   UNL     1      -4.439 -11.140  17.140  0.00  0.00    -0.033 A 
ATOM     21  C   UNL     1      -5.582 -11.554  16.455  0.00  0.00    +0.007 A 
ATOM     22  C   UNL     1      -4.309 -11.403  18.504  0.00  0.00    +0.007 A 
ATOM     23  C   UNL     1      -6.596 -12.229  17.135  0.00  0.00    +0.023 A 
ATOM     24  C   UNL     1      -5.323 -12.079  19.183  0.00  0.00    +0.023 A 
ATOM     25  C   UNL     1      -6.467 -12.491  18.498  0.00  0.00    +0.033 A 
BRANCH  25   7
ATOM      4  O   UNL     1      -8.851 -11.434  20.002  0.00  0.00    -0.276 OA
ATOM      7  N   UNL     1      -7.481 -13.167  19.179  0.00  0.00    -0.286 N 
ATOM     26  C   UNL     1      -8.573 -12.621  19.867  0.00  0.00    +0.214 C 
ATOM     27  C   UNL     1      -9.446 -13.692  20.470  0.00  0.00    +0.109 C 
ATOM     31  H   UNL     1      -7.409 -14.182  19.168  0.00  0.00    +0.155 HD
ENDBRANCH  25   7
ENDBRANCH  19  20
ENDBRANCH   6  19
ENDBRANCH  11   6
BRANCH   9  17
ATOM     17  C   UNL     1      -3.096 -11.929  11.711  0.00  0.00    +0.138 C 
BRANCH  17   5
ATOM      3  O   UNL     1      -3.457  -9.669   9.925  0.00  0.00    -0.276 OA
ATOM      5  N   UNL     1      -4.085 -10.895  11.804  0.00  0.00    -0.313 N 
ATOM     18  C   UNL     1      -4.185  -9.844  10.900  0.00  0.00    +0.216 C 
ATOM     28  H   UNL     1      -4.743 -10.945  12.576  0.00  0.00    +0.149 HD
BRANCH  18   8
ATOM      8  C   UNL     1      -5.320  -8.918  11.214  0.00  0.00    +0.075 C 
ATOM     12  C   UNL     1      -6.041  -9.375  12.488  0.00  0.00    +0.013 C 
ATOM     13  C   UNL     1      -6.365  -8.946  10.097  0.00  0.00    +0.013 C 
ATOM     14  C   UNL     1      -7.504  -9.556  12.095  0.00  0.00    +0.001 C 
ATOM     15  C   UNL     1      -7.453  -9.876  10.612  0.00  0.00    +0.001 C 
ENDBRANCH  18   8
ENDBRANCH  17   5
ENDBRANCH   9  17
TORSDOF 8
ENDMDL
