MODEL 1
REMARK VINA RESULT:      -7.2      0.000      0.000
REMARK  Name = 51137041
REMARK  4 active torsions:
REMARK  status: ('A' for Active; 'I' for Inactive)
REMARK    1  A    between atoms: N_4  and  C_13
REMARK    2  A    between atoms: C_8  and  C_12
REMARK    3  A    between atoms: C_13  and  C_14
REMARK    4  A    between atoms: C_22  and  C_25
REMARK                            x       y       z     vdW  Elec       q    Type
REMARK                         _______ _______ _______ _____ _____    ______ ____
ROOT
ATOM      4  N   UNL     1     -13.413   6.519  21.287  0.00  0.00    -0.297 NA
ATOM      8  C   UNL     1     -15.214   5.254  22.094  0.00  0.00    +0.070 C 
ATOM      9  C   UNL     1     -15.483   6.748  22.343  0.00  0.00    +0.028 C 
ATOM     10  C   UNL     1     -13.714   5.175  21.783  0.00  0.00    +0.096 C 
ATOM     11  C   UNL     1     -14.126   7.423  22.189  0.00  0.00    +0.085 C 
ENDROOT
BRANCH   8  12
ATOM      5  N   UNL     1     -15.578   4.747  24.526  0.00  0.00    -0.340 N 
ATOM      6  N   UNL     1     -16.074   3.104  23.107  0.00  0.00    -0.213 NA
ATOM      7  N   UNL     1     -16.787   1.484  24.769  0.00  0.00    -0.234 NA
ATOM     12  C   UNL     1     -15.632   4.337  23.221  0.00  0.00    +0.114 A 
ATOM     15  C   UNL     1     -16.014   3.709  25.304  0.00  0.00    +0.085 A 
ATOM     16  C   UNL     1     -16.315   2.699  24.396  0.00  0.00    +0.178 A 
ATOM     19  C   UNL     1     -16.176   3.540  26.674  0.00  0.00    +0.031 A 
ATOM     23  C   UNL     1     -16.659   2.296  27.072  0.00  0.00    +0.022 A 
ATOM     24  C   UNL     1     -16.939   1.335  26.106  0.00  0.00    +0.113 A 
ATOM     26  H   UNL     1     -15.272   5.653  24.857  0.00  0.00    +0.167 HD
ENDBRANCH   8  12
BRANCH   4  13
ATOM     13  C   UNL     1     -11.983   6.789  21.247  0.00  0.00    +0.119 C 
BRANCH  13  14
ATOM     14  C   UNL     1     -11.612   7.677  20.088  0.00  0.00    -0.033 A 
ATOM     17  C   UNL     1     -11.420   7.124  18.822  0.00  0.00    +0.005 A 
ATOM     18  C   UNL     1     -11.461   9.050  20.280  0.00  0.00    +0.005 A 
ATOM     20  C   UNL     1     -11.077   7.945  17.748  0.00  0.00    +0.012 A 
ATOM     21  C   UNL     1     -11.118   9.871  19.207  0.00  0.00    +0.012 A 
ATOM     22  C   UNL     1     -10.925   9.319  17.940  0.00  0.00    +0.055 A 
BRANCH  22  25
ATOM      1  F   UNL     1     -11.600  10.957  16.332  0.00  0.00    -0.166 F 
ATOM      2  F   UNL     1     -10.119   9.491  15.710  0.00  0.00    -0.166 F 
ATOM      3  F   UNL     1      -9.568  11.089  17.078  0.00  0.00    -0.166 F 
ATOM     25  C   UNL     1     -10.561  10.197  16.791  0.00  0.00    +0.417 C 
ENDBRANCH  22  25
ENDBRANCH  13  14
ENDBRANCH   4  13
TORSDOF 4
ENDMDL
MODEL 2
REMARK VINA RESULT:      -7.1      1.451      2.076
REMARK  Name = 51137041
REMARK  4 active torsions:
REMARK  status: ('A' for Active; 'I' for Inactive)
REMARK    1  A    between atoms: N_4  and  C_13
REMARK    2  A    between atoms: C_8  and  C_12
REMARK    3  A    between atoms: C_13  and  C_14
REMARK    4  A    between atoms: C_22  and  C_25
REMARK                            x       y       z     vdW  Elec       q    Type
REMARK                         _______ _______ _______ _____ _____    ______ ____
ROOT
ATOM      4  N   UNL     1     -14.981   5.981  22.041  0.00  0.00    -0.297 NA
ATOM      8  C   UNL     1     -15.687   3.997  23.072  0.00  0.00    +0.070 C 
ATOM      9  C   UNL     1     -16.899   4.714  22.450  0.00  0.00    +0.028 C 
ATOM     10  C   UNL     1     -14.583   5.062  23.109  0.00  0.00    +0.096 C 
ATOM     11  C   UNL     1     -16.426   6.140  22.197  0.00  0.00    +0.085 C 
ENDROOT
BRANCH   8  12
ATOM      5  N   UNL     1     -15.774   4.079  25.579  0.00  0.00    -0.340 N 
ATOM      6  N   UNL     1     -16.344   2.137  24.652  0.00  0.00    -0.213 NA
ATOM      7  N   UNL     1     -16.810   0.948  26.717  0.00  0.00    -0.234 NA
ATOM     12  C   UNL     1     -15.946   3.369  24.422  0.00  0.00    +0.114 A 
ATOM     15  C   UNL     1     -16.082   3.249  26.623  0.00  0.00    +0.085 A 
ATOM     16  C   UNL     1     -16.433   2.047  26.018  0.00  0.00    +0.178 A 
ATOM     19  C   UNL     1     -16.094   3.409  28.004  0.00  0.00    +0.031 A 
ATOM     23  C   UNL     1     -16.479   2.288  28.735  0.00  0.00    +0.022 A 
ATOM     24  C   UNL     1     -16.816   1.119  28.059  0.00  0.00    +0.113 A 
ATOM     26  H   UNL     1     -15.474   5.042  25.652  0.00  0.00    +0.167 HD
ENDBRANCH   8  12
BRANCH   4  13
ATOM     13  C   UNL     1     -14.273   7.251  22.108  0.00  0.00    +0.119 C 
BRANCH  13  14
ATOM     14  C   UNL     1     -13.407   7.475  20.897  0.00  0.00    -0.033 A 
ATOM     17  C   UNL     1     -13.969   7.978  19.724  0.00  0.00    +0.005 A 
ATOM     18  C   UNL     1     -12.045   7.181  20.947  0.00  0.00    +0.005 A 
ATOM     20  C   UNL     1     -13.168   8.187  18.600  0.00  0.00    +0.012 A 
ATOM     21  C   UNL     1     -11.244   7.390  19.826  0.00  0.00    +0.012 A 
ATOM     22  C   UNL     1     -11.805   7.892  18.651  0.00  0.00    +0.055 A 
BRANCH  22  25
ATOM      1  F   UNL     1     -11.652   8.473  16.335  0.00  0.00    -0.166 F 
ATOM      2  F   UNL     1     -10.235   7.011  17.098  0.00  0.00    -0.166 F 
ATOM      3  F   UNL     1     -10.025   9.111  17.620  0.00  0.00    -0.166 F 
ATOM     25  C   UNL     1     -10.949   8.119  17.452  0.00  0.00    +0.417 C 
ENDBRANCH  22  25
ENDBRANCH  13  14
ENDBRANCH   4  13
TORSDOF 4
ENDMDL
MODEL 3
REMARK VINA RESULT:      -7.0     26.942     31.559
REMARK  Name = 51137041
REMARK  4 active torsions:
REMARK  status: ('A' for Active; 'I' for Inactive)
REMARK    1  A    between atoms: N_4  and  C_13
REMARK    2  A    between atoms: C_8  and  C_12
REMARK    3  A    between atoms: C_13  and  C_14
REMARK    4  A    between atoms: C_22  and  C_25
REMARK                            x       y       z     vdW  Elec       q    Type
REMARK                         _______ _______ _______ _____ _____    ______ ____
ROOT
ATOM      4  N   UNL     1      11.118   5.716   3.692  0.00  0.00    -0.297 NA
ATOM      8  C   UNL     1      11.931   4.436   1.904  0.00  0.00    +0.070 C 
ATOM      9  C   UNL     1      12.861   5.639   2.140  0.00  0.00    +0.028 C 
ATOM     10  C   UNL     1      10.647   4.782   2.668  0.00  0.00    +0.096 C 
ATOM     11  C   UNL     1      12.049   6.603   2.994  0.00  0.00    +0.085 C 
ENDROOT
BRANCH   8  12
ATOM      5  N   UNL     1      12.671   3.583  -0.339  0.00  0.00    -0.340 N 
ATOM      6  N   UNL     1      10.552   4.255  -0.207  0.00  0.00    -0.213 NA
ATOM      7  N   UNL     1       9.949   3.788  -2.512  0.00  0.00    -0.234 NA
ATOM     12  C   UNL     1      11.680   4.102   0.451  0.00  0.00    +0.114 A 
ATOM     15  C   UNL     1      12.145   3.389  -1.587  0.00  0.00    +0.085 A 
ATOM     16  C   UNL     1      10.826   3.816  -1.477  0.00  0.00    +0.178 A 
ATOM     19  C   UNL     1      12.663   2.898  -2.780  0.00  0.00    +0.031 A 
ATOM     23  C   UNL     1      11.775   2.864  -3.852  0.00  0.00    +0.022 A 
ATOM     24  C   UNL     1      10.469   3.307  -3.666  0.00  0.00    +0.113 A 
ATOM     26  H   UNL     1      13.619   3.379  -0.053  0.00  0.00    +0.167 HD
ENDBRANCH   8  12
BRANCH   4  13
ATOM     13  C   UNL     1      10.028   6.443   4.325  0.00  0.00    +0.119 C 
BRANCH  13  14
ATOM     14  C   UNL     1       9.826   6.016   5.755  0.00  0.00    -0.033 A 
ATOM     17  C   UNL     1       9.471   6.960   6.719  0.00  0.00    +0.005 A 
ATOM     18  C   UNL     1       9.992   4.679   6.115  0.00  0.00    +0.005 A 
ATOM     20  C   UNL     1       9.283   6.565   8.044  0.00  0.00    +0.012 A 
ATOM     21  C   UNL     1       9.804   4.285   7.439  0.00  0.00    +0.012 A 
ATOM     22  C   UNL     1       9.450   5.228   8.405  0.00  0.00    +0.055 A 
BRANCH  22  25
ATOM      1  F   UNL     1       8.166   5.396  10.417  0.00  0.00    -0.166 F 
ATOM      2  F   UNL     1      10.311   5.104  10.617  0.00  0.00    -0.166 F 
ATOM      3  F   UNL     1       9.042   3.463   9.966  0.00  0.00    -0.166 F 
ATOM     25  C   UNL     1       9.245   4.806   9.820  0.00  0.00    +0.417 C 
ENDBRANCH  22  25
ENDBRANCH  13  14
ENDBRANCH   4  13
TORSDOF 4
ENDMDL
MODEL 4
REMARK VINA RESULT:      -6.9     28.640     32.561
REMARK  Name = 51137041
REMARK  4 active torsions:
REMARK  status: ('A' for Active; 'I' for Inactive)
REMARK    1  A    between atoms: N_4  and  C_13
REMARK    2  A    between atoms: C_8  and  C_12
REMARK    3  A    between atoms: C_13  and  C_14
REMARK    4  A    between atoms: C_22  and  C_25
REMARK                            x       y       z     vdW  Elec       q    Type
REMARK                         _______ _______ _______ _____ _____    ______ ____
ROOT
ATOM      4  N   UNL     1      11.982   4.155   1.772  0.00  0.00    -0.297 NA
ATOM      8  C   UNL     1      10.400   5.142   3.193  0.00  0.00    +0.070 C 
ATOM      9  C   UNL     1      11.268   6.238   2.550  0.00  0.00    +0.028 C 
ATOM     10  C   UNL     1      11.175   3.841   2.953  0.00  0.00    +0.096 C 
ATOM     11  C   UNL     1      12.490   5.506   2.011  0.00  0.00    +0.085 C 
ENDROOT
BRANCH   8  12
ATOM      5  N   UNL     1      10.280   4.395   5.587  0.00  0.00    -0.340 N 
ATOM      6  N   UNL     1       9.559   6.462   5.179  0.00  0.00    -0.213 NA
ATOM      7  N   UNL     1       8.958   7.022   7.463  0.00  0.00    -0.234 NA
ATOM     12  C   UNL     1      10.066   5.370   4.650  0.00  0.00    +0.114 A 
ATOM     15  C   UNL     1       9.885   4.893   6.799  0.00  0.00    +0.085 A 
ATOM     16  C   UNL     1       9.440   6.180   6.516  0.00  0.00    +0.178 A 
ATOM     19  C   UNL     1       9.865   4.374   8.088  0.00  0.00    +0.031 A 
ATOM     23  C   UNL     1       9.372   5.227   9.072  0.00  0.00    +0.022 A 
ATOM     24  C   UNL     1       8.945   6.502   8.712  0.00  0.00    +0.113 A 
ATOM     26  H   UNL     1      10.662   3.474   5.417  0.00  0.00    +0.167 HD
ENDBRANCH   8  12
BRANCH   4  13
ATOM     13  C   UNL     1      13.051   3.191   1.557  0.00  0.00    +0.119 C 
BRANCH  13  14
ATOM     14  C   UNL     1      13.991   3.630   0.465  0.00  0.00    -0.033 A 
ATOM     17  C   UNL     1      15.340   3.839   0.751  0.00  0.00    +0.005 A 
ATOM     18  C   UNL     1      13.513   3.828  -0.830  0.00  0.00    +0.005 A 
ATOM     20  C   UNL     1      16.212   4.246  -0.259  0.00  0.00    +0.012 A 
ATOM     21  C   UNL     1      14.384   4.235  -1.840  0.00  0.00    +0.012 A 
ATOM     22  C   UNL     1      15.734   4.444  -1.555  0.00  0.00    +0.055 A 
BRANCH  22  25
ATOM      1  F   UNL     1      17.831   4.160  -2.672  0.00  0.00    -0.166 F 
ATOM      2  F   UNL     1      17.044   6.181  -2.514  0.00  0.00    -0.166 F 
ATOM      3  F   UNL     1      16.140   4.761  -3.891  0.00  0.00    -0.166 F 
ATOM     25  C   UNL     1      16.667   4.875  -2.635  0.00  0.00    +0.417 C 
ENDBRANCH  22  25
ENDBRANCH  13  14
ENDBRANCH   4  13
TORSDOF 4
ENDMDL
MODEL 5
REMARK VINA RESULT:      -6.7     20.072     21.134
REMARK  Name = 51137041
REMARK  4 active torsions:
REMARK  status: ('A' for Active; 'I' for Inactive)
REMARK    1  A    between atoms: N_4  and  C_13
REMARK    2  A    between atoms: C_8  and  C_12
REMARK    3  A    between atoms: C_13  and  C_14
REMARK    4  A    between atoms: C_22  and  C_25
REMARK                            x       y       z     vdW  Elec       q    Type
REMARK                         _______ _______ _______ _____ _____    ______ ____
ROOT
ATOM      4  N   UNL     1      -1.913 -10.928  13.834  0.00  0.00    -0.297 NA
ATOM      8  C   UNL     1      -3.065 -10.167  15.730  0.00  0.00    +0.070 C 
ATOM      9  C   UNL     1      -1.675 -10.682  16.144  0.00  0.00    +0.028 C 
ATOM     10  C   UNL     1      -3.280 -10.725  14.317  0.00  0.00    +0.096 C 
ATOM     11  C   UNL     1      -1.197 -11.519  14.965  0.00  0.00    +0.085 C 
ENDROOT
BRANCH   8  12
ATOM      5  N   UNL     1      -5.411  -9.924  16.588  0.00  0.00    -0.340 N 
ATOM      6  N   UNL     1      -4.133 -11.398  17.661  0.00  0.00    -0.213 NA
ATOM      7  N   UNL     1      -5.796 -12.107  19.282  0.00  0.00    -0.234 NA
ATOM     12  C   UNL     1      -4.184 -10.523  16.681  0.00  0.00    +0.114 A 
ATOM     15  C   UNL     1      -6.203 -10.448  17.574  0.00  0.00    +0.085 A 
ATOM     16  C   UNL     1      -5.382 -11.362  18.227  0.00  0.00    +0.178 A 
ATOM     19  C   UNL     1      -7.519 -10.231  17.963  0.00  0.00    +0.031 A 
ATOM     23  C   UNL     1      -7.958 -10.988  19.046  0.00  0.00    +0.022 A 
ATOM     24  C   UNL     1      -7.080 -11.884  19.649  0.00  0.00    +0.113 A 
ATOM     26  H   UNL     1      -5.685  -9.221  15.914  0.00  0.00    +0.167 HD
ENDBRANCH   8  12
BRANCH   4  13
ATOM     13  C   UNL     1      -1.861 -11.766  12.646  0.00  0.00    +0.119 C 
BRANCH  13  14
ATOM     14  C   UNL     1      -2.770 -11.255  11.560  0.00  0.00    -0.033 A 
ATOM     17  C   UNL     1      -3.748 -12.091  11.019  0.00  0.00    +0.005 A 
ATOM     18  C   UNL     1      -2.635  -9.948  11.093  0.00  0.00    +0.005 A 
ATOM     20  C   UNL     1      -4.591 -11.619  10.013  0.00  0.00    +0.012 A 
ATOM     21  C   UNL     1      -3.477  -9.475  10.088  0.00  0.00    +0.012 A 
ATOM     22  C   UNL     1      -4.455 -10.311   9.546  0.00  0.00    +0.055 A 
BRANCH  22  25
ATOM      1  F   UNL     1      -4.840  -9.931   7.215  0.00  0.00    -0.166 F 
ATOM      2  F   UNL     1      -5.654  -8.481   8.616  0.00  0.00    -0.166 F 
ATOM      3  F   UNL     1      -6.564 -10.446   8.427  0.00  0.00    -0.166 F 
ATOM     25  C   UNL     1      -5.359  -9.805   8.474  0.00  0.00    +0.417 C 
ENDBRANCH  22  25
ENDBRANCH  13  14
ENDBRANCH   4  13
TORSDOF 4
ENDMDL
MODEL 6
REMARK VINA RESULT:      -6.7     20.052     22.364
REMARK  Name = 51137041
REMARK  4 active torsions:
REMARK  status: ('A' for Active; 'I' for Inactive)
REMARK    1  A    between atoms: N_4  and  C_13
REMARK    2  A    between atoms: C_8  and  C_12
REMARK    3  A    between atoms: C_13  and  C_14
REMARK    4  A    between atoms: C_22  and  C_25
REMARK                            x       y       z     vdW  Elec       q    Type
REMARK                         _______ _______ _______ _____ _____    ______ ____
ROOT
ATOM      4  N   UNL     1      -1.784  10.678  36.840  0.00  0.00    -0.297 NA
ATOM      8  C   UNL     1      -0.318  12.354  36.104  0.00  0.00    +0.070 C 
ATOM      9  C   UNL     1      -1.613  12.997  36.629  0.00  0.00    +0.028 C 
ATOM     10  C   UNL     1      -0.671  10.874  35.909  0.00  0.00    +0.096 C 
ATOM     11  C   UNL     1      -2.627  11.862  36.674  0.00  0.00    +0.085 C 
ENDROOT
BRANCH   8  12
ATOM      5  N   UNL     1       0.381  12.286  33.694  0.00  0.00    -0.340 N 
ATOM      6  N   UNL     1       0.668  14.234  34.733  0.00  0.00    -0.213 NA
ATOM      7  N   UNL     1       1.602  15.442  32.845  0.00  0.00    -0.234 NA
ATOM     12  C   UNL     1       0.250  12.994  34.858  0.00  0.00    +0.114 A 
ATOM     15  C   UNL     1       0.918  13.127  32.757  0.00  0.00    +0.085 A 
ATOM     16  C   UNL     1       1.087  14.332  33.431  0.00  0.00    +0.178 A 
ATOM     19  C   UNL     1       1.271  12.974  31.421  0.00  0.00    +0.031 A 
ATOM     23  C   UNL     1       1.801  14.106  30.807  0.00  0.00    +0.022 A 
ATOM     24  C   UNL     1       1.940  15.277  31.545  0.00  0.00    +0.113 A 
ATOM     26  H   UNL     1       0.127  11.318  33.550  0.00  0.00    +0.167 HD
ENDBRANCH   8  12
BRANCH   4  13
ATOM     13  C   UNL     1      -2.508   9.441  36.588  0.00  0.00    +0.119 C 
BRANCH  13  14
ATOM     14  C   UNL     1      -2.138   8.364  37.573  0.00  0.00    -0.033 A 
ATOM     17  C   UNL     1      -0.965   7.631  37.394  0.00  0.00    +0.005 A 
ATOM     18  C   UNL     1      -2.967   8.099  38.663  0.00  0.00    +0.005 A 
ATOM     20  C   UNL     1      -0.620   6.633  38.306  0.00  0.00    +0.012 A 
ATOM     21  C   UNL     1      -2.623   7.102  39.575  0.00  0.00    +0.012 A 
ATOM     22  C   UNL     1      -1.450   6.368  39.396  0.00  0.00    +0.055 A 
BRANCH  22  25
ATOM      1  F   UNL     1      -2.151   4.759  41.024  0.00  0.00    -0.166 F 
ATOM      2  F   UNL     1      -0.248   5.758  41.354  0.00  0.00    -0.166 F 
ATOM      3  F   UNL     1      -0.432   4.243  39.806  0.00  0.00    -0.166 F 
ATOM     25  C   UNL     1      -1.079   5.304  40.373  0.00  0.00    +0.417 C 
ENDBRANCH  22  25
ENDBRANCH  13  14
ENDBRANCH   4  13
TORSDOF 4
ENDMDL
MODEL 7
REMARK VINA RESULT:      -6.7      7.101     11.243
REMARK  Name = 51137041
REMARK  4 active torsions:
REMARK  status: ('A' for Active; 'I' for Inactive)
REMARK    1  A    between atoms: N_4  and  C_13
REMARK    2  A    between atoms: C_8  and  C_12
REMARK    3  A    between atoms: C_13  and  C_14
REMARK    4  A    between atoms: C_22  and  C_25
REMARK                            x       y       z     vdW  Elec       q    Type
REMARK                         _______ _______ _______ _____ _____    ______ ____
ROOT
ATOM      4  N   UNL     1     -17.104   2.217  26.914  0.00  0.00    -0.297 NA
ATOM      8  C   UNL     1     -16.846   4.143  25.603  0.00  0.00    +0.070 C 
ATOM      9  C   UNL     1     -18.048   3.330  25.092  0.00  0.00    +0.028 C 
ATOM     10  C   UNL     1     -16.072   3.170  26.502  0.00  0.00    +0.096 C 
ATOM     11  C   UNL     1     -17.874   1.945  25.701  0.00  0.00    +0.085 C 
ENDROOT
BRANCH   8  12
ATOM      5  N   UNL     1     -14.748   4.254  24.229  0.00  0.00    -0.340 N 
ATOM      6  N   UNL     1     -16.295   5.787  23.764  0.00  0.00    -0.213 NA
ATOM      7  N   UNL     1     -15.073   6.912  21.993  0.00  0.00    -0.234 NA
ATOM     12  C   UNL     1     -15.988   4.756  24.521  0.00  0.00    +0.114 A 
ATOM     15  C   UNL     1     -14.223   5.011  23.217  0.00  0.00    +0.085 A 
ATOM     16  C   UNL     1     -15.206   5.958  22.948  0.00  0.00    +0.178 A 
ATOM     19  C   UNL     1     -13.022   4.977  22.519  0.00  0.00    +0.031 A 
ATOM     23  C   UNL     1     -12.871   5.952  21.536  0.00  0.00    +0.022 A 
ATOM     24  C   UNL     1     -13.898   6.866  21.323  0.00  0.00    +0.113 A 
ATOM     26  H   UNL     1     -14.300   3.466  24.678  0.00  0.00    +0.167 HD
ENDBRANCH   8  12
BRANCH   4  13
ATOM     13  C   UNL     1     -16.542   1.007  27.497  0.00  0.00    +0.119 C 
BRANCH  13  14
ATOM     14  C   UNL     1     -16.016   1.247  28.888  0.00  0.00    -0.033 A 
ATOM     17  C   UNL     1     -15.050   0.395  29.422  0.00  0.00    +0.005 A 
ATOM     18  C   UNL     1     -16.494   2.319  29.641  0.00  0.00    +0.005 A 
ATOM     20  C   UNL     1     -14.561   0.616  30.710  0.00  0.00    +0.012 A 
ATOM     21  C   UNL     1     -16.007   2.541  30.928  0.00  0.00    +0.012 A 
ATOM     22  C   UNL     1     -15.040   1.689  31.464  0.00  0.00    +0.055 A 
BRANCH  22  25
ATOM      1  F   UNL     1     -15.135   2.955  33.492  0.00  0.00    -0.166 F 
ATOM      2  F   UNL     1     -13.186   2.236  32.848  0.00  0.00    -0.166 F 
ATOM      3  F   UNL     1     -14.646   0.849  33.668  0.00  0.00    -0.166 F 
ATOM     25  C   UNL     1     -14.515   1.927  32.839  0.00  0.00    +0.417 C 
ENDBRANCH  22  25
ENDBRANCH  13  14
ENDBRANCH   4  13
TORSDOF 4
ENDMDL
MODEL 8
REMARK VINA RESULT:      -6.7      6.823     10.861
REMARK  Name = 51137041
REMARK  4 active torsions:
REMARK  status: ('A' for Active; 'I' for Inactive)
REMARK    1  A    between atoms: N_4  and  C_13
REMARK    2  A    between atoms: C_8  and  C_12
REMARK    3  A    between atoms: C_13  and  C_14
REMARK    4  A    between atoms: C_22  and  C_25
REMARK                            x       y       z     vdW  Elec       q    Type
REMARK                         _______ _______ _______ _____ _____    ______ ____
ROOT
ATOM      4  N   UNL     1     -16.966   3.955  26.033  0.00  0.00    -0.297 NA
ATOM      8  C   UNL     1     -16.474   4.351  23.775  0.00  0.00    +0.070 C 
ATOM      9  C   UNL     1     -15.997   2.941  24.166  0.00  0.00    +0.028 C 
ATOM     10  C   UNL     1     -16.714   5.065  25.112  0.00  0.00    +0.096 C 
ATOM     11  C   UNL     1     -15.966   2.944  25.689  0.00  0.00    +0.085 C 
ENDROOT
BRANCH   8  12
ATOM      5  N   UNL     1     -14.190   4.869  22.872  0.00  0.00    -0.340 N 
ATOM      6  N   UNL     1     -15.868   6.038  21.993  0.00  0.00    -0.213 NA
ATOM      7  N   UNL     1     -14.534   7.359  20.453  0.00  0.00    -0.234 NA
ATOM     12  C   UNL     1     -15.537   5.108  22.862  0.00  0.00    +0.114 A 
ATOM     15  C   UNL     1     -13.615   5.699  21.948  0.00  0.00    +0.085 A 
ATOM     16  C   UNL     1     -14.682   6.416  21.417  0.00  0.00    +0.178 A 
ATOM     19  C   UNL     1     -12.307   5.902  21.524  0.00  0.00    +0.031 A 
ATOM     23  C   UNL     1     -12.140   6.868  20.535  0.00  0.00    +0.022 A 
ATOM     24  C   UNL     1     -13.256   7.545  20.051  0.00  0.00    +0.113 A 
ATOM     26  H   UNL     1     -13.705   4.199  23.455  0.00  0.00    +0.167 HD
ENDBRANCH   8  12
BRANCH   4  13
ATOM     13  C   UNL     1     -16.886   4.362  27.428  0.00  0.00    +0.119 C 
BRANCH  13  14
ATOM     14  C   UNL     1     -16.405   3.242  28.312  0.00  0.00    -0.033 A 
ATOM     17  C   UNL     1     -15.237   3.397  29.058  0.00  0.00    +0.005 A 
ATOM     18  C   UNL     1     -17.127   2.051  28.386  0.00  0.00    +0.005 A 
ATOM     20  C   UNL     1     -14.791   2.360  29.879  0.00  0.00    +0.012 A 
ATOM     21  C   UNL     1     -16.682   1.015  29.205  0.00  0.00    +0.012 A 
ATOM     22  C   UNL     1     -15.513   1.168  29.951  0.00  0.00    +0.055 A 
BRANCH  22  25
ATOM      1  F   UNL     1     -14.851   0.437  32.131  0.00  0.00    -0.166 F 
ATOM      2  F   UNL     1     -13.843  -0.456  30.424  0.00  0.00    -0.166 F 
ATOM      3  F   UNL     1     -15.897  -0.999  30.887  0.00  0.00    -0.166 F 
ATOM     25  C   UNL     1     -15.038   0.062  30.831  0.00  0.00    +0.417 C 
ENDBRANCH  22  25
ENDBRANCH  13  14
ENDBRANCH   4  13
TORSDOF 4
ENDMDL
MODEL 9
REMARK VINA RESULT:      -6.6      5.547     11.427
REMARK  Name = 51137041
REMARK  4 active torsions:
REMARK  status: ('A' for Active; 'I' for Inactive)
REMARK    1  A    between atoms: N_4  and  C_13
REMARK    2  A    between atoms: C_8  and  C_12
REMARK    3  A    between atoms: C_13  and  C_14
REMARK    4  A    between atoms: C_22  and  C_25
REMARK                            x       y       z     vdW  Elec       q    Type
REMARK                         _______ _______ _______ _____ _____    ______ ____
ROOT
ATOM      4  N   UNL     1     -10.890   9.736  18.209  0.00  0.00    -0.297 NA
ATOM      8  C   UNL     1     -10.485  11.449  16.660  0.00  0.00    +0.070 C 
ATOM      9  C   UNL     1     -10.563  10.099  15.925  0.00  0.00    +0.028 C 
ATOM     10  C   UNL     1     -10.309  11.078  18.138  0.00  0.00    +0.096 C 
ATOM     11  C   UNL     1     -10.398   9.048  17.015  0.00  0.00    +0.085 C 
ENDROOT
BRANCH   8  12
ATOM      5  N   UNL     1      -8.240  12.557  16.841  0.00  0.00    -0.340 N 
ATOM      6  N   UNL     1      -9.457  13.116  15.062  0.00  0.00    -0.213 NA
ATOM      7  N   UNL     1      -7.862  14.665  14.087  0.00  0.00    -0.234 NA
ATOM     12  C   UNL     1      -9.412  12.386  16.155  0.00  0.00    +0.114 A 
ATOM     15  C   UNL     1      -7.480  13.455  16.142  0.00  0.00    +0.085 A 
ATOM     16  C   UNL     1      -8.261  13.788  15.041  0.00  0.00    +0.178 A 
ATOM     19  C   UNL     1      -6.220  14.007  16.345  0.00  0.00    +0.031 A 
ATOM     23  C   UNL     1      -5.797  14.911  15.373  0.00  0.00    +0.022 A 
ATOM     24  C   UNL     1      -6.634  15.193  14.298  0.00  0.00    +0.113 A 
ATOM     26  H   UNL     1      -7.980  12.102  17.706  0.00  0.00    +0.167 HD
ENDBRANCH   8  12
BRANCH   4  13
ATOM     13  C   UNL     1     -10.534   9.040  19.436  0.00  0.00    +0.119 C 
BRANCH  13  14
ATOM     14  C   UNL     1     -11.675   8.209  19.961  0.00  0.00    -0.033 A 
ATOM     17  C   UNL     1     -11.416   7.106  20.774  0.00  0.00    +0.005 A 
ATOM     18  C   UNL     1     -12.989   8.542  19.635  0.00  0.00    +0.005 A 
ATOM     20  C   UNL     1     -12.472   6.335  21.261  0.00  0.00    +0.012 A 
ATOM     21  C   UNL     1     -14.045   7.772  20.121  0.00  0.00    +0.012 A 
ATOM     22  C   UNL     1     -13.787   6.668  20.934  0.00  0.00    +0.055 A 
BRANCH  22  25
ATOM      1  F   UNL     1     -14.517   4.676  22.040  0.00  0.00    -0.166 F 
ATOM      2  F   UNL     1     -15.801   5.488  20.484  0.00  0.00    -0.166 F 
ATOM      3  F   UNL     1     -15.658   6.483  22.412  0.00  0.00    -0.166 F 
ATOM     25  C   UNL     1     -14.916   5.846  21.458  0.00  0.00    +0.417 C 
ENDBRANCH  22  25
ENDBRANCH  13  14
ENDBRANCH   4  13
TORSDOF 4
ENDMDL
MODEL 10
REMARK VINA RESULT:      -6.6     19.877     20.973
REMARK  Name = 51137041
REMARK  4 active torsions:
REMARK  status: ('A' for Active; 'I' for Inactive)
REMARK    1  A    between atoms: N_4  and  C_13
REMARK    2  A    between atoms: C_8  and  C_12
REMARK    3  A    between atoms: C_13  and  C_14
REMARK    4  A    between atoms: C_22  and  C_25
REMARK                            x       y       z     vdW  Elec       q    Type
REMARK                         _______ _______ _______ _____ _____    ______ ____
ROOT
ATOM      4  N   UNL     1      -2.510 -11.340  12.382  0.00  0.00    -0.297 NA
ATOM      8  C   UNL     1      -2.724 -10.636  14.608  0.00  0.00    +0.070 C 
ATOM      9  C   UNL     1      -1.632 -11.716  14.513  0.00  0.00    +0.028 C 
ATOM     10  C   UNL     1      -3.496 -10.746  13.286  0.00  0.00    +0.096 C 
ATOM     11  C   UNL     1      -1.862 -12.391  13.167  0.00  0.00    +0.085 C 
ENDROOT
BRANCH   8  12
ATOM      5  N   UNL     1      -3.236 -11.460  16.923  0.00  0.00    -0.340 N 
ATOM      6  N   UNL     1      -4.803 -10.193  15.976  0.00  0.00    -0.213 NA
ATOM      7  N   UNL     1      -6.379 -10.239  17.822  0.00  0.00    -0.234 NA
ATOM     12  C   UNL     1      -3.618 -10.741  15.822  0.00  0.00    +0.114 A 
ATOM     15  C   UNL     1      -4.243 -11.367  17.846  0.00  0.00    +0.085 A 
ATOM     16  C   UNL     1      -5.205 -10.574  17.230  0.00  0.00    +0.178 A 
ATOM     19  C   UNL     1      -4.419 -11.879  19.126  0.00  0.00    +0.031 A 
ATOM     23  C   UNL     1      -5.620 -11.544  19.747  0.00  0.00    +0.022 A 
ATOM     24  C   UNL     1      -6.535 -10.745  19.068  0.00  0.00    +0.113 A 
ATOM     26  H   UNL     1      -2.368 -11.967  17.036  0.00  0.00    +0.167 HD
ENDBRANCH   8  12
BRANCH   4  13
ATOM     13  C   UNL     1      -3.114 -11.853  11.161  0.00  0.00    +0.119 C 
BRANCH  13  14
ATOM     14  C   UNL     1      -4.115 -10.889  10.582  0.00  0.00    -0.033 A 
ATOM     17  C   UNL     1      -5.463 -11.239  10.521  0.00  0.00    +0.005 A 
ATOM     18  C   UNL     1      -3.695  -9.646  10.108  0.00  0.00    +0.005 A 
ATOM     20  C   UNL     1      -6.392 -10.346   9.986  0.00  0.00    +0.012 A 
ATOM     21  C   UNL     1      -4.622  -8.753   9.573  0.00  0.00    +0.012 A 
ATOM     22  C   UNL     1      -5.972  -9.103   9.511  0.00  0.00    +0.055 A 
BRANCH  22  25
ATOM      1  F   UNL     1      -6.501  -6.866   8.847  0.00  0.00    -0.166 F 
ATOM      2  F   UNL     1      -8.105  -8.069   9.688  0.00  0.00    -0.166 F 
ATOM      3  F   UNL     1      -7.375  -8.472   7.680  0.00  0.00    -0.166 F 
ATOM     25  C   UNL     1      -6.965  -8.148   8.942  0.00  0.00    +0.417 C 
ENDBRANCH  22  25
ENDBRANCH  13  14
ENDBRANCH   4  13
TORSDOF 4
ENDMDL
