MODEL 1
REMARK VINA RESULT:      -6.7      0.000      0.000
REMARK  Name = 7049332
REMARK  9 active torsions:
REMARK  status: ('A' for Active; 'I' for Inactive)
REMARK    1  A    between atoms: O_1  and  C_13
REMARK    2  A    between atoms: O_2  and  C_15
REMARK    3  A    between atoms: O_3  and  C_16
REMARK    4  A    between atoms: N_8  and  C_12
REMARK    5  A    between atoms: N_9  and  C_23
REMARK    6  A    between atoms: C_11  and  C_19
REMARK    7  A    between atoms: C_21  and  C_22
REMARK    8  A    between atoms: C_23  and  C_24
REMARK    9  A    between atoms: C_23  and  C_25
REMARK                            x       y       z     vdW  Elec       q    Type
REMARK                         _______ _______ _______ _____ _____    ______ ____
ROOT
ATOM     12  C   UNL     1      11.751   8.711  19.856  0.00  0.00    +0.127 C 
ATOM     13  C   UNL     1      11.954   7.447  20.714  0.00  0.00    +0.167 C 
ATOM     15  C   UNL     1      11.157   7.523  22.024  0.00  0.00    +0.149 C 
ATOM     18  C   UNL     1      11.503   8.781  22.839  0.00  0.00    +0.074 C 
ATOM     20  C   UNL     1      11.817   9.986  20.652  0.00  0.00    +0.006 C 
ATOM     21  C   UNL     1      11.712  10.002  21.989  0.00  0.00    +0.015 C 
ENDROOT
BRANCH  12   8
ATOM      4  O   UNL     1      11.535   7.515  17.220  0.00  0.00    -0.274 OA
ATOM      8  N   UNL     1      12.709   8.782  18.781  0.00  0.00    -0.305 N 
ATOM     19  C   UNL     1      12.517   8.175  17.550  0.00  0.00    +0.231 C 
ATOM     27  H   UNL     1      13.590   9.260  18.957  0.00  0.00    +0.149 HD
BRANCH  19  11
ATOM      7  N   UNL     1      13.060   8.762  15.306  0.00  0.00    -0.303 NA
ATOM     11  C   UNL     1      13.652   8.427  16.607  0.00  0.00    +0.143 C 
ATOM     14  C   UNL     1      14.501   9.622  17.032  0.00  0.00    +0.060 C 
ATOM     16  C   UNL     1      14.259  10.678  15.961  0.00  0.00    +0.130 C 
ATOM     17  C   UNL     1      12.987  10.231  15.266  0.00  0.00    +0.113 C 
ATOM     26  H   UNL     1      12.146   8.338  15.169  0.00  0.00    +0.123 HD
BRANCH  16   3
ATOM      3  O   UNL     1      15.328  10.681  15.020  0.00  0.00    -0.390 OA
ATOM     30  H   UNL     1      14.987  10.306  14.190  0.00  0.00    +0.210 HD
ENDBRANCH  16   3
ENDBRANCH  19  11
ENDBRANCH  12   8
BRANCH  21  22
ATOM      5  O   UNL     1      12.668  11.542  23.484  0.00  0.00    -0.271 OA
ATOM      9  N   UNL     1      10.788  12.174  22.261  0.00  0.00    -0.301 N 
ATOM     22  C   UNL     1      11.788  11.304  22.659  0.00  0.00    +0.240 C 
ATOM     31  H   UNL     1      10.106  11.868  21.571  0.00  0.00    +0.150 HD
BRANCH   9  23
ATOM     23  C   UNL     1      10.654  13.515  22.783  0.00  0.00    +0.156 C 
ATOM     24  C   UNL     1       9.988  13.507  24.150  0.00  0.00    +0.038 C 
BRANCH  23  25
ATOM      6  O   UNL     1      10.276  14.698  20.696  0.00  0.00    -0.274 OA
ATOM     10  N   UNL     1       8.563  14.591  22.223  0.00  0.00    -0.328 N 
ATOM     25  C   UNL     1       9.846  14.335  21.789  0.00  0.00    +0.231 C 
ATOM     32  H   UNL     1       7.915  15.120  21.649  0.00  0.00    +0.145 HD
ATOM     33  H   UNL     1       8.216  14.266  23.120  0.00  0.00    +0.145 HD
ENDBRANCH  23  25
ENDBRANCH   9  23
ENDBRANCH  21  22
BRANCH  13   1
ATOM      1  O   UNL     1      13.340   7.296  21.028  0.00  0.00    -0.387 OA
ATOM     28  H   UNL     1      13.398   6.917  21.921  0.00  0.00    +0.210 HD
ENDBRANCH  13   1
BRANCH  15   2
ATOM      2  O   UNL     1       9.758   7.485  21.751  0.00  0.00    -0.389 OA
ATOM     29  H   UNL     1       9.401   8.373  21.919  0.00  0.00    +0.210 HD
ENDBRANCH  15   2
TORSDOF 8
ENDMDL
MODEL 2
REMARK VINA RESULT:      -6.5      1.803      6.909
REMARK  Name = 7049332
REMARK  9 active torsions:
REMARK  status: ('A' for Active; 'I' for Inactive)
REMARK    1  A    between atoms: O_1  and  C_13
REMARK    2  A    between atoms: O_2  and  C_15
REMARK    3  A    between atoms: O_3  and  C_16
REMARK    4  A    between atoms: N_8  and  C_12
REMARK    5  A    between atoms: N_9  and  C_23
REMARK    6  A    between atoms: C_11  and  C_19
REMARK    7  A    between atoms: C_21  and  C_22
REMARK    8  A    between atoms: C_23  and  C_24
REMARK    9  A    between atoms: C_23  and  C_25
REMARK                            x       y       z     vdW  Elec       q    Type
REMARK                         _______ _______ _______ _____ _____    ______ ____
ROOT
ATOM     12  C   UNL     1      12.329   9.030  21.150  0.00  0.00    +0.127 C 
ATOM     13  C   UNL     1      11.448   7.767  21.205  0.00  0.00    +0.167 C 
ATOM     15  C   UNL     1      12.136   6.572  20.531  0.00  0.00    +0.149 C 
ATOM     18  C   UNL     1      12.536   6.879  19.077  0.00  0.00    +0.074 C 
ATOM     20  C   UNL     1      12.971   9.249  19.806  0.00  0.00    +0.006 C 
ATOM     21  C   UNL     1      13.050   8.278  18.884  0.00  0.00    +0.015 C 
ENDROOT
BRANCH  12   8
ATOM      4  O   UNL     1      13.063  11.051  23.100  0.00  0.00    -0.274 OA
ATOM      8  N   UNL     1      11.585  10.212  21.508  0.00  0.00    -0.305 N 
ATOM     19  C   UNL     1      12.018  11.125  22.457  0.00  0.00    +0.231 C 
ATOM     27  H   UNL     1      10.674  10.352  21.078  0.00  0.00    +0.149 HD
BRANCH  19  11
ATOM      7  N   UNL     1      10.149  11.915  23.703  0.00  0.00    -0.303 NA
ATOM     11  C   UNL     1      11.071  12.272  22.619  0.00  0.00    +0.143 C 
ATOM     14  C   UNL     1      11.784  13.553  23.043  0.00  0.00    +0.060 C 
ATOM     16  C   UNL     1      11.297  13.824  24.460  0.00  0.00    +0.130 C 
ATOM     17  C   UNL     1      10.723  12.500  24.926  0.00  0.00    +0.113 C 
ATOM     26  H   UNL     1      10.019  10.910  23.795  0.00  0.00    +0.123 HD
BRANCH  16   3
ATOM      3  O   UNL     1      10.262  14.802  24.450  0.00  0.00    -0.390 OA
ATOM     30  H   UNL     1      10.590  15.568  23.948  0.00  0.00    +0.210 HD
ENDBRANCH  16   3
ENDBRANCH  19  11
ENDBRANCH  12   8
BRANCH  21  22
ATOM      5  O   UNL     1      13.940   7.730  16.780  0.00  0.00    -0.271 OA
ATOM      9  N   UNL     1      13.993   9.951  17.485  0.00  0.00    -0.301 N 
ATOM     22  C   UNL     1      13.700   8.604  17.611  0.00  0.00    +0.240 C 
ATOM     31  H   UNL     1      13.753  10.586  18.241  0.00  0.00    +0.150 HD
BRANCH   9  23
ATOM     23  C   UNL     1      14.637  10.513  16.320  0.00  0.00    +0.156 C 
ATOM     24  C   UNL     1      15.516  11.696  16.697  0.00  0.00    +0.038 C 
BRANCH  23  25
ATOM      6  O   UNL     1      12.741  10.151  14.847  0.00  0.00    -0.274 OA
ATOM     10  N   UNL     1      13.563  12.284  15.073  0.00  0.00    -0.328 N 
ATOM     25  C   UNL     1      13.558  10.930  15.333  0.00  0.00    +0.231 C 
ATOM     32  H   UNL     1      12.886  12.695  14.439  0.00  0.00    +0.145 HD
ATOM     33  H   UNL     1      14.232  12.918  15.498  0.00  0.00    +0.145 HD
ENDBRANCH  23  25
ENDBRANCH   9  23
ENDBRANCH  21  22
BRANCH  13   1
ATOM      1  O   UNL     1      10.207   8.016  20.541  0.00  0.00    -0.387 OA
ATOM     28  H   UNL     1       9.588   7.316  20.806  0.00  0.00    +0.210 HD
ENDBRANCH  13   1
BRANCH  15   2
ATOM      2  O   UNL     1      13.283   6.178  21.282  0.00  0.00    -0.389 OA
ATOM     29  H   UNL     1      13.174   6.517  22.186  0.00  0.00    +0.210 HD
ENDBRANCH  15   2
TORSDOF 8
ENDMDL
MODEL 3
REMARK VINA RESULT:      -6.4      9.038     11.919
REMARK  Name = 7049332
REMARK  9 active torsions:
REMARK  status: ('A' for Active; 'I' for Inactive)
REMARK    1  A    between atoms: O_1  and  C_13
REMARK    2  A    between atoms: O_2  and  C_15
REMARK    3  A    between atoms: O_3  and  C_16
REMARK    4  A    between atoms: N_8  and  C_12
REMARK    5  A    between atoms: N_9  and  C_23
REMARK    6  A    between atoms: C_11  and  C_19
REMARK    7  A    between atoms: C_21  and  C_22
REMARK    8  A    between atoms: C_23  and  C_24
REMARK    9  A    between atoms: C_23  and  C_25
REMARK                            x       y       z     vdW  Elec       q    Type
REMARK                         _______ _______ _______ _____ _____    ______ ____
ROOT
ATOM     12  C   UNL     1      19.978   7.108  21.998  0.00  0.00    +0.127 C 
ATOM     13  C   UNL     1      20.530   7.400  23.407  0.00  0.00    +0.167 C 
ATOM     15  C   UNL     1      22.018   7.041  23.513  0.00  0.00    +0.149 C 
ATOM     18  C   UNL     1      22.290   5.577  23.127  0.00  0.00    +0.074 C 
ATOM     20  C   UNL     1      20.428   5.782  21.446  0.00  0.00    +0.006 C 
ATOM     21  C   UNL     1      21.460   5.103  21.967  0.00  0.00    +0.015 C 
ENDROOT
BRANCH  12   8
ATOM      4  O   UNL     1      18.309   9.244  20.959  0.00  0.00    -0.274 OA
ATOM      8  N   UNL     1      18.537   7.159  21.971  0.00  0.00    -0.305 N 
ATOM     19  C   UNL     1      17.824   8.228  21.451  0.00  0.00    +0.231 C 
ATOM     27  H   UNL     1      18.024   6.394  22.401  0.00  0.00    +0.149 HD
BRANCH  19  11
ATOM      7  N   UNL     1      15.757   8.703  20.368  0.00  0.00    -0.303 NA
ATOM     11  C   UNL     1      16.344   8.015  21.523  0.00  0.00    +0.143 C 
ATOM     14  C   UNL     1      15.967   6.540  21.403  0.00  0.00    +0.060 C 
ATOM     16  C   UNL     1      15.242   6.427  20.069  0.00  0.00    +0.130 C 
ATOM     17  C   UNL     1      15.632   7.683  19.315  0.00  0.00    +0.113 C 
ATOM     26  H   UNL     1      16.313   9.497  20.057  0.00  0.00    +0.123 HD
BRANCH  16   3
ATOM      3  O   UNL     1      13.832   6.424  20.270  0.00  0.00    -0.390 OA
ATOM     30  H   UNL     1      13.419   6.150  19.434  0.00  0.00    +0.210 HD
ENDBRANCH  16   3
ENDBRANCH  19  11
ENDBRANCH  12   8
BRANCH  21  22
ATOM      5  O   UNL     1      20.958   3.131  20.793  0.00  0.00    -0.271 OA
ATOM      9  N   UNL     1      23.156   3.517  21.461  0.00  0.00    -0.301 N 
ATOM     22  C   UNL     1      21.812   3.823  21.345  0.00  0.00    +0.240 C 
ATOM     31  H   UNL     1      23.774   4.164  21.944  0.00  0.00    +0.150 HD
BRANCH   9  23
ATOM     23  C   UNL     1      23.741   2.308  20.928  0.00  0.00    +0.156 C 
ATOM     24  C   UNL     1      24.143   1.356  22.044  0.00  0.00    +0.038 C 
BRANCH  23  25
ATOM      6  O   UNL     1      26.100   2.689  20.495  0.00  0.00    -0.274 OA
ATOM     10  N   UNL     1      24.604   3.003  18.780  0.00  0.00    -0.328 N 
ATOM     25  C   UNL     1      24.943   2.692  20.080  0.00  0.00    +0.231 C 
ATOM     32  H   UNL     1      25.315   3.267  18.106  0.00  0.00    +0.145 HD
ATOM     33  H   UNL     1      23.646   2.982  18.447  0.00  0.00    +0.145 HD
ENDBRANCH  23  25
ENDBRANCH   9  23
ENDBRANCH  21  22
BRANCH  13   1
ATOM      1  O   UNL     1      19.804   6.638  24.374  0.00  0.00    -0.387 OA
ATOM     28  H   UNL     1      20.006   5.700  24.219  0.00  0.00    +0.210 HD
ENDBRANCH  13   1
BRANCH  15   2
ATOM      2  O   UNL     1      22.793   7.915  22.694  0.00  0.00    -0.389 OA
ATOM     29  H   UNL     1      23.569   8.191  23.211  0.00  0.00    +0.210 HD
ENDBRANCH  15   2
TORSDOF 8
ENDMDL
MODEL 4
REMARK VINA RESULT:      -6.3     26.244     27.442
REMARK  Name = 7049332
REMARK  9 active torsions:
REMARK  status: ('A' for Active; 'I' for Inactive)
REMARK    1  A    between atoms: O_1  and  C_13
REMARK    2  A    between atoms: O_2  and  C_15
REMARK    3  A    between atoms: O_3  and  C_16
REMARK    4  A    between atoms: N_8  and  C_12
REMARK    5  A    between atoms: N_9  and  C_23
REMARK    6  A    between atoms: C_11  and  C_19
REMARK    7  A    between atoms: C_21  and  C_22
REMARK    8  A    between atoms: C_23  and  C_24
REMARK    9  A    between atoms: C_23  and  C_25
REMARK                            x       y       z     vdW  Elec       q    Type
REMARK                         _______ _______ _______ _____ _____    ______ ____
ROOT
ATOM     12  C   UNL     1      -3.722 -10.997  13.281  0.00  0.00    +0.127 C 
ATOM     13  C   UNL     1      -2.246 -11.023  13.722  0.00  0.00    +0.167 C 
ATOM     15  C   UNL     1      -2.083 -11.674  15.103  0.00  0.00    +0.149 C 
ATOM     18  C   UNL     1      -2.946 -10.984  16.173  0.00  0.00    +0.074 C 
ATOM     20  C   UNL     1      -4.663 -10.575  14.378  0.00  0.00    +0.006 C 
ATOM     21  C   UNL     1      -4.299 -10.567  15.669  0.00  0.00    +0.015 C 
ENDROOT
BRANCH  12   8
ATOM      4  O   UNL     1      -3.248 -11.633  10.489  0.00  0.00    -0.274 OA
ATOM      8  N   UNL     1      -3.921 -10.137  12.141  0.00  0.00    -0.305 N 
ATOM     19  C   UNL     1      -3.665 -10.531  10.837  0.00  0.00    +0.231 C 
ATOM     27  H   UNL     1      -4.215  -9.178  12.312  0.00  0.00    +0.149 HD
BRANCH  19  11
ATOM      7  N   UNL     1      -4.700 -10.097   8.737  0.00  0.00    -0.303 NA
ATOM     11  C   UNL     1      -3.980  -9.457   9.845  0.00  0.00    +0.143 C 
ATOM     14  C   UNL     1      -4.908  -8.391  10.423  0.00  0.00    +0.060 C 
ATOM     16  C   UNL     1      -6.215  -8.550   9.657  0.00  0.00    +0.130 C 
ATOM     17  C   UNL     1      -6.130  -9.932   9.040  0.00  0.00    +0.113 C 
ATOM     26  H   UNL     1      -4.451 -11.076   8.619  0.00  0.00    +0.123 HD
BRANCH  16   3
ATOM      3  O   UNL     1      -6.300  -7.580   8.617  0.00  0.00    -0.390 OA
ATOM     30  H   UNL     1      -5.405  -7.457   8.260  0.00  0.00    +0.210 HD
ENDBRANCH  16   3
ENDBRANCH  19  11
ENDBRANCH  12   8
BRANCH  21  22
ATOM      5  O   UNL     1      -6.086  -9.229  16.400  0.00  0.00    -0.271 OA
ATOM      9  N   UNL     1      -5.237 -10.859  17.833  0.00  0.00    -0.301 N 
ATOM     22  C   UNL     1      -5.300 -10.140  16.652  0.00  0.00    +0.240 C 
ATOM     31  H   UNL     1      -4.540 -11.592  17.934  0.00  0.00    +0.150 HD
BRANCH   9  23
ATOM     23  C   UNL     1      -6.120 -10.620  18.951  0.00  0.00    +0.156 C 
ATOM     24  C   UNL     1      -5.648 -11.362  20.191  0.00  0.00    +0.038 C 
BRANCH  23  25
ATOM      6  O   UNL     1      -7.843 -12.230  18.373  0.00  0.00    -0.274 OA
ATOM     10  N   UNL     1      -8.407 -10.005  18.463  0.00  0.00    -0.328 N 
ATOM     25  C   UNL     1      -7.521 -11.058  18.555  0.00  0.00    +0.231 C 
ATOM     32  H   UNL     1      -9.378 -10.161  18.217  0.00  0.00    +0.145 HD
ATOM     33  H   UNL     1      -8.130  -9.044  18.636  0.00  0.00    +0.145 HD
ENDBRANCH  23  25
ENDBRANCH   9  23
ENDBRANCH  21  22
BRANCH  13   1
ATOM      1  O   UNL     1      -1.738  -9.689  13.781  0.00  0.00    -0.387 OA
ATOM     28  H   UNL     1      -1.150  -9.634  14.553  0.00  0.00    +0.210 HD
ENDBRANCH  13   1
BRANCH  15   2
ATOM      2  O   UNL     1      -2.406 -13.062  15.033  0.00  0.00    -0.389 OA
ATOM     29  H   UNL     1      -1.993 -13.420  14.229  0.00  0.00    +0.210 HD
ENDBRANCH  15   2
TORSDOF 8
ENDMDL
MODEL 5
REMARK VINA RESULT:      -6.2      4.591      8.084
REMARK  Name = 7049332
REMARK  9 active torsions:
REMARK  status: ('A' for Active; 'I' for Inactive)
REMARK    1  A    between atoms: O_1  and  C_13
REMARK    2  A    between atoms: O_2  and  C_15
REMARK    3  A    between atoms: O_3  and  C_16
REMARK    4  A    between atoms: N_8  and  C_12
REMARK    5  A    between atoms: N_9  and  C_23
REMARK    6  A    between atoms: C_11  and  C_19
REMARK    7  A    between atoms: C_21  and  C_22
REMARK    8  A    between atoms: C_23  and  C_24
REMARK    9  A    between atoms: C_23  and  C_25
REMARK                            x       y       z     vdW  Elec       q    Type
REMARK                         _______ _______ _______ _____ _____    ______ ____
ROOT
ATOM     12  C   UNL     1      13.728   8.766  21.778  0.00  0.00    +0.127 C 
ATOM     13  C   UNL     1      13.421   8.220  20.370  0.00  0.00    +0.167 C 
ATOM     15  C   UNL     1      14.399   7.106  19.973  0.00  0.00    +0.149 C 
ATOM     18  C   UNL     1      15.865   7.565  20.059  0.00  0.00    +0.074 C 
ATOM     20  C   UNL     1      15.196   8.992  22.021  0.00  0.00    +0.006 C 
ATOM     21  C   UNL     1      16.142   8.454  21.237  0.00  0.00    +0.015 C 
ENDROOT
BRANCH  12   8
ATOM      4  O   UNL     1      11.015   9.056  22.769  0.00  0.00    -0.274 OA
ATOM      8  N   UNL     1      13.017   9.993  22.038  0.00  0.00    -0.305 N 
ATOM     19  C   UNL     1      11.716  10.032  22.514  0.00  0.00    +0.231 C 
ATOM     27  H   UNL     1      13.481  10.870  21.813  0.00  0.00    +0.149 HD
BRANCH  19  11
ATOM      7  N   UNL     1      10.327  11.401  23.880  0.00  0.00    -0.303 NA
ATOM     11  C   UNL     1      11.227  11.431  22.721  0.00  0.00    +0.143 C 
ATOM     14  C   UNL     1      12.361  12.394  23.062  0.00  0.00    +0.060 C 
ATOM     16  C   UNL     1      12.107  12.807  24.507  0.00  0.00    +0.130 C 
ATOM     17  C   UNL     1      11.158  11.752  25.043  0.00  0.00    +0.113 C 
ATOM     26  H   UNL     1       9.872  10.499  24.003  0.00  0.00    +0.123 HD
BRANCH  16   3
ATOM      3  O   UNL     1      11.465  14.077  24.553  0.00  0.00    -0.390 OA
ATOM     30  H   UNL     1      12.157  14.756  24.473  0.00  0.00    +0.210 HD
ENDBRANCH  16   3
ENDBRANCH  19  11
ENDBRANCH  12   8
BRANCH  21  22
ATOM      5  O   UNL     1      17.881   9.851  21.976  0.00  0.00    -0.271 OA
ATOM      9  N   UNL     1      18.376   7.655  21.375  0.00  0.00    -0.301 N 
ATOM     22  C   UNL     1      17.541   8.741  21.571  0.00  0.00    +0.240 C 
ATOM     31  H   UNL     1      17.985   6.782  21.030  0.00  0.00    +0.150 HD
BRANCH   9  23
ATOM     23  C   UNL     1      19.797   7.695  21.633  0.00  0.00    +0.156 C 
ATOM     24  C   UNL     1      20.557   6.817  20.650  0.00  0.00    +0.038 C 
BRANCH  23  25
ATOM      6  O   UNL     1      20.326   6.088  23.375  0.00  0.00    -0.274 OA
ATOM     10  N   UNL     1      19.932   8.270  23.977  0.00  0.00    -0.328 N 
ATOM     25  C   UNL     1      20.035   7.241  23.065  0.00  0.00    +0.231 C 
ATOM     32  H   UNL     1      20.079   8.105  24.967  0.00  0.00    +0.145 HD
ATOM     33  H   UNL     1      19.710   9.222  23.702  0.00  0.00    +0.145 HD
ENDBRANCH  23  25
ENDBRANCH   9  23
ENDBRANCH  21  22
BRANCH  13   1
ATOM      1  O   UNL     1      13.518   9.277  19.413  0.00  0.00    -0.387 OA
ATOM     28  H   UNL     1      14.214   9.036  18.780  0.00  0.00    +0.210 HD
ENDBRANCH  13   1
BRANCH  15   2
ATOM      2  O   UNL     1      14.196   5.959  20.796  0.00  0.00    -0.389 OA
ATOM     29  H   UNL     1      14.249   5.174  20.226  0.00  0.00    +0.210 HD
ENDBRANCH  15   2
TORSDOF 8
ENDMDL
MODEL 6
REMARK VINA RESULT:      -5.9      6.318      8.462
REMARK  Name = 7049332
REMARK  9 active torsions:
REMARK  status: ('A' for Active; 'I' for Inactive)
REMARK    1  A    between atoms: O_1  and  C_13
REMARK    2  A    between atoms: O_2  and  C_15
REMARK    3  A    between atoms: O_3  and  C_16
REMARK    4  A    between atoms: N_8  and  C_12
REMARK    5  A    between atoms: N_9  and  C_23
REMARK    6  A    between atoms: C_11  and  C_19
REMARK    7  A    between atoms: C_21  and  C_22
REMARK    8  A    between atoms: C_23  and  C_24
REMARK    9  A    between atoms: C_23  and  C_25
REMARK                            x       y       z     vdW  Elec       q    Type
REMARK                         _______ _______ _______ _____ _____    ______ ____
ROOT
ATOM     12  C   UNL     1      18.277   8.124  21.845  0.00  0.00    +0.127 C 
ATOM     13  C   UNL     1      18.265   9.663  21.757  0.00  0.00    +0.167 C 
ATOM     15  C   UNL     1      16.838  10.206  21.602  0.00  0.00    +0.149 C 
ATOM     18  C   UNL     1      16.117   9.598  20.386  0.00  0.00    +0.074 C 
ATOM     20  C   UNL     1      17.374   7.465  20.837  0.00  0.00    +0.006 C 
ATOM     21  C   UNL     1      16.416   8.139  20.185  0.00  0.00    +0.015 C 
ENDROOT
BRANCH  12   8
ATOM      4  O   UNL     1      19.717   6.423  23.704  0.00  0.00    -0.274 OA
ATOM      8  N   UNL     1      19.609   7.594  21.695  0.00  0.00    -0.305 N 
ATOM     19  C   UNL     1      20.217   6.785  22.642  0.00  0.00    +0.231 C 
ATOM     27  H   UNL     1      20.144   7.872  20.875  0.00  0.00    +0.149 HD
BRANCH  19  11
ATOM      7  N   UNL     1      21.743   4.957  22.654  0.00  0.00    -0.303 NA
ATOM     11  C   UNL     1      21.588   6.353  22.227  0.00  0.00    +0.143 C 
ATOM     14  C   UNL     1      21.767   6.378  20.711  0.00  0.00    +0.060 C 
ATOM     16  C   UNL     1      21.914   4.917  20.308  0.00  0.00    +0.130 C 
ATOM     17  C   UNL     1      21.370   4.138  21.490  0.00  0.00    +0.113 C 
ATOM     26  H   UNL     1      21.178   4.729  23.469  0.00  0.00    +0.123 HD
BRANCH  16   3
ATOM      3  O   UNL     1      23.288   4.589  20.127  0.00  0.00    -0.390 OA
ATOM     30  H   UNL     1      23.333   3.875  19.469  0.00  0.00    +0.210 HD
ENDBRANCH  16   3
ENDBRANCH  19  11
ENDBRANCH  12   8
BRANCH  21  22
ATOM      5  O   UNL     1      15.752   6.183  19.066  0.00  0.00    -0.271 OA
ATOM      9  N   UNL     1      14.675   8.188  18.568  0.00  0.00    -0.301 N 
ATOM     22  C   UNL     1      15.594   7.392  19.228  0.00  0.00    +0.240 C 
ATOM     31  H   UNL     1      14.635   9.182  18.779  0.00  0.00    +0.150 HD
BRANCH   9  23
ATOM     23  C   UNL     1      13.755   7.679  17.577  0.00  0.00    +0.156 C 
ATOM     24  C   UNL     1      13.602   8.654  16.420  0.00  0.00    +0.038 C 
BRANCH  23  25
ATOM      6  O   UNL     1      12.258   6.611  19.162  0.00  0.00    -0.274 OA
ATOM     10  N   UNL     1      11.410   8.231  17.771  0.00  0.00    -0.328 N 
ATOM     25  C   UNL     1      12.418   7.423  18.254  0.00  0.00    +0.231 C 
ATOM     32  H   UNL     1      10.469   8.169  18.146  0.00  0.00    +0.145 HD
ATOM     33  H   UNL     1      11.563   8.912  17.034  0.00  0.00    +0.145 HD
ENDBRANCH  23  25
ENDBRANCH   9  23
ENDBRANCH  21  22
BRANCH  13   1
ATOM      1  O   UNL     1      19.042  10.086  20.636  0.00  0.00    -0.387 OA
ATOM     28  H   UNL     1      18.772   9.548  19.872  0.00  0.00    +0.210 HD
ENDBRANCH  13   1
BRANCH  15   2
ATOM      2  O   UNL     1      16.087   9.962  22.789  0.00  0.00    -0.389 OA
ATOM     29  H   UNL     1      15.518  10.735  22.942  0.00  0.00    +0.210 HD
ENDBRANCH  15   2
TORSDOF 8
ENDMDL
MODEL 7
REMARK VINA RESULT:      -5.9     26.033     27.902
REMARK  Name = 7049332
REMARK  9 active torsions:
REMARK  status: ('A' for Active; 'I' for Inactive)
REMARK    1  A    between atoms: O_1  and  C_13
REMARK    2  A    between atoms: O_2  and  C_15
REMARK    3  A    between atoms: O_3  and  C_16
REMARK    4  A    between atoms: N_8  and  C_12
REMARK    5  A    between atoms: N_9  and  C_23
REMARK    6  A    between atoms: C_11  and  C_19
REMARK    7  A    between atoms: C_21  and  C_22
REMARK    8  A    between atoms: C_23  and  C_24
REMARK    9  A    between atoms: C_23  and  C_25
REMARK                            x       y       z     vdW  Elec       q    Type
REMARK                         _______ _______ _______ _____ _____    ______ ____
ROOT
ATOM     12  C   UNL     1      19.281  -4.330  -0.987  0.00  0.00    +0.127 C 
ATOM     13  C   UNL     1      19.758  -3.203  -1.923  0.00  0.00    +0.167 C 
ATOM     15  C   UNL     1      18.590  -2.592  -2.709  0.00  0.00    +0.149 C 
ATOM     18  C   UNL     1      17.812  -3.652  -3.506  0.00  0.00    +0.074 C 
ATOM     20  C   UNL     1      18.299  -5.266  -1.638  0.00  0.00    +0.006 C 
ATOM     21  C   UNL     1      17.654  -4.953  -2.771  0.00  0.00    +0.015 C 
ENDROOT
BRANCH  12   8
ATOM      4  O   UNL     1      19.988  -4.760   1.795  0.00  0.00    -0.274 OA
ATOM      8  N   UNL     1      20.388  -5.098  -0.473  0.00  0.00    -0.305 N 
ATOM     19  C   UNL     1      20.646  -5.248   0.880  0.00  0.00    +0.231 C 
ATOM     27  H   UNL     1      21.036  -5.507  -1.142  0.00  0.00    +0.149 HD
BRANCH  19  11
ATOM      7  N   UNL     1      23.021  -5.248   1.062  0.00  0.00    -0.303 NA
ATOM     11  C   UNL     1      21.838  -6.114   1.140  0.00  0.00    +0.143 C 
ATOM     14  C   UNL     1      21.819  -6.718   2.541  0.00  0.00    +0.060 C 
ATOM     16  C   UNL     1      22.981  -6.056   3.271  0.00  0.00    +0.130 C 
ATOM     17  C   UNL     1      23.300  -4.826   2.444  0.00  0.00    +0.113 C 
ATOM     26  H   UNL     1      22.885  -4.449   0.447  0.00  0.00    +0.123 HD
BRANCH  16   3
ATOM      3  O   UNL     1      24.114  -6.918   3.281  0.00  0.00    -0.390 OA
ATOM     30  H   UNL     1      24.830  -6.463   2.807  0.00  0.00    +0.210 HD
ENDBRANCH  16   3
ENDBRANCH  19  11
ENDBRANCH  12   8
BRANCH  21  22
ATOM      5  O   UNL     1      17.005  -7.138  -3.343  0.00  0.00    -0.271 OA
ATOM      9  N   UNL     1      15.536  -5.378  -3.762  0.00  0.00    -0.301 N 
ATOM     22  C   UNL     1      16.717  -5.942  -3.313  0.00  0.00    +0.240 C 
ATOM     31  H   UNL     1      15.406  -4.372  -3.692  0.00  0.00    +0.150 HD
BRANCH   9  23
ATOM     23  C   UNL     1      14.460  -6.151  -4.339  0.00  0.00    +0.156 C 
ATOM     24  C   UNL     1      13.623  -5.304  -5.284  0.00  0.00    +0.038 C 
BRANCH  23  25
ATOM      6  O   UNL     1      13.796  -7.803  -2.688  0.00  0.00    -0.274 OA
ATOM     10  N   UNL     1      12.633  -5.825  -2.789  0.00  0.00    -0.328 N 
ATOM     25  C   UNL     1      13.610  -6.705  -3.206  0.00  0.00    +0.231 C 
ATOM     32  H   UNL     1      12.004  -6.067  -2.032  0.00  0.00    +0.145 HD
ATOM     33  H   UNL     1      12.505  -4.912  -3.214  0.00  0.00    +0.145 HD
ENDBRANCH  23  25
ENDBRANCH   9  23
ENDBRANCH  21  22
BRANCH  13   1
ATOM      1  O   UNL     1      20.714  -3.720  -2.850  0.00  0.00    -0.387 OA
ATOM     28  H   UNL     1      20.871  -4.651  -2.619  0.00  0.00    +0.210 HD
ENDBRANCH  13   1
BRANCH  15   2
ATOM      2  O   UNL     1      17.710  -1.902  -1.823  0.00  0.00    -0.389 OA
ATOM     29  H   UNL     1      18.238  -1.582  -1.073  0.00  0.00    +0.210 HD
ENDBRANCH  15   2
TORSDOF 8
ENDMDL
MODEL 8
REMARK VINA RESULT:      -5.8     15.336     18.122
REMARK  Name = 7049332
REMARK  9 active torsions:
REMARK  status: ('A' for Active; 'I' for Inactive)
REMARK    1  A    between atoms: O_1  and  C_13
REMARK    2  A    between atoms: O_2  and  C_15
REMARK    3  A    between atoms: O_3  and  C_16
REMARK    4  A    between atoms: N_8  and  C_12
REMARK    5  A    between atoms: N_9  and  C_23
REMARK    6  A    between atoms: C_11  and  C_19
REMARK    7  A    between atoms: C_21  and  C_22
REMARK    8  A    between atoms: C_23  and  C_24
REMARK    9  A    between atoms: C_23  and  C_25
REMARK                            x       y       z     vdW  Elec       q    Type
REMARK                         _______ _______ _______ _____ _____    ______ ____
ROOT
ATOM     12  C   UNL     1      14.610   5.596   1.841  0.00  0.00    +0.127 C 
ATOM     13  C   UNL     1      15.161   4.249   1.334  0.00  0.00    +0.167 C 
ATOM     15  C   UNL     1      14.130   3.509   0.471  0.00  0.00    +0.149 C 
ATOM     18  C   UNL     1      12.800   3.294   1.214  0.00  0.00    +0.074 C 
ATOM     20  C   UNL     1      13.195   5.506   2.348  0.00  0.00    +0.006 C 
ATOM     21  C   UNL     1      12.398   4.465   2.066  0.00  0.00    +0.015 C 
ENDROOT
BRANCH  12   8
ATOM      4  O   UNL     1      14.975   8.402   2.489  0.00  0.00    -0.274 OA
ATOM      8  N   UNL     1      15.442   6.154   2.878  0.00  0.00    -0.305 N 
ATOM     19  C   UNL     1      15.553   7.515   3.114  0.00  0.00    +0.231 C 
ATOM     27  H   UNL     1      16.012   5.516   3.428  0.00  0.00    +0.149 HD
BRANCH  19  11
ATOM      7  N   UNL     1      17.834   7.602   3.793  0.00  0.00    -0.303 NA
ATOM     11  C   UNL     1      16.461   7.822   4.263  0.00  0.00    +0.143 C 
ATOM     14  C   UNL     1      16.367   9.282   4.699  0.00  0.00    +0.060 C 
ATOM     16  C   UNL     1      17.718   9.887   4.341  0.00  0.00    +0.130 C 
ATOM     17  C   UNL     1      18.319   8.916   3.343  0.00  0.00    +0.113 C 
ATOM     26  H   UNL     1      17.890   6.908   3.051  0.00  0.00    +0.123 HD
BRANCH  16   3
ATOM      3  O   UNL     1      18.554   9.948   5.492  0.00  0.00    -0.390 OA
ATOM     30  H   UNL     1      18.102   9.467   6.206  0.00  0.00    +0.210 HD
ENDBRANCH  16   3
ENDBRANCH  19  11
ENDBRANCH  12   8
BRANCH  21  22
ATOM      5  O   UNL     1      10.078   4.124   1.933  0.00  0.00    -0.271 OA
ATOM      9  N   UNL     1      10.986   4.949   3.914  0.00  0.00    -0.301 N 
ATOM     22  C   UNL     1      11.038   4.487   2.611  0.00  0.00    +0.240 C 
ATOM     31  H   UNL     1      11.846   5.228   4.379  0.00  0.00    +0.150 HD
BRANCH   9  23
ATOM     23  C   UNL     1       9.755   5.063   4.664  0.00  0.00    +0.156 C 
ATOM     24  C   UNL     1       9.169   6.462   4.544  0.00  0.00    +0.038 C 
BRANCH  23  25
ATOM      6  O   UNL     1      10.224   5.558   6.994  0.00  0.00    -0.274 OA
ATOM     10  N   UNL     1      10.049   3.360   6.353  0.00  0.00    -0.328 N 
ATOM     25  C   UNL     1      10.048   4.718   6.115  0.00  0.00    +0.231 C 
ATOM     32  H   UNL     1      10.220   2.994   7.283  0.00  0.00    +0.145 HD
ATOM     33  H   UNL     1       9.881   2.678   5.620  0.00  0.00    +0.145 HD
ENDBRANCH  23  25
ENDBRANCH   9  23
ENDBRANCH  21  22
BRANCH  13   1
ATOM      1  O   UNL     1      15.506   3.422   2.447  0.00  0.00    -0.387 OA
ATOM     28  H   UNL     1      14.925   3.668   3.186  0.00  0.00    +0.210 HD
ENDBRANCH  13   1
BRANCH  15   2
ATOM      2  O   UNL     1      13.903   4.222  -0.743  0.00  0.00    -0.389 OA
ATOM     29  H   UNL     1      14.107   5.158  -0.577  0.00  0.00    +0.210 HD
ENDBRANCH  15   2
TORSDOF 8
ENDMDL
MODEL 9
REMARK VINA RESULT:      -5.8     26.049     28.579
REMARK  Name = 7049332
REMARK  9 active torsions:
REMARK  status: ('A' for Active; 'I' for Inactive)
REMARK    1  A    between atoms: O_1  and  C_13
REMARK    2  A    between atoms: O_2  and  C_15
REMARK    3  A    between atoms: O_3  and  C_16
REMARK    4  A    between atoms: N_8  and  C_12
REMARK    5  A    between atoms: N_9  and  C_23
REMARK    6  A    between atoms: C_11  and  C_19
REMARK    7  A    between atoms: C_21  and  C_22
REMARK    8  A    between atoms: C_23  and  C_24
REMARK    9  A    between atoms: C_23  and  C_25
REMARK                            x       y       z     vdW  Elec       q    Type
REMARK                         _______ _______ _______ _____ _____    ______ ____
ROOT
ATOM     12  C   UNL     1      -7.543  -9.320  17.291  0.00  0.00    +0.127 C 
ATOM     13  C   UNL     1      -8.256 -10.284  18.259  0.00  0.00    +0.167 C 
ATOM     15  C   UNL     1      -7.251 -11.065  19.116  0.00  0.00    +0.149 C 
ATOM     18  C   UNL     1      -6.230 -11.832  18.256  0.00  0.00    +0.074 C 
ATOM     20  C   UNL     1      -6.357  -9.939  16.602  0.00  0.00    +0.006 C 
ATOM     21  C   UNL     1      -5.783 -11.069  17.041  0.00  0.00    +0.015 C 
ENDROOT
BRANCH  12   8
ATOM      4  O   UNL     1      -9.824  -7.572  17.706  0.00  0.00    -0.274 OA
ATOM      8  N   UNL     1      -8.447  -8.806  16.291  0.00  0.00    -0.305 N 
ATOM     19  C   UNL     1      -9.514  -7.973  16.587  0.00  0.00    +0.231 C 
ATOM     27  H   UNL     1      -8.320  -9.114  15.330  0.00  0.00    +0.149 HD
BRANCH  19  11
ATOM      7  N   UNL     1     -11.431  -8.465  15.263  0.00  0.00    -0.303 NA
ATOM     11  C   UNL     1     -10.275  -7.566  15.364  0.00  0.00    +0.143 C 
ATOM     14  C   UNL     1     -10.822  -6.146  15.471  0.00  0.00    +0.060 C 
ATOM     16  C   UNL     1     -12.335  -6.310  15.538  0.00  0.00    +0.130 C 
ATOM     17  C   UNL     1     -12.543  -7.763  15.922  0.00  0.00    +0.113 C 
ATOM     26  H   UNL     1     -11.261  -9.376  15.684  0.00  0.00    +0.123 HD
BRANCH  16   3
ATOM      3  O   UNL     1     -12.916  -6.078  14.259  0.00  0.00    -0.390 OA
ATOM     30  H   UNL     1     -13.355  -5.211  14.292  0.00  0.00    +0.210 HD
ENDBRANCH  16   3
ENDBRANCH  19  11
ENDBRANCH  12   8
BRANCH  21  22
ATOM      5  O   UNL     1      -4.421 -12.786  16.196  0.00  0.00    -0.271 OA
ATOM      9  N   UNL     1      -3.854 -10.571  15.746  0.00  0.00    -0.301 N 
ATOM     22  C   UNL     1      -4.630 -11.578  16.293  0.00  0.00    +0.240 C 
ATOM     31  H   UNL     1      -4.121  -9.601  15.893  0.00  0.00    +0.150 HD
BRANCH   9  23
ATOM     23  C   UNL     1      -2.664 -10.826  14.967  0.00  0.00    +0.156 C 
ATOM     24  C   UNL     1      -1.508  -9.955  15.433  0.00  0.00    +0.038 C 
BRANCH  23  25
ATOM      6  O   UNL     1      -4.111 -10.285  13.093  0.00  0.00    -0.274 OA
ATOM     10  N   UNL     1      -1.876 -10.633  12.689  0.00  0.00    -0.328 N 
ATOM     25  C   UNL     1      -2.987 -10.566  13.504  0.00  0.00    +0.231 C 
ATOM     32  H   UNL     1      -1.952 -10.468  11.691  0.00  0.00    +0.145 HD
ATOM     33  H   UNL     1      -0.950 -10.846  13.047  0.00  0.00    +0.145 HD
ENDBRANCH  23  25
ENDBRANCH   9  23
ENDBRANCH  21  22
BRANCH  13   1
ATOM      1  O   UNL     1      -9.046 -11.214  17.515  0.00  0.00    -0.387 OA
ATOM     28  H   UNL     1      -9.979 -11.040  17.728  0.00  0.00    +0.210 HD
ENDBRANCH  13   1
BRANCH  15   2
ATOM      2  O   UNL     1      -6.574 -10.182  20.008  0.00  0.00    -0.389 OA
ATOM     29  H   UNL     1      -6.845  -9.275  19.786  0.00  0.00    +0.210 HD
ENDBRANCH  15   2
TORSDOF 8
ENDMDL
MODEL 10
REMARK VINA RESULT:      -5.7     26.325     28.704
REMARK  Name = 7049332
REMARK  9 active torsions:
REMARK  status: ('A' for Active; 'I' for Inactive)
REMARK    1  A    between atoms: O_1  and  C_13
REMARK    2  A    between atoms: O_2  and  C_15
REMARK    3  A    between atoms: O_3  and  C_16
REMARK    4  A    between atoms: N_8  and  C_12
REMARK    5  A    between atoms: N_9  and  C_23
REMARK    6  A    between atoms: C_11  and  C_19
REMARK    7  A    between atoms: C_21  and  C_22
REMARK    8  A    between atoms: C_23  and  C_24
REMARK    9  A    between atoms: C_23  and  C_25
REMARK                            x       y       z     vdW  Elec       q    Type
REMARK                         _______ _______ _______ _____ _____    ______ ____
ROOT
ATOM     12  C   UNL     1      -5.070 -10.604  16.461  0.00  0.00    +0.127 C 
ATOM     13  C   UNL     1      -3.810 -11.483  16.586  0.00  0.00    +0.167 C 
ATOM     15  C   UNL     1      -2.707 -11.025  15.623  0.00  0.00    +0.149 C 
ATOM     18  C   UNL     1      -3.191 -10.993  14.163  0.00  0.00    +0.074 C 
ATOM     20  C   UNL     1      -5.452 -10.313  15.034  0.00  0.00    +0.006 C 
ATOM     21  C   UNL     1      -4.602 -10.500  14.013  0.00  0.00    +0.015 C 
ENDROOT
BRANCH  12   8
ATOM      4  O   UNL     1      -5.789 -10.341  19.261  0.00  0.00    -0.274 OA
ATOM      8  N   UNL     1      -6.200 -11.196  17.134  0.00  0.00    -0.305 N 
ATOM     19  C   UNL     1      -6.463 -11.012  18.482  0.00  0.00    +0.231 C 
ATOM     27  H   UNL     1      -6.801 -11.818  16.600  0.00  0.00    +0.149 HD
BRANCH  19  11
ATOM      7  N   UNL     1      -8.534 -10.723  19.622  0.00  0.00    -0.303 NA
ATOM     11  C   UNL     1      -7.709 -11.715  18.920  0.00  0.00    +0.143 C 
ATOM     14  C   UNL     1      -8.531 -12.222  17.739  0.00  0.00    +0.060 C 
ATOM     16  C   UNL     1      -9.802 -11.383  17.754  0.00  0.00    +0.130 C 
ATOM     17  C   UNL     1      -9.456 -10.182  18.611  0.00  0.00    +0.113 C 
ATOM     26  H   UNL     1      -7.981  -9.988  20.058  0.00  0.00    +0.123 HD
BRANCH  16   3
ATOM      3  O   UNL     1     -10.864 -12.105  18.370  0.00  0.00    -0.390 OA
ATOM     30  H   UNL     1     -11.558 -11.463  18.597  0.00  0.00    +0.210 HD
ENDBRANCH  16   3
ENDBRANCH  19  11
ENDBRANCH  12   8
BRANCH  21  22
ATOM      5  O   UNL     1      -6.081  -9.481  12.498  0.00  0.00    -0.271 OA
ATOM      9  N   UNL     1      -4.305 -10.741  11.668  0.00  0.00    -0.301 N 
ATOM     22  C   UNL     1      -5.082 -10.179  12.666  0.00  0.00    +0.240 C 
ATOM     31  H   UNL     1      -3.501 -11.308  11.923  0.00  0.00    +0.150 HD
BRANCH   9  23
ATOM     23  C   UNL     1      -4.581 -10.568  10.260  0.00  0.00    +0.156 C 
ATOM     24  C   UNL     1      -4.227 -11.821   9.475  0.00  0.00    +0.038 C 
BRANCH  23  25
ATOM      6  O   UNL     1      -2.656  -9.092  10.155  0.00  0.00    -0.274 OA
ATOM     10  N   UNL     1      -4.449  -8.655   8.788  0.00  0.00    -0.328 N 
ATOM     25  C   UNL     1      -3.786  -9.371   9.762  0.00  0.00    +0.231 C 
ATOM     32  H   UNL     1      -4.025  -7.838   8.363  0.00  0.00    +0.145 HD
ATOM     33  H   UNL     1      -5.375  -8.910   8.459  0.00  0.00    +0.145 HD
ENDBRANCH  23  25
ENDBRANCH   9  23
ENDBRANCH  21  22
BRANCH  13   1
ATOM      1  O   UNL     1      -4.141 -12.842  16.293  0.00  0.00    -0.387 OA
ATOM     28  H   UNL     1      -3.336 -13.273  15.960  0.00  0.00    +0.210 HD
ENDBRANCH  13   1
BRANCH  15   2
ATOM      2  O   UNL     1      -2.223  -9.739  16.006  0.00  0.00    -0.389 OA
ATOM     29  H   UNL     1      -2.540  -9.562  16.907  0.00  0.00    +0.210 HD
ENDBRANCH  15   2
TORSDOF 8
ENDMDL
