REMARK  Name = 75536902
REMARK  6 active torsions:
REMARK  status: ('A' for Active; 'I' for Inactive)
REMARK    1  A    between atoms: S_1  and  N_7
REMARK    2  A    between atoms: S_1  and  C_15
REMARK    3  A    between atoms: O_3  and  C_11
REMARK    4  A    between atoms: O_3  and  C_18
REMARK    5  A    between atoms: O_6  and  C_21
REMARK    6  A    between atoms: O_6  and  C_25
REMARK                            x       y       z     vdW  Elec       q    Type
REMARK                         _______ _______ _______ _____ _____    ______ ____
ROOT
ATOM      2  O   UNL     1      -1.152  -2.712   1.202  0.00  0.00    -0.375 OA
ATOM      7  N   UNL     1       0.247  -0.893  -0.621  0.00  0.00    -0.171 NA
ATOM     10  C   UNL     1      -0.405  -0.037   0.419  0.00  0.00    +0.156 C 
ATOM     11  C   UNL     1      -1.867  -0.435   0.609  0.00  0.00    +0.216 C 
ATOM     12  C   UNL     1       0.882  -2.109  -0.029  0.00  0.00    +0.137 C 
ATOM     13  C   UNL     1      -2.169  -1.931   0.585  0.00  0.00    +0.205 C 
ATOM     14  C   UNL     1      -0.168  -3.168   0.273  0.00  0.00    +0.177 C 
ENDROOT
BRANCH   7   1
ATOM      1  S   UNL     1       1.186  -0.062  -1.789  0.00  0.00    +0.061 S 
ATOM      4  O   UNL     1       0.513   1.169  -2.139  0.00  0.00    -0.153 OA
ATOM      5  O   UNL     1       1.605  -1.002  -2.803  0.00  0.00    -0.153 OA
BRANCH   1  15
ATOM     15  C   UNL     1       2.595   0.349  -0.809  0.00  0.00    +0.106 A 
ATOM     16  C   UNL     1       3.676  -0.529  -0.741  0.00  0.00    +0.032 A 
ATOM     17  C   UNL     1       2.626   1.550  -0.101  0.00  0.00    +0.032 A 
ATOM     19  C   UNL     1       4.789  -0.206   0.036  0.00  0.00    +0.047 A 
ATOM     20  C   UNL     1       3.739   1.873   0.676  0.00  0.00    +0.047 A 
ATOM     21  C   UNL     1       4.820   0.995   0.744  0.00  0.00    +0.120 A 
BRANCH  21   6
ATOM      6  O   UNL     1       5.906   1.310   1.502  0.00  0.00    -0.495 OA
ATOM     25  C   UNL     1       6.976   0.366   1.527  0.00  0.00    +0.277 C 
ENDBRANCH  21   6
ENDBRANCH   1  15
ENDBRANCH   7   1
BRANCH  11   3
ATOM      3  O   UNL     1      -2.672   0.185  -0.395  0.00  0.00    -0.468 OA
BRANCH   3  18
ATOM      8  N   UNL     1      -4.330   0.268   1.234  0.00  0.00    -0.219 NA
ATOM      9  N   UNL     1      -6.045   1.495  -0.616  0.00  0.00    -0.256 NA
ATOM     18  C   UNL     1      -3.944   0.534  -0.030  0.00  0.00    +0.234 A 
ATOM     22  C   UNL     1      -4.786   1.137  -0.938  0.00  0.00    +0.177 A 
ATOM     23  C   UNL     1      -5.589   0.625   1.556  0.00  0.00    +0.134 A 
ATOM     24  C   UNL     1      -6.431   1.228   0.648  0.00  0.00    +0.130 A 
ENDBRANCH   3  18
ENDBRANCH  11   3
TORSDOF 5
