MODEL 1
REMARK VINA RESULT:      -7.3      0.000      0.000
REMARK  Name = 45360769
REMARK  12 active torsions:
REMARK  status: ('A' for Active; 'I' for Inactive)
REMARK    1  A    between atoms: O_3  and  C_24
REMARK    2  A    between atoms: O_3  and  C_30
REMARK    3  A    between atoms: N_6  and  C_11
REMARK    4  A    between atoms: N_6  and  C_21
REMARK    5  A    between atoms: N_8  and  C_31
REMARK    6  A    between atoms: N_8  and  C_32
REMARK    7  A    between atoms: N_8  and  C_33
REMARK    8  A    between atoms: C_10  and  C_15
REMARK    9  A    between atoms: C_15  and  C_17
REMARK   10  A    between atoms: C_17  and  C_19
REMARK   11  A    between atoms: C_18  and  C_24
REMARK   12  A    between atoms: C_21  and  C_25
REMARK                            x       y       z     vdW  Elec       q    Type
REMARK                         _______ _______ _______ _____ _____    ______ ____
ROOT
ATOM      1  O   UNL     1     -17.902   0.465  22.899  0.00  0.00    -0.274 OA
ATOM      4  N   UNL     1     -17.191   3.441  24.889  0.00  0.00    -0.286 NA
ATOM      5  N   UNL     1     -17.277   0.643  25.078  0.00  0.00    -0.313 N 
ATOM      9  C   UNL     1     -17.783   2.699  23.770  0.00  0.00    +0.145 C 
ATOM     10  C   UNL     1     -17.396   2.824  26.194  0.00  0.00    +0.075 C 
ATOM     11  C   UNL     1     -16.042   4.239  23.068  0.00  0.00    +0.070 C 
ATOM     12  C   UNL     1     -17.057   3.234  22.525  0.00  0.00    +0.048 C 
ATOM     13  C   UNL     1     -15.822   3.781  24.504  0.00  0.00    +0.104 C 
ATOM     14  C   UNL     1     -16.835   1.411  26.219  0.00  0.00    +0.123 C 
ATOM     16  C   UNL     1     -17.639   1.184  23.868  0.00  0.00    +0.230 C 
ATOM     34  H   UNL     1     -17.205  -0.368  25.137  0.00  0.00    +0.149 HD
ENDROOT
BRANCH  11   6
ATOM      6  N   UNL     1     -14.819   4.296  22.285  0.00  0.00    -0.308 NA
ATOM     35  H   UNL     1     -14.298   3.428  22.418  0.00  0.00    +0.123 HD
BRANCH   6  21
ATOM     21  C   UNL     1     -13.983   5.417  22.698  0.00  0.00    +0.116 C 
BRANCH  21  25
ATOM     25  C   UNL     1     -13.508   6.225  21.520  0.00  0.00    -0.033 A 
ATOM     26  C   UNL     1     -14.431   6.893  20.715  0.00  0.00    +0.007 A 
ATOM     27  C   UNL     1     -12.146   6.305  21.233  0.00  0.00    +0.007 A 
ATOM     28  C   UNL     1     -13.991   7.641  19.622  0.00  0.00    +0.023 A 
ATOM     29  C   UNL     1     -11.705   7.053  20.141  0.00  0.00    +0.023 A 
ATOM     31  C   UNL     1     -12.628   7.721  19.336  0.00  0.00    +0.029 A 
BRANCH  31   8
ATOM      8  N   UNL     1     -12.183   8.478  18.232  0.00  0.00    -0.336 N 
ATOM     32  C   UNL     1     -12.909   9.660  17.812  0.00  0.00    +0.129 C 
ATOM     33  C   UNL     1     -10.990   8.087  17.508  0.00  0.00    +0.129 C 
ENDBRANCH  31   8
ENDBRANCH  21  25
ENDBRANCH   6  21
ENDBRANCH  11   6
BRANCH  10  15
ATOM     15  C   UNL     1     -16.827   3.660  27.342  0.00  0.00    +0.029 C 
BRANCH  15  17
ATOM     17  C   UNL     1     -16.919   2.947  28.683  0.00  0.00    +0.097 C 
BRANCH  17  19
ATOM      2  O   UNL     1     -14.981   4.035  29.534  0.00  0.00    -0.276 OA
ATOM      7  N   UNL     1     -15.154   1.755  29.890  0.00  0.00    -0.296 N 
ATOM     18  C   UNL     1     -13.847   1.586  30.530  0.00  0.00    +0.102 C 
ATOM     19  C   UNL     1     -15.596   2.975  29.404  0.00  0.00    +0.216 C 
ATOM     20  C   UNL     1     -13.617   0.073  30.491  0.00  0.00    +0.026 C 
ATOM     22  C   UNL     1     -15.848   0.476  29.758  0.00  0.00    +0.108 C 
ATOM     23  C   UNL     1     -15.026  -0.501  30.584  0.00  0.00    +0.021 C 
BRANCH  18  24
ATOM     24  C   UNL     1     -13.849   2.133  31.955  0.00  0.00    +0.181 C 
BRANCH  24   3
ATOM      3  O   UNL     1     -13.009   3.272  32.000  0.00  0.00    -0.381 OA
ATOM     30  C   UNL     1     -13.638   4.365  32.661  0.00  0.00    +0.194 C 
ENDBRANCH  24   3
ENDBRANCH  18  24
ENDBRANCH  17  19
ENDBRANCH  15  17
ENDBRANCH  10  15
TORSDOF 9
ENDMDL
MODEL 2
REMARK VINA RESULT:      -7.3     27.222     30.945
REMARK  Name = 45360769
REMARK  12 active torsions:
REMARK  status: ('A' for Active; 'I' for Inactive)
REMARK    1  A    between atoms: O_3  and  C_24
REMARK    2  A    between atoms: O_3  and  C_30
REMARK    3  A    between atoms: N_6  and  C_11
REMARK    4  A    between atoms: N_6  and  C_21
REMARK    5  A    between atoms: N_8  and  C_31
REMARK    6  A    between atoms: N_8  and  C_32
REMARK    7  A    between atoms: N_8  and  C_33
REMARK    8  A    between atoms: C_10  and  C_15
REMARK    9  A    between atoms: C_15  and  C_17
REMARK   10  A    between atoms: C_17  and  C_19
REMARK   11  A    between atoms: C_18  and  C_24
REMARK   12  A    between atoms: C_21  and  C_25
REMARK                            x       y       z     vdW  Elec       q    Type
REMARK                         _______ _______ _______ _____ _____    ______ ____
ROOT
ATOM      1  O   UNL     1      11.883   7.563  17.482  0.00  0.00    -0.274 OA
ATOM      4  N   UNL     1      13.363   9.215  20.380  0.00  0.00    -0.286 NA
ATOM      5  N   UNL     1      10.921   8.203  19.440  0.00  0.00    -0.313 N 
ATOM      9  C   UNL     1      13.285   8.824  18.968  0.00  0.00    +0.145 C 
ATOM     10  C   UNL     1      12.118   9.743  20.927  0.00  0.00    +0.075 C 
ATOM     11  C   UNL     1      15.145   7.788  20.136  0.00  0.00    +0.070 C 
ATOM     12  C   UNL     1      14.487   7.889  18.759  0.00  0.00    +0.048 C 
ATOM     13  C   UNL     1      14.009   8.118  21.096  0.00  0.00    +0.104 C 
ATOM     14  C   UNL     1      10.992   8.732  20.782  0.00  0.00    +0.123 C 
ATOM     16  C   UNL     1      11.986   8.126  18.575  0.00  0.00    +0.230 C 
ATOM     34  H   UNL     1      10.055   7.754  19.158  0.00  0.00    +0.149 HD
ENDROOT
BRANCH  11   6
ATOM      6  N   UNL     1      15.755   6.492  20.383  0.00  0.00    -0.308 NA
ATOM     35  H   UNL     1      16.096   6.463  21.344  0.00  0.00    +0.123 HD
BRANCH   6  21
ATOM     21  C   UNL     1      16.873   6.258  19.477  0.00  0.00    +0.116 C 
BRANCH  21  25
ATOM     25  C   UNL     1      18.179   6.148  20.215  0.00  0.00    -0.033 A 
ATOM     26  C   UNL     1      19.119   5.192  19.829  0.00  0.00    +0.007 A 
ATOM     27  C   UNL     1      18.450   7.000  21.286  0.00  0.00    +0.007 A 
ATOM     28  C   UNL     1      20.330   5.088  20.515  0.00  0.00    +0.023 A 
ATOM     29  C   UNL     1      19.661   6.896  21.971  0.00  0.00    +0.023 A 
ATOM     31  C   UNL     1      20.601   5.941  21.586  0.00  0.00    +0.029 A 
BRANCH  31   8
ATOM      8  N   UNL     1      21.826   5.836  22.278  0.00  0.00    -0.336 N 
ATOM     32  C   UNL     1      21.878   6.041  23.711  0.00  0.00    +0.129 C 
ATOM     33  C   UNL     1      23.046   5.515  21.564  0.00  0.00    +0.129 C 
ENDBRANCH  31   8
ENDBRANCH  21  25
ENDBRANCH   6  21
ENDBRANCH  11   6
BRANCH  10  15
ATOM     15  C   UNL     1      12.257  10.207  22.378  0.00  0.00    +0.029 C 
BRANCH  15  17
ATOM     17  C   UNL     1      10.910  10.462  23.039  0.00  0.00    +0.097 C 
BRANCH  17  19
ATOM      2  O   UNL     1      11.319  11.099  25.295  0.00  0.00    -0.276 OA
ATOM      7  N   UNL     1      10.817  12.789  23.795  0.00  0.00    -0.296 N 
ATOM     18  C   UNL     1      10.805  13.880  24.772  0.00  0.00    +0.102 C 
ATOM     19  C   UNL     1      11.035  11.468  24.154  0.00  0.00    +0.216 C 
ATOM     20  C   UNL     1      10.110  15.024  24.029  0.00  0.00    +0.026 C 
ATOM     22  C   UNL     1      10.478  13.270  22.458  0.00  0.00    +0.108 C 
ATOM     23  C   UNL     1      10.497  14.786  22.574  0.00  0.00    +0.021 C 
BRANCH  18  24
ATOM     24  C   UNL     1      12.219  14.252  25.211  0.00  0.00    +0.181 C 
BRANCH  24   3
ATOM      3  O   UNL     1      12.315  14.076  26.612  0.00  0.00    -0.381 OA
ATOM     30  C   UNL     1      12.569  15.306  27.281  0.00  0.00    +0.194 C 
ENDBRANCH  24   3
ENDBRANCH  18  24
ENDBRANCH  17  19
ENDBRANCH  15  17
ENDBRANCH  10  15
TORSDOF 9
ENDMDL
MODEL 3
REMARK VINA RESULT:      -7.1     27.630     31.530
REMARK  Name = 45360769
REMARK  12 active torsions:
REMARK  status: ('A' for Active; 'I' for Inactive)
REMARK    1  A    between atoms: O_3  and  C_24
REMARK    2  A    between atoms: O_3  and  C_30
REMARK    3  A    between atoms: N_6  and  C_11
REMARK    4  A    between atoms: N_6  and  C_21
REMARK    5  A    between atoms: N_8  and  C_31
REMARK    6  A    between atoms: N_8  and  C_32
REMARK    7  A    between atoms: N_8  and  C_33
REMARK    8  A    between atoms: C_10  and  C_15
REMARK    9  A    between atoms: C_15  and  C_17
REMARK   10  A    between atoms: C_17  and  C_19
REMARK   11  A    between atoms: C_18  and  C_24
REMARK   12  A    between atoms: C_21  and  C_25
REMARK                            x       y       z     vdW  Elec       q    Type
REMARK                         _______ _______ _______ _____ _____    ______ ____
ROOT
ATOM      1  O   UNL     1      11.653   7.594  17.569  0.00  0.00    -0.274 OA
ATOM      4  N   UNL     1      13.510   7.183  20.684  0.00  0.00    -0.286 NA
ATOM      5  N   UNL     1      13.894   7.439  17.916  0.00  0.00    -0.313 N 
ATOM      9  C   UNL     1      12.327   7.102  19.820  0.00  0.00    +0.145 C 
ATOM     10  C   UNL     1      14.729   6.652  20.084  0.00  0.00    +0.075 C 
ATOM     11  C   UNL     1      12.091   8.738  21.598  0.00  0.00    +0.070 C 
ATOM     12  C   UNL     1      11.338   8.112  20.425  0.00  0.00    +0.048 C 
ATOM     13  C   UNL     1      13.555   8.539  21.228  0.00  0.00    +0.104 C 
ATOM     14  C   UNL     1      15.049   7.368  18.782  0.00  0.00    +0.123 C 
ATOM     16  C   UNL     1      12.591   7.421  18.352  0.00  0.00    +0.230 C 
ATOM     34  H   UNL     1      14.057   7.631  16.932  0.00  0.00    +0.149 HD
ENDROOT
BRANCH  11   6
ATOM      6  N   UNL     1      11.736  10.129  21.826  0.00  0.00    -0.308 NA
ATOM     35  H   UNL     1      12.588  10.671  21.975  0.00  0.00    +0.123 HD
BRANCH   6  21
ATOM     21  C   UNL     1      10.878  10.266  22.997  0.00  0.00    +0.116 C 
BRANCH  21  25
ATOM     25  C   UNL     1      11.334  11.381  23.899  0.00  0.00    -0.033 A 
ATOM     26  C   UNL     1      12.687  11.514  24.215  0.00  0.00    +0.007 A 
ATOM     27  C   UNL     1      10.405  12.281  24.420  0.00  0.00    +0.007 A 
ATOM     28  C   UNL     1      13.110  12.547  25.051  0.00  0.00    +0.023 A 
ATOM     29  C   UNL     1      10.828  13.314  25.257  0.00  0.00    +0.023 A 
ATOM     31  C   UNL     1      12.180  13.447  25.572  0.00  0.00    +0.029 A 
BRANCH  31   8
ATOM      8  N   UNL     1      12.608  14.492  26.418  0.00  0.00    -0.336 N 
ATOM     32  C   UNL     1      11.644  15.262  27.179  0.00  0.00    +0.129 C 
ATOM     33  C   UNL     1      14.018  14.804  26.542  0.00  0.00    +0.129 C 
ENDBRANCH  31   8
ENDBRANCH  21  25
ENDBRANCH   6  21
ENDBRANCH  11   6
BRANCH  10  15
ATOM     15  C   UNL     1      15.925   6.687  21.038  0.00  0.00    +0.029 C 
BRANCH  15  17
ATOM     17  C   UNL     1      17.141   7.362  20.421  0.00  0.00    +0.097 C 
BRANCH  17  19
ATOM      2  O   UNL     1      18.501   5.476  19.911  0.00  0.00    -0.276 OA
ATOM      7  N   UNL     1      19.309   6.963  21.489  0.00  0.00    -0.296 N 
ATOM     18  C   UNL     1      20.514   6.205  21.831  0.00  0.00    +0.102 C 
ATOM     19  C   UNL     1      18.372   6.505  20.576  0.00  0.00    +0.216 C 
ATOM     20  C   UNL     1      20.985   6.844  23.140  0.00  0.00    +0.026 C 
ATOM     22  C   UNL     1      19.198   8.175  22.297  0.00  0.00    +0.108 C 
ATOM     23  C   UNL     1      20.538   8.295  23.006  0.00  0.00    +0.021 C 
BRANCH  18  24
ATOM     24  C   UNL     1      21.567   6.305  20.729  0.00  0.00    +0.181 C 
BRANCH  24   3
ATOM      3  O   UNL     1      21.740   5.022  20.157  0.00  0.00    -0.381 OA
ATOM     30  C   UNL     1      21.604   3.989  21.127  0.00  0.00    +0.194 C 
ENDBRANCH  24   3
ENDBRANCH  18  24
ENDBRANCH  17  19
ENDBRANCH  15  17
ENDBRANCH  10  15
TORSDOF 9
ENDMDL
MODEL 4
REMARK VINA RESULT:      -6.8      3.268     11.204
REMARK  Name = 45360769
REMARK  12 active torsions:
REMARK  status: ('A' for Active; 'I' for Inactive)
REMARK    1  A    between atoms: O_3  and  C_24
REMARK    2  A    between atoms: O_3  and  C_30
REMARK    3  A    between atoms: N_6  and  C_11
REMARK    4  A    between atoms: N_6  and  C_21
REMARK    5  A    between atoms: N_8  and  C_31
REMARK    6  A    between atoms: N_8  and  C_32
REMARK    7  A    between atoms: N_8  and  C_33
REMARK    8  A    between atoms: C_10  and  C_15
REMARK    9  A    between atoms: C_15  and  C_17
REMARK   10  A    between atoms: C_17  and  C_19
REMARK   11  A    between atoms: C_18  and  C_24
REMARK   12  A    between atoms: C_21  and  C_25
REMARK                            x       y       z     vdW  Elec       q    Type
REMARK                         _______ _______ _______ _____ _____    ______ ____
ROOT
ATOM      1  O   UNL     1     -18.292   5.569  21.573  0.00  0.00    -0.274 OA
ATOM      4  N   UNL     1     -14.764   4.847  22.167  0.00  0.00    -0.286 NA
ATOM      5  N   UNL     1     -16.454   6.828  21.123  0.00  0.00    -0.313 N 
ATOM      9  C   UNL     1     -16.177   4.504  21.969  0.00  0.00    +0.145 C 
ATOM     10  C   UNL     1     -14.232   5.791  21.191  0.00  0.00    +0.075 C 
ATOM     11  C   UNL     1     -15.397   4.038  24.220  0.00  0.00    +0.070 C 
ATOM     12  C   UNL     1     -16.628   3.926  23.320  0.00  0.00    +0.048 C 
ATOM     13  C   UNL     1     -14.592   5.164  23.584  0.00  0.00    +0.104 C 
ATOM     14  C   UNL     1     -15.034   7.083  21.195  0.00  0.00    +0.123 C 
ATOM     16  C   UNL     1     -17.063   5.678  21.563  0.00  0.00    +0.230 C 
ATOM     34  H   UNL     1     -17.054   7.596  20.835  0.00  0.00    +0.149 HD
ENDROOT
BRANCH  11   6
ATOM      6  N   UNL     1     -15.730   4.281  25.614  0.00  0.00    -0.308 NA
ATOM     35  H   UNL     1     -14.882   4.209  26.177  0.00  0.00    +0.123 HD
BRANCH   6  21
ATOM     21  C   UNL     1     -16.702   3.308  26.098  0.00  0.00    +0.116 C 
BRANCH  21  25
ATOM     25  C   UNL     1     -16.288   2.709  27.415  0.00  0.00    -0.033 A 
ATOM     26  C   UNL     1     -15.717   3.517  28.399  0.00  0.00    +0.007 A 
ATOM     27  C   UNL     1     -16.472   1.347  27.652  0.00  0.00    +0.007 A 
ATOM     28  C   UNL     1     -15.332   2.962  29.620  0.00  0.00    +0.023 A 
ATOM     29  C   UNL     1     -16.086   0.792  28.872  0.00  0.00    +0.023 A 
ATOM     31  C   UNL     1     -15.517   1.599  29.856  0.00  0.00    +0.029 A 
BRANCH  31   8
ATOM      8  N   UNL     1     -15.128   1.039  31.091  0.00  0.00    -0.336 N 
ATOM     32  C   UNL     1     -14.834   1.893  32.225  0.00  0.00    +0.129 C 
ATOM     33  C   UNL     1     -15.024  -0.399  31.243  0.00  0.00    +0.129 C 
ENDBRANCH  31   8
ENDBRANCH  21  25
ENDBRANCH   6  21
ENDBRANCH  11   6
BRANCH  10  15
ATOM     15  C   UNL     1     -12.741   6.069  21.386  0.00  0.00    +0.029 C 
BRANCH  15  17
ATOM     17  C   UNL     1     -12.391   7.535  21.179  0.00  0.00    +0.097 C 
BRANCH  17  19
ATOM      2  O   UNL     1     -11.285   6.773  19.214  0.00  0.00    -0.276 OA
ATOM      7  N   UNL     1     -11.497   9.061  19.485  0.00  0.00    -0.296 N 
ATOM     18  C   UNL     1     -10.737   9.442  18.293  0.00  0.00    +0.102 C 
ATOM     19  C   UNL     1     -11.672   7.742  19.870  0.00  0.00    +0.216 C 
ATOM     20  C   UNL     1     -10.440  10.928  18.511  0.00  0.00    +0.026 C 
ATOM     22  C   UNL     1     -11.938  10.238  20.231  0.00  0.00    +0.108 C 
ATOM     23  C   UNL     1     -11.641  11.414  19.313  0.00  0.00    +0.021 C 
BRANCH  18  24
ATOM     24  C   UNL     1     -11.541   9.196  17.017  0.00  0.00    +0.181 C 
BRANCH  24   3
ATOM      3  O   UNL     1     -10.885   8.196  16.260  0.00  0.00    -0.381 OA
ATOM     30  C   UNL     1     -10.760   8.567  14.892  0.00  0.00    +0.194 C 
ENDBRANCH  24   3
ENDBRANCH  18  24
ENDBRANCH  17  19
ENDBRANCH  15  17
ENDBRANCH  10  15
TORSDOF 9
ENDMDL
MODEL 5
REMARK VINA RESULT:      -6.7     20.111     23.389
REMARK  Name = 45360769
REMARK  12 active torsions:
REMARK  status: ('A' for Active; 'I' for Inactive)
REMARK    1  A    between atoms: O_3  and  C_24
REMARK    2  A    between atoms: O_3  and  C_30
REMARK    3  A    between atoms: N_6  and  C_11
REMARK    4  A    between atoms: N_6  and  C_21
REMARK    5  A    between atoms: N_8  and  C_31
REMARK    6  A    between atoms: N_8  and  C_32
REMARK    7  A    between atoms: N_8  and  C_33
REMARK    8  A    between atoms: C_10  and  C_15
REMARK    9  A    between atoms: C_15  and  C_17
REMARK   10  A    between atoms: C_17  and  C_19
REMARK   11  A    between atoms: C_18  and  C_24
REMARK   12  A    between atoms: C_21  and  C_25
REMARK                            x       y       z     vdW  Elec       q    Type
REMARK                         _______ _______ _______ _____ _____    ______ ____
ROOT
ATOM      1  O   UNL     1      -2.740 -14.490  13.845  0.00  0.00    -0.274 OA
ATOM      4  N   UNL     1      -2.290 -11.206  12.317  0.00  0.00    -0.286 NA
ATOM      5  N   UNL     1      -3.995 -13.434  12.271  0.00  0.00    -0.313 N 
ATOM      9  C   UNL     1      -1.853 -12.415  13.026  0.00  0.00    +0.145 C 
ATOM     10  C   UNL     1      -3.087 -11.466  11.123  0.00  0.00    +0.075 C 
ATOM     11  C   UNL     1      -1.796 -10.426  14.418  0.00  0.00    +0.070 C 
ATOM     12  C   UNL     1      -1.482 -11.922  14.434  0.00  0.00    +0.048 C 
ATOM     13  C   UNL     1      -2.840 -10.294  13.317  0.00  0.00    +0.104 C 
ATOM     14  C   UNL     1      -4.324 -12.281  11.465  0.00  0.00    +0.123 C 
ATOM     16  C   UNL     1      -2.903 -13.518  13.101  0.00  0.00    +0.230 C 
ATOM     34  H   UNL     1      -4.676 -14.186  12.314  0.00  0.00    +0.149 HD
ENDROOT
BRANCH  11   6
ATOM      6  N   UNL     1      -2.246  -9.924  15.706  0.00  0.00    -0.308 NA
ATOM     35  H   UNL     1      -1.469  -9.450  16.168  0.00  0.00    +0.123 HD
BRANCH   6  21
ATOM     21  C   UNL     1      -2.711 -11.011  16.558  0.00  0.00    +0.116 C 
BRANCH  21  25
ATOM     25  C   UNL     1      -4.136 -10.808  16.997  0.00  0.00    -0.033 A 
ATOM     26  C   UNL     1      -4.595 -11.402  18.173  0.00  0.00    +0.007 A 
ATOM     27  C   UNL     1      -4.999 -10.026  16.229  0.00  0.00    +0.007 A 
ATOM     28  C   UNL     1      -5.917 -11.215  18.580  0.00  0.00    +0.023 A 
ATOM     29  C   UNL     1      -6.320  -9.839  16.635  0.00  0.00    +0.023 A 
ATOM     31  C   UNL     1      -6.779 -10.433  17.811  0.00  0.00    +0.029 A 
BRANCH  31   8
ATOM      8  N   UNL     1      -8.115 -10.243  18.223  0.00  0.00    -0.336 N 
ATOM     32  C   UNL     1      -8.972  -9.306  17.525  0.00  0.00    +0.129 C 
ATOM     33  C   UNL     1      -8.648 -10.989  19.345  0.00  0.00    +0.129 C 
ENDBRANCH  31   8
ENDBRANCH  21  25
ENDBRANCH   6  21
ENDBRANCH  11   6
BRANCH  10  15
ATOM     15  C   UNL     1      -3.463 -10.188  10.371  0.00  0.00    +0.029 C 
BRANCH  15  17
ATOM     17  C   UNL     1      -4.394 -10.455   9.198  0.00  0.00    +0.097 C 
BRANCH  17  19
ATOM      2  O   UNL     1      -6.032  -9.216  10.401  0.00  0.00    -0.276 OA
ATOM      7  N   UNL     1      -6.310  -9.386   8.110  0.00  0.00    -0.296 N 
ATOM     18  C   UNL     1      -7.594  -8.685   8.045  0.00  0.00    +0.102 C 
ATOM     19  C   UNL     1      -5.652  -9.631   9.305  0.00  0.00    +0.216 C 
ATOM     20  C   UNL     1      -8.128  -9.034   6.653  0.00  0.00    +0.026 C 
ATOM     22  C   UNL     1      -5.896  -9.857   6.790  0.00  0.00    +0.108 C 
ATOM     23  C   UNL     1      -6.862  -9.195   5.820  0.00  0.00    +0.021 C 
BRANCH  18  24
ATOM     24  C   UNL     1      -7.419  -7.180   8.235  0.00  0.00    +0.181 C 
BRANCH  24   3
ATOM      3  O   UNL     1      -8.483  -6.518   7.578  0.00  0.00    -0.381 OA
ATOM     30  C   UNL     1      -9.493  -6.107   8.492  0.00  0.00    +0.194 C 
ENDBRANCH  24   3
ENDBRANCH  18  24
ENDBRANCH  17  19
ENDBRANCH  15  17
ENDBRANCH  10  15
TORSDOF 9
ENDMDL
MODEL 6
REMARK VINA RESULT:      -6.5     30.451     33.869
REMARK  Name = 45360769
REMARK  12 active torsions:
REMARK  status: ('A' for Active; 'I' for Inactive)
REMARK    1  A    between atoms: O_3  and  C_24
REMARK    2  A    between atoms: O_3  and  C_30
REMARK    3  A    between atoms: N_6  and  C_11
REMARK    4  A    between atoms: N_6  and  C_21
REMARK    5  A    between atoms: N_8  and  C_31
REMARK    6  A    between atoms: N_8  and  C_32
REMARK    7  A    between atoms: N_8  and  C_33
REMARK    8  A    between atoms: C_10  and  C_15
REMARK    9  A    between atoms: C_15  and  C_17
REMARK   10  A    between atoms: C_17  and  C_19
REMARK   11  A    between atoms: C_18  and  C_24
REMARK   12  A    between atoms: C_21  and  C_25
REMARK                            x       y       z     vdW  Elec       q    Type
REMARK                         _______ _______ _______ _____ _____    ______ ____
ROOT
ATOM      1  O   UNL     1       9.356   5.886   8.489  0.00  0.00    -0.274 OA
ATOM      4  N   UNL     1      10.336   6.961   5.142  0.00  0.00    -0.286 NA
ATOM      5  N   UNL     1       9.846   4.645   6.648  0.00  0.00    -0.313 N 
ATOM      9  C   UNL     1      10.167   7.113   6.592  0.00  0.00    +0.145 C 
ATOM     10  C   UNL     1      10.960   5.706   4.738  0.00  0.00    +0.075 C 
ATOM     11  C   UNL     1       8.708   8.571   5.311  0.00  0.00    +0.070 C 
ATOM     12  C   UNL     1       9.103   8.212   6.743  0.00  0.00    +0.048 C 
ATOM     13  C   UNL     1       9.062   7.319   4.520  0.00  0.00    +0.104 C 
ATOM     14  C   UNL     1      10.160   4.516   5.244  0.00  0.00    +0.123 C 
ATOM     16  C   UNL     1       9.735   5.841   7.315  0.00  0.00    +0.230 C 
ATOM     34  H   UNL     1       9.576   3.803   7.147  0.00  0.00    +0.149 HD
ENDROOT
BRANCH  11   6
ATOM      6  N   UNL     1       7.314   8.961   5.184  0.00  0.00    -0.308 NA
ATOM     35  H   UNL     1       6.810   8.235   4.675  0.00  0.00    +0.123 HD
BRANCH   6  21
ATOM     21  C   UNL     1       7.186  10.221   4.462  0.00  0.00    +0.116 C 
BRANCH  21  25
ATOM     25  C   UNL     1       6.400  10.060   3.189  0.00  0.00    -0.033 A 
ATOM     26  C   UNL     1       5.026  10.302   3.182  0.00  0.00    +0.007 A 
ATOM     27  C   UNL     1       7.044   9.667   2.016  0.00  0.00    +0.007 A 
ATOM     28  C   UNL     1       4.297  10.151   2.002  0.00  0.00    +0.023 A 
ATOM     29  C   UNL     1       6.315   9.516   0.836  0.00  0.00    +0.023 A 
ATOM     31  C   UNL     1       4.942   9.759   0.829  0.00  0.00    +0.029 A 
BRANCH  31   8
ATOM      8  N   UNL     1       4.204   9.607  -0.364  0.00  0.00    -0.336 N 
ATOM     32  C   UNL     1       2.914  10.250  -0.515  0.00  0.00    +0.129 C 
ATOM     33  C   UNL     1       4.731   8.813  -1.455  0.00  0.00    +0.129 C 
ENDBRANCH  31   8
ENDBRANCH  21  25
ENDBRANCH   6  21
ENDBRANCH  11   6
BRANCH  10  15
ATOM     15  C   UNL     1      11.184   5.615   3.228  0.00  0.00    +0.029 C 
BRANCH  15  17
ATOM     17  C   UNL     1      11.240   4.176   2.734  0.00  0.00    +0.097 C 
BRANCH  17  19
ATOM      2  O   UNL     1       9.591   4.147   1.017  0.00  0.00    -0.276 OA
ATOM      7  N   UNL     1      11.799   3.915   0.365  0.00  0.00    -0.296 N 
ATOM     18  C   UNL     1      11.531   3.706  -1.060  0.00  0.00    +0.102 C 
ATOM     19  C   UNL     1      10.789   4.078   1.299  0.00  0.00    +0.216 C 
ATOM     20  C   UNL     1      12.851   3.150  -1.601  0.00  0.00    +0.026 C 
ATOM     22  C   UNL     1      13.229   3.827   0.653  0.00  0.00    +0.108 C 
ATOM     23  C   UNL     1      13.901   3.806  -0.711  0.00  0.00    +0.021 C 
BRANCH  18  24
ATOM     24  C   UNL     1      11.130   5.009  -1.749  0.00  0.00    +0.181 C 
BRANCH  24   3
ATOM      3  O   UNL     1       9.936   4.783  -2.475  0.00  0.00    -0.381 OA
ATOM     30  C   UNL     1       8.915   5.706  -2.111  0.00  0.00    +0.194 C 
ENDBRANCH  24   3
ENDBRANCH  18  24
ENDBRANCH  17  19
ENDBRANCH  15  17
ENDBRANCH  10  15
TORSDOF 9
ENDMDL
MODEL 7
REMARK VINA RESULT:      -6.5     27.692     31.615
REMARK  Name = 45360769
REMARK  12 active torsions:
REMARK  status: ('A' for Active; 'I' for Inactive)
REMARK    1  A    between atoms: O_3  and  C_24
REMARK    2  A    between atoms: O_3  and  C_30
REMARK    3  A    between atoms: N_6  and  C_11
REMARK    4  A    between atoms: N_6  and  C_21
REMARK    5  A    between atoms: N_8  and  C_31
REMARK    6  A    between atoms: N_8  and  C_32
REMARK    7  A    between atoms: N_8  and  C_33
REMARK    8  A    between atoms: C_10  and  C_15
REMARK    9  A    between atoms: C_15  and  C_17
REMARK   10  A    between atoms: C_17  and  C_19
REMARK   11  A    between atoms: C_18  and  C_24
REMARK   12  A    between atoms: C_21  and  C_25
REMARK                            x       y       z     vdW  Elec       q    Type
REMARK                         _______ _______ _______ _____ _____    ______ ____
ROOT
ATOM      1  O   UNL     1      11.669   7.514  17.475  0.00  0.00    -0.274 OA
ATOM      4  N   UNL     1      13.445   7.116  20.638  0.00  0.00    -0.286 NA
ATOM      5  N   UNL     1      13.903   7.408  17.886  0.00  0.00    -0.313 N 
ATOM      9  C   UNL     1      12.289   7.015  19.740  0.00  0.00    +0.145 C 
ATOM     10  C   UNL     1      14.693   6.619  20.070  0.00  0.00    +0.075 C 
ATOM     11  C   UNL     1      11.964   8.628  21.525  0.00  0.00    +0.070 C 
ATOM     12  C   UNL     1      11.260   7.996  20.325  0.00  0.00    +0.048 C 
ATOM     13  C   UNL     1      13.442   8.467  21.196  0.00  0.00    +0.104 C 
ATOM     14  C   UNL     1      15.033   7.356  18.784  0.00  0.00    +0.123 C 
ATOM     16  C   UNL     1      12.589   7.355  18.283  0.00  0.00    +0.230 C 
ATOM     34  H   UNL     1      14.089   7.613  16.908  0.00  0.00    +0.149 HD
ENDROOT
BRANCH  11   6
ATOM      6  N   UNL     1      11.569  10.008  21.755  0.00  0.00    -0.308 NA
ATOM     35  H   UNL     1      12.392  10.607  21.681  0.00  0.00    +0.123 HD
BRANCH   6  21
ATOM     21  C   UNL     1      10.984  10.172  23.081  0.00  0.00    +0.116 C 
BRANCH  21  25
ATOM     25  C   UNL     1      11.615  11.311  23.835  0.00  0.00    -0.033 A 
ATOM     26  C   UNL     1      12.887  11.762  23.481  0.00  0.00    +0.007 A 
ATOM     27  C   UNL     1      10.930  11.914  24.890  0.00  0.00    +0.007 A 
ATOM     28  C   UNL     1      13.473  12.817  24.181  0.00  0.00    +0.023 A 
ATOM     29  C   UNL     1      11.516  12.969  25.590  0.00  0.00    +0.023 A 
ATOM     31  C   UNL     1      12.787  13.421  25.235  0.00  0.00    +0.029 A 
BRANCH  31   8
ATOM      8  N   UNL     1      13.379  14.489  25.942  0.00  0.00    -0.336 N 
ATOM     32  C   UNL     1      14.023  15.574  25.229  0.00  0.00    +0.129 C 
ATOM     33  C   UNL     1      13.346  14.516  27.391  0.00  0.00    +0.129 C 
ENDBRANCH  31   8
ENDBRANCH  21  25
ENDBRANCH   6  21
ENDBRANCH  11   6
BRANCH  10  15
ATOM     15  C   UNL     1      15.859   6.673  21.058  0.00  0.00    +0.029 C 
BRANCH  15  17
ATOM     17  C   UNL     1      17.203   6.429  20.387  0.00  0.00    +0.097 C 
BRANCH  17  19
ATOM      2  O   UNL     1      17.916   8.509  21.298  0.00  0.00    -0.276 OA
ATOM      7  N   UNL     1      19.550   6.926  20.874  0.00  0.00    -0.296 N 
ATOM     18  C   UNL     1      20.694   7.764  21.241  0.00  0.00    +0.102 C 
ATOM     19  C   UNL     1      18.245   7.392  20.895  0.00  0.00    +0.216 C 
ATOM     20  C   UNL     1      21.895   7.015  20.659  0.00  0.00    +0.026 C 
ATOM     22  C   UNL     1      19.985   5.612  20.405  0.00  0.00    +0.108 C 
ATOM     23  C   UNL     1      21.469   5.553  20.734  0.00  0.00    +0.021 C 
BRANCH  18  24
ATOM     24  C   UNL     1      20.798   7.934  22.755  0.00  0.00    +0.181 C 
BRANCH  24   3
ATOM      3  O   UNL     1      20.619   9.303  23.066  0.00  0.00    -0.381 OA
ATOM     30  C   UNL     1      21.225   9.644  24.309  0.00  0.00    +0.194 C 
ENDBRANCH  24   3
ENDBRANCH  18  24
ENDBRANCH  17  19
ENDBRANCH  15  17
ENDBRANCH  10  15
TORSDOF 9
ENDMDL
MODEL 8
REMARK VINA RESULT:      -6.5     17.657     20.027
REMARK  Name = 45360769
REMARK  12 active torsions:
REMARK  status: ('A' for Active; 'I' for Inactive)
REMARK    1  A    between atoms: O_3  and  C_24
REMARK    2  A    between atoms: O_3  and  C_30
REMARK    3  A    between atoms: N_6  and  C_11
REMARK    4  A    between atoms: N_6  and  C_21
REMARK    5  A    between atoms: N_8  and  C_31
REMARK    6  A    between atoms: N_8  and  C_32
REMARK    7  A    between atoms: N_8  and  C_33
REMARK    8  A    between atoms: C_10  and  C_15
REMARK    9  A    between atoms: C_15  and  C_17
REMARK   10  A    between atoms: C_17  and  C_19
REMARK   11  A    between atoms: C_18  and  C_24
REMARK   12  A    between atoms: C_21  and  C_25
REMARK                            x       y       z     vdW  Elec       q    Type
REMARK                         _______ _______ _______ _____ _____    ______ ____
ROOT
ATOM      1  O   UNL     1      -7.852 -12.900  19.328  0.00  0.00    -0.274 OA
ATOM      4  N   UNL     1      -5.555 -10.458  17.885  0.00  0.00    -0.286 NA
ATOM      5  N   UNL     1      -6.046 -13.219  17.984  0.00  0.00    -0.313 N 
ATOM      9  C   UNL     1      -6.551 -10.940  18.849  0.00  0.00    +0.145 C 
ATOM     10  C   UNL     1      -4.454 -11.384  17.645  0.00  0.00    +0.075 C 
ATOM     11  C   UNL     1      -7.400  -9.177  17.412  0.00  0.00    +0.070 C 
ATOM     12  C   UNL     1      -7.795 -10.078  18.582  0.00  0.00    +0.048 C 
ATOM     13  C   UNL     1      -6.287  -9.957  16.723  0.00  0.00    +0.104 C 
ATOM     14  C   UNL     1      -4.972 -12.726  17.153  0.00  0.00    +0.123 C 
ATOM     16  C   UNL     1      -6.886 -12.423  18.725  0.00  0.00    +0.230 C 
ATOM     34  H   UNL     1      -6.267 -14.209  17.927  0.00  0.00    +0.149 HD
ENDROOT
BRANCH  11   6
ATOM      6  N   UNL     1      -8.514  -8.862  16.533  0.00  0.00    -0.308 NA
ATOM     35  H   UNL     1      -8.281  -8.036  15.982  0.00  0.00    +0.123 HD
BRANCH   6  21
ATOM     21  C   UNL     1      -9.725  -8.592  17.299  0.00  0.00    +0.116 C 
BRANCH  21  25
ATOM     25  C   UNL     1     -10.748  -7.845  16.486  0.00  0.00    -0.033 A 
ATOM     26  C   UNL     1     -11.986  -8.429  16.217  0.00  0.00    +0.007 A 
ATOM     27  C   UNL     1     -10.458  -6.571  16.000  0.00  0.00    +0.007 A 
ATOM     28  C   UNL     1     -12.934  -7.738  15.462  0.00  0.00    +0.023 A 
ATOM     29  C   UNL     1     -11.406  -5.879  15.245  0.00  0.00    +0.023 A 
ATOM     31  C   UNL     1     -12.644  -6.462  14.976  0.00  0.00    +0.029 A 
BRANCH  31   8
ATOM      8  N   UNL     1     -13.603  -5.763  14.214  0.00  0.00    -0.336 N 
ATOM     32  C   UNL     1     -15.007  -6.113  14.302  0.00  0.00    +0.129 C 
ATOM     33  C   UNL     1     -13.197  -4.683  13.337  0.00  0.00    +0.129 C 
ENDBRANCH  31   8
ENDBRANCH  21  25
ENDBRANCH   6  21
ENDBRANCH  11   6
BRANCH  10  15
ATOM     15  C   UNL     1      -3.400 -10.819  16.691  0.00  0.00    +0.029 C 
BRANCH  15  17
ATOM     17  C   UNL     1      -3.236 -11.666  15.437  0.00  0.00    +0.097 C 
BRANCH  17  19
ATOM      2  O   UNL     1      -1.926 -10.176  14.123  0.00  0.00    -0.276 OA
ATOM      7  N   UNL     1      -3.997 -10.782  13.284  0.00  0.00    -0.296 N 
ATOM     18  C   UNL     1      -3.954  -9.923  12.099  0.00  0.00    +0.102 C 
ATOM     19  C   UNL     1      -2.982 -10.802  14.228  0.00  0.00    +0.216 C 
ATOM     20  C   UNL     1      -5.407  -9.897  11.617  0.00  0.00    +0.026 C 
ATOM     22  C   UNL     1      -5.262 -11.507  13.368  0.00  0.00    +0.108 C 
ATOM     23  C   UNL     1      -5.939 -11.265  12.028  0.00  0.00    +0.021 C 
BRANCH  18  24
ATOM     24  C   UNL     1      -3.005 -10.479  11.040  0.00  0.00    +0.181 C 
BRANCH  24   3
ATOM      3  O   UNL     1      -2.307  -9.398  10.451  0.00  0.00    -0.381 OA
ATOM     30  C   UNL     1      -1.054  -9.170  11.088  0.00  0.00    +0.194 C 
ENDBRANCH  24   3
ENDBRANCH  18  24
ENDBRANCH  17  19
ENDBRANCH  15  17
ENDBRANCH  10  15
TORSDOF 9
ENDMDL
MODEL 9
REMARK VINA RESULT:      -6.5     20.218     23.395
REMARK  Name = 45360769
REMARK  12 active torsions:
REMARK  status: ('A' for Active; 'I' for Inactive)
REMARK    1  A    between atoms: O_3  and  C_24
REMARK    2  A    between atoms: O_3  and  C_30
REMARK    3  A    between atoms: N_6  and  C_11
REMARK    4  A    between atoms: N_6  and  C_21
REMARK    5  A    between atoms: N_8  and  C_31
REMARK    6  A    between atoms: N_8  and  C_32
REMARK    7  A    between atoms: N_8  and  C_33
REMARK    8  A    between atoms: C_10  and  C_15
REMARK    9  A    between atoms: C_15  and  C_17
REMARK   10  A    between atoms: C_17  and  C_19
REMARK   11  A    between atoms: C_18  and  C_24
REMARK   12  A    between atoms: C_21  and  C_25
REMARK                            x       y       z     vdW  Elec       q    Type
REMARK                         _______ _______ _______ _____ _____    ______ ____
ROOT
ATOM      1  O   UNL     1      -2.651 -14.566  13.873  0.00  0.00    -0.274 OA
ATOM      4  N   UNL     1      -2.309 -11.266  12.352  0.00  0.00    -0.286 NA
ATOM      5  N   UNL     1      -3.924 -13.559  12.281  0.00  0.00    -0.313 N 
ATOM      9  C   UNL     1      -1.835 -12.457  13.067  0.00  0.00    +0.145 C 
ATOM     10  C   UNL     1      -3.078 -11.555  11.147  0.00  0.00    +0.075 C 
ATOM     11  C   UNL     1      -1.876 -10.468  14.461  0.00  0.00    +0.070 C 
ATOM     12  C   UNL     1      -1.504 -11.951  14.481  0.00  0.00    +0.048 C 
ATOM     13  C   UNL     1      -2.909 -10.376  13.345  0.00  0.00    +0.104 C 
ATOM     14  C   UNL     1      -4.286 -12.419  11.471  0.00  0.00    +0.123 C 
ATOM     16  C   UNL     1      -2.842 -13.601  13.127  0.00  0.00    +0.230 C 
ATOM     34  H   UNL     1      -4.576 -14.337  12.314  0.00  0.00    +0.149 HD
ENDROOT
BRANCH  11   6
ATOM      6  N   UNL     1      -2.364  -9.985  15.742  0.00  0.00    -0.308 NA
ATOM     35  H   UNL     1      -1.578  -9.620  16.281  0.00  0.00    +0.123 HD
BRANCH   6  21
ATOM     21  C   UNL     1      -2.998 -11.058  16.499  0.00  0.00    +0.116 C 
BRANCH  21  25
ATOM     25  C   UNL     1      -4.417 -10.719  16.868  0.00  0.00    -0.033 A 
ATOM     26  C   UNL     1      -5.236 -10.056  15.954  0.00  0.00    +0.007 A 
ATOM     27  C   UNL     1      -4.913 -11.067  18.125  0.00  0.00    +0.007 A 
ATOM     28  C   UNL     1      -6.552  -9.741  16.296  0.00  0.00    +0.023 A 
ATOM     29  C   UNL     1      -6.229 -10.752  18.467  0.00  0.00    +0.023 A 
ATOM     31  C   UNL     1      -7.047 -10.089  17.553  0.00  0.00    +0.029 A 
BRANCH  31   8
ATOM      8  N   UNL     1      -8.378  -9.771  17.899  0.00  0.00    -0.336 N 
ATOM     32  C   UNL     1      -9.036  -8.624  17.306  0.00  0.00    +0.129 C 
ATOM     33  C   UNL     1      -9.106 -10.593  18.846  0.00  0.00    +0.129 C 
ENDBRANCH  31   8
ENDBRANCH  21  25
ENDBRANCH   6  21
ENDBRANCH  11   6
BRANCH  10  15
ATOM     15  C   UNL     1      -3.493 -10.292  10.390  0.00  0.00    +0.029 C 
BRANCH  15  17
ATOM     17  C   UNL     1      -4.997 -10.066  10.416  0.00  0.00    +0.097 C 
BRANCH  17  19
ATOM      2  O   UNL     1      -4.862 -10.105   8.040  0.00  0.00    -0.276 OA
ATOM      7  N   UNL     1      -6.787  -9.223   8.974  0.00  0.00    -0.296 N 
ATOM     18  C   UNL     1      -7.411  -8.814   7.714  0.00  0.00    +0.102 C 
ATOM     19  C   UNL     1      -5.530  -9.804   9.031  0.00  0.00    +0.216 C 
ATOM     20  C   UNL     1      -8.526  -7.860   8.153  0.00  0.00    +0.026 C 
ATOM     22  C   UNL     1      -7.613  -8.850  10.120  0.00  0.00    +0.108 C 
ATOM     23  C   UNL     1      -8.936  -8.403   9.517  0.00  0.00    +0.021 C 
BRANCH  18  24
ATOM     24  C   UNL     1      -7.952 -10.016   6.942  0.00  0.00    +0.181 C 
BRANCH  24   3
ATOM      3  O   UNL     1      -7.230 -10.132   5.730  0.00  0.00    -0.381 OA
ATOM     30  C   UNL     1      -6.868  -8.858   5.207  0.00  0.00    +0.194 C 
ENDBRANCH  24   3
ENDBRANCH  18  24
ENDBRANCH  17  19
ENDBRANCH  15  17
ENDBRANCH  10  15
TORSDOF 9
ENDMDL
MODEL 10
REMARK VINA RESULT:      -6.4     18.538     21.455
REMARK  Name = 45360769
REMARK  12 active torsions:
REMARK  status: ('A' for Active; 'I' for Inactive)
REMARK    1  A    between atoms: O_3  and  C_24
REMARK    2  A    between atoms: O_3  and  C_30
REMARK    3  A    between atoms: N_6  and  C_11
REMARK    4  A    between atoms: N_6  and  C_21
REMARK    5  A    between atoms: N_8  and  C_31
REMARK    6  A    between atoms: N_8  and  C_32
REMARK    7  A    between atoms: N_8  and  C_33
REMARK    8  A    between atoms: C_10  and  C_15
REMARK    9  A    between atoms: C_15  and  C_17
REMARK   10  A    between atoms: C_17  and  C_19
REMARK   11  A    between atoms: C_18  and  C_24
REMARK   12  A    between atoms: C_21  and  C_25
REMARK                            x       y       z     vdW  Elec       q    Type
REMARK                         _______ _______ _______ _____ _____    ______ ____
ROOT
ATOM      1  O   UNL     1      -5.365 -13.591  17.842  0.00  0.00    -0.274 OA
ATOM      4  N   UNL     1      -3.796 -10.731  16.206  0.00  0.00    -0.286 NA
ATOM      5  N   UNL     1      -4.163 -13.497  15.915  0.00  0.00    -0.313 N 
ATOM      9  C   UNL     1      -4.364 -11.467  17.341  0.00  0.00    +0.145 C 
ATOM     10  C   UNL     1      -2.838 -11.494  15.414  0.00  0.00    +0.075 C 
ATOM     11  C   UNL     1      -5.712  -9.558  16.680  0.00  0.00    +0.070 C 
ATOM     12  C   UNL     1      -5.638 -10.688  17.707  0.00  0.00    +0.048 C 
ATOM     13  C   UNL     1      -4.909 -10.096  15.503  0.00  0.00    +0.104 C 
ATOM     14  C   UNL     1      -3.473 -12.767  14.876  0.00  0.00    +0.123 C 
ATOM     16  C   UNL     1      -4.693 -12.928  17.047  0.00  0.00    +0.230 C 
ATOM     34  H   UNL     1      -4.370 -14.476  15.741  0.00  0.00    +0.149 HD
ENDROOT
BRANCH  11   6
ATOM      6  N   UNL     1      -7.075  -9.192  16.331  0.00  0.00    -0.308 NA
ATOM     35  H   UNL     1      -7.189  -8.185  16.446  0.00  0.00    +0.123 HD
BRANCH   6  21
ATOM     21  C   UNL     1      -8.036  -9.877  17.188  0.00  0.00    +0.116 C 
BRANCH  21  25
ATOM     25  C   UNL     1      -9.433  -9.352  16.994  0.00  0.00    -0.033 A 
ATOM     26  C   UNL     1     -10.494 -10.241  16.821  0.00  0.00    +0.007 A 
ATOM     27  C   UNL     1      -9.667  -7.977  16.985  0.00  0.00    +0.007 A 
ATOM     28  C   UNL     1     -11.789  -9.755  16.639  0.00  0.00    +0.023 A 
ATOM     29  C   UNL     1     -10.962  -7.491  16.803  0.00  0.00    +0.023 A 
ATOM     31  C   UNL     1     -12.023  -8.379  16.631  0.00  0.00    +0.029 A 
BRANCH  31   8
ATOM      8  N   UNL     1     -13.333  -7.888  16.448  0.00  0.00    -0.336 N 
ATOM     32  C   UNL     1     -14.471  -8.625  16.961  0.00  0.00    +0.129 C 
ATOM     33  C   UNL     1     -13.556  -6.637  15.751  0.00  0.00    +0.129 C 
ENDBRANCH  31   8
ENDBRANCH  21  25
ENDBRANCH   6  21
ENDBRANCH  11   6
BRANCH  10  15
ATOM     15  C   UNL     1      -2.214 -10.673  14.285  0.00  0.00    +0.029 C 
BRANCH  15  17
ATOM     17  C   UNL     1      -2.390 -11.328  12.922  0.00  0.00    +0.097 C 
BRANCH  17  19
ATOM      2  O   UNL     1      -1.714  -9.665  11.359  0.00  0.00    -0.276 OA
ATOM      7  N   UNL     1      -3.977 -10.133  11.491  0.00  0.00    -0.296 N 
ATOM     18  C   UNL     1      -4.414  -9.109  10.539  0.00  0.00    +0.102 C 
ATOM     19  C   UNL     1      -2.649 -10.296  11.854  0.00  0.00    +0.216 C 
ATOM     20  C   UNL     1      -5.922  -9.007  10.784  0.00  0.00    +0.026 C 
ATOM     22  C   UNL     1      -5.116 -10.857  12.050  0.00  0.00    +0.108 C 
ATOM     23  C   UNL     1      -6.306 -10.418  11.212  0.00  0.00    +0.021 C 
BRANCH  18  24
ATOM     24  C   UNL     1      -4.088  -9.507   9.102  0.00  0.00    +0.181 C 
BRANCH  24   3
ATOM      3  O   UNL     1      -5.201  -9.190   8.285  0.00  0.00    -0.381 OA
ATOM     30  C   UNL     1      -5.544 -10.268   7.421  0.00  0.00    +0.194 C 
ENDBRANCH  24   3
ENDBRANCH  18  24
ENDBRANCH  17  19
ENDBRANCH  15  17
ENDBRANCH  10  15
TORSDOF 9
ENDMDL
