MODEL 1
REMARK VINA RESULT:      -7.8      0.000      0.000
REMARK  Name = 40777675
REMARK  11 active torsions:
REMARK  status: ('A' for Active; 'I' for Inactive)
REMARK    1  A    between atoms: O_5  and  C_20
REMARK    2  A    between atoms: N_7  and  C_18
REMARK    3  A    between atoms: N_8  and  C_29
REMARK    4  A    between atoms: C_10  and  C_15
REMARK    5  A    between atoms: C_10  and  C_16
REMARK    6  A    between atoms: C_15  and  C_17
REMARK    7  A    between atoms: C_16  and  C_20
REMARK    8  A    between atoms: C_21  and  C_24
REMARK    9  A    between atoms: C_25  and  C_27
REMARK   10  A    between atoms: C_26  and  C_28
REMARK   11  A    between atoms: C_34  and  C_35
REMARK                            x       y       z     vdW  Elec       q    Type
REMARK                         _______ _______ _______ _____ _____    ______ ____
ROOT
ATOM     18  C   UNL     1     -17.476   3.071  26.089  0.00  0.00    +0.097 C 
ATOM     19  C   UNL     1     -16.572   4.274  25.807  0.00  0.00    +0.039 C 
ATOM     21  C   UNL     1     -15.725   3.889  24.575  0.00  0.00    +0.047 C 
ATOM     22  C   UNL     1     -17.484   2.343  24.787  0.00  0.00    -0.009 C 
ATOM     23  C   UNL     1     -16.536   2.788  23.956  0.00  0.00    -0.021 C 
ENDROOT
BRANCH  21  24
ATOM      8  N   UNL     1     -14.481   6.526  22.357  0.00  0.00    -0.236 N 
ATOM      9  N   UNL     1     -15.767   6.916  22.373  0.00  0.00    -0.171 NA
ATOM     24  C   UNL     1     -15.440   5.056  23.656  0.00  0.00    +0.003 A 
ATOM     25  C   UNL     1     -14.232   5.416  23.110  0.00  0.00    +0.046 A 
ATOM     26  C   UNL     1     -16.347   6.013  23.169  0.00  0.00    +0.064 A 
ATOM     27  C   UNL     1     -12.892   4.808  23.239  0.00  0.00    +0.066 C 
ATOM     28  C   UNL     1     -17.794   6.108  23.437  0.00  0.00    +0.068 C 
BRANCH   8  29
ATOM     29  C   UNL     1     -13.549   7.248  21.610  0.00  0.00    +0.066 A 
ATOM     30  C   UNL     1     -12.582   6.575  20.863  0.00  0.00    +0.028 A 
ATOM     31  C   UNL     1     -13.581   8.642  21.617  0.00  0.00    +0.028 A 
ATOM     32  C   UNL     1     -11.647   7.297  20.120  0.00  0.00    +0.014 A 
ATOM     33  C   UNL     1     -12.646   9.364  20.875  0.00  0.00    +0.014 A 
ATOM     34  C   UNL     1     -11.679   8.692  20.126  0.00  0.00    +0.055 A 
BRANCH  34  35
ATOM      1  F   UNL     1     -10.836  10.818  19.425  0.00  0.00    -0.166 F 
ATOM      2  F   UNL     1     -10.734   9.179  18.000  0.00  0.00    -0.166 F 
ATOM      3  F   UNL     1      -9.386   9.228  19.706  0.00  0.00    -0.166 F 
ATOM     35  C   UNL     1     -10.679   9.463  19.333  0.00  0.00    +0.417 C 
ENDBRANCH  34  35
ENDBRANCH   8  29
ENDBRANCH  21  24
BRANCH  18   7
ATOM      4  O   UNL     1     -18.130   2.969  28.927  0.00  0.00    -0.276 OA
ATOM      7  N   UNL     1     -16.879   2.201  27.125  0.00  0.00    -0.309 N 
ATOM     17  C   UNL     1     -17.265   2.234  28.457  0.00  0.00    +0.214 C 
ATOM     36  H   UNL     1     -16.133   1.573  26.840  0.00  0.00    +0.149 HD
BRANCH  17  15
ATOM     15  C   UNL     1     -16.481   1.232  29.277  0.00  0.00    +0.103 C 
BRANCH  15  10
ATOM     10  C   UNL     1     -15.309   1.885  30.023  0.00  0.00    -0.011 C 
ATOM     11  C   UNL     1     -15.705   2.214  31.480  0.00  0.00    +0.008 C 
ATOM     12  C   UNL     1     -14.957   3.249  29.381  0.00  0.00    +0.008 C 
ATOM     13  C   UNL     1     -15.966   3.714  31.494  0.00  0.00    +0.001 C 
ATOM     14  C   UNL     1     -14.921   4.248  30.531  0.00  0.00    +0.001 C 
BRANCH  10  16
ATOM     16  C   UNL     1     -14.105   0.936  29.995  0.00  0.00    +0.127 C 
BRANCH  16  20
ATOM      6  O   UNL     1     -15.029  -0.714  31.532  0.00  0.00    -0.251 OA
ATOM     20  C   UNL     1     -14.478  -0.434  30.479  0.00  0.00    +0.305 C 
BRANCH  20   5
ATOM      5  O   UNL     1     -14.107  -1.355  29.552  0.00  0.00    -0.481 OA
ATOM     37  H   UNL     1     -14.815  -2.014  29.388  0.00  0.00    +0.295 HD
ENDBRANCH  20   5
ENDBRANCH  16  20
ENDBRANCH  10  16
ENDBRANCH  15  10
ENDBRANCH  17  15
ENDBRANCH  18   7
TORSDOF 9
ENDMDL
MODEL 2
REMARK VINA RESULT:      -7.1     20.780     22.449
REMARK  Name = 40777675
REMARK  11 active torsions:
REMARK  status: ('A' for Active; 'I' for Inactive)
REMARK    1  A    between atoms: O_5  and  C_20
REMARK    2  A    between atoms: N_7  and  C_18
REMARK    3  A    between atoms: N_8  and  C_29
REMARK    4  A    between atoms: C_10  and  C_15
REMARK    5  A    between atoms: C_10  and  C_16
REMARK    6  A    between atoms: C_15  and  C_17
REMARK    7  A    between atoms: C_16  and  C_20
REMARK    8  A    between atoms: C_21  and  C_24
REMARK    9  A    between atoms: C_25  and  C_27
REMARK   10  A    between atoms: C_26  and  C_28
REMARK   11  A    between atoms: C_34  and  C_35
REMARK                            x       y       z     vdW  Elec       q    Type
REMARK                         _______ _______ _______ _____ _____    ______ ____
ROOT
ATOM     18  C   UNL     1      -7.473  -9.962  13.421  0.00  0.00    +0.097 C 
ATOM     19  C   UNL     1      -6.760  -9.150  12.336  0.00  0.00    +0.039 C 
ATOM     21  C   UNL     1      -5.734 -10.107  11.695  0.00  0.00    +0.047 C 
ATOM     22  C   UNL     1      -7.218 -11.373  13.008  0.00  0.00    -0.009 C 
ATOM     23  C   UNL     1      -6.276 -11.458  12.064  0.00  0.00    -0.021 C 
ENDROOT
BRANCH  21  24
ATOM      8  N   UNL     1      -5.858  -9.713   8.055  0.00  0.00    -0.236 N 
ATOM      9  N   UNL     1      -4.564  -9.385   8.213  0.00  0.00    -0.171 NA
ATOM     24  C   UNL     1      -5.553  -9.885  10.211  0.00  0.00    +0.003 A 
ATOM     25  C   UNL     1      -6.495 -10.020   9.222  0.00  0.00    +0.046 A 
ATOM     26  C   UNL     1      -4.384  -9.492   9.533  0.00  0.00    +0.064 A 
ATOM     27  C   UNL     1      -7.919 -10.408   9.290  0.00  0.00    +0.066 C 
ATOM     28  C   UNL     1      -3.058  -9.204  10.108  0.00  0.00    +0.068 C 
BRANCH   8  29
ATOM     29  C   UNL     1      -6.421  -9.713   6.778  0.00  0.00    +0.066 A 
ATOM     30  C   UNL     1      -7.177  -8.623   6.348  0.00  0.00    +0.028 A 
ATOM     31  C   UNL     1      -6.230 -10.807   5.934  0.00  0.00    +0.028 A 
ATOM     32  C   UNL     1      -7.743  -8.626   5.073  0.00  0.00    +0.014 A 
ATOM     33  C   UNL     1      -6.796 -10.810   4.659  0.00  0.00    +0.014 A 
ATOM     34  C   UNL     1      -7.553  -9.719   4.228  0.00  0.00    +0.055 A 
BRANCH  34  35
ATOM      1  F   UNL     1      -7.811 -10.810   2.115  0.00  0.00    -0.166 F 
ATOM      2  F   UNL     1      -7.793  -8.635   2.126  0.00  0.00    -0.166 F 
ATOM      3  F   UNL     1      -9.525  -9.717   2.874  0.00  0.00    -0.166 F 
ATOM     35  C   UNL     1      -8.159  -9.722   2.866  0.00  0.00    +0.417 C 
ENDBRANCH  34  35
ENDBRANCH   8  29
ENDBRANCH  21  24
BRANCH  18   7
ATOM      4  O   UNL     1      -8.401 -10.895  16.022  0.00  0.00    -0.276 OA
ATOM      7  N   UNL     1      -6.852  -9.726  14.742  0.00  0.00    -0.309 N 
ATOM     17  C   UNL     1      -7.380 -10.218  15.927  0.00  0.00    +0.214 C 
ATOM     36  H   UNL     1      -6.013  -9.152  14.773  0.00  0.00    +0.149 HD
BRANCH  17  15
ATOM     15  C   UNL     1      -6.528  -9.817  17.112  0.00  0.00    +0.103 C 
BRANCH  15  10
ATOM     10  C   UNL     1      -5.388 -10.813  17.369  0.00  0.00    -0.011 C 
ATOM     11  C   UNL     1      -4.046 -10.254  16.846  0.00  0.00    +0.008 C 
ATOM     12  C   UNL     1      -5.624 -12.117  16.569  0.00  0.00    +0.008 C 
ATOM     13  C   UNL     1      -3.790 -10.988  15.537  0.00  0.00    +0.001 C 
ATOM     14  C   UNL     1      -4.323 -12.381  15.821  0.00  0.00    +0.001 C 
BRANCH  10  16
ATOM     16  C   UNL     1      -5.302 -11.099  18.873  0.00  0.00    +0.127 C 
BRANCH  16  20
ATOM      6  O   UNL     1      -7.335 -12.343  19.380  0.00  0.00    -0.251 OA
ATOM     20  C   UNL     1      -6.661 -11.328  19.465  0.00  0.00    +0.305 C 
BRANCH  20   5
ATOM      5  O   UNL     1      -7.055 -10.214  20.134  0.00  0.00    -0.481 OA
ATOM     37  H   UNL     1      -7.310  -9.491  19.522  0.00  0.00    +0.295 HD
ENDBRANCH  20   5
ENDBRANCH  16  20
ENDBRANCH  10  16
ENDBRANCH  15  10
ENDBRANCH  17  15
ENDBRANCH  18   7
TORSDOF 9
ENDMDL
MODEL 3
REMARK VINA RESULT:      -7.1     20.623     22.306
REMARK  Name = 40777675
REMARK  11 active torsions:
REMARK  status: ('A' for Active; 'I' for Inactive)
REMARK    1  A    between atoms: O_5  and  C_20
REMARK    2  A    between atoms: N_7  and  C_18
REMARK    3  A    between atoms: N_8  and  C_29
REMARK    4  A    between atoms: C_10  and  C_15
REMARK    5  A    between atoms: C_10  and  C_16
REMARK    6  A    between atoms: C_15  and  C_17
REMARK    7  A    between atoms: C_16  and  C_20
REMARK    8  A    between atoms: C_21  and  C_24
REMARK    9  A    between atoms: C_25  and  C_27
REMARK   10  A    between atoms: C_26  and  C_28
REMARK   11  A    between atoms: C_34  and  C_35
REMARK                            x       y       z     vdW  Elec       q    Type
REMARK                         _______ _______ _______ _____ _____    ______ ____
ROOT
ATOM     18  C   UNL     1      -2.930 -12.627  14.409  0.00  0.00    +0.097 C 
ATOM     19  C   UNL     1      -3.930 -12.137  13.358  0.00  0.00    +0.039 C 
ATOM     21  C   UNL     1      -3.682 -10.621  13.212  0.00  0.00    +0.047 C 
ATOM     22  C   UNL     1      -1.888 -11.559  14.406  0.00  0.00    -0.009 C 
ATOM     23  C   UNL     1      -2.290 -10.466  13.751  0.00  0.00    -0.021 C 
ENDROOT
BRANCH  21  24
ATOM      8  N   UNL     1      -4.704  -9.524   9.869  0.00  0.00    -0.236 N 
ATOM      9  N   UNL     1      -3.394  -9.253   9.739  0.00  0.00    -0.171 NA
ATOM     24  C   UNL     1      -3.871 -10.117  11.799  0.00  0.00    +0.003 A 
ATOM     25  C   UNL     1      -5.042 -10.043  11.085  0.00  0.00    +0.046 A 
ATOM     26  C   UNL     1      -2.891  -9.618  10.922  0.00  0.00    +0.064 A 
ATOM     27  C   UNL     1      -6.424 -10.415  11.452  0.00  0.00    +0.066 C 
ATOM     28  C   UNL     1      -1.446  -9.467  11.171  0.00  0.00    +0.068 C 
BRANCH   8  29
ATOM     29  C   UNL     1      -5.572  -9.267   8.807  0.00  0.00    +0.066 A 
ATOM     30  C   UNL     1      -6.621  -8.361   8.966  0.00  0.00    +0.028 A 
ATOM     31  C   UNL     1      -5.394  -9.922   7.588  0.00  0.00    +0.028 A 
ATOM     32  C   UNL     1      -7.491  -8.108   7.905  0.00  0.00    +0.014 A 
ATOM     33  C   UNL     1      -6.264  -9.669   6.528  0.00  0.00    +0.014 A 
ATOM     34  C   UNL     1      -7.313  -8.761   6.686  0.00  0.00    +0.055 A 
BRANCH  34  35
ATOM      1  F   UNL     1      -7.608  -8.233   4.372  0.00  0.00    -0.166 F 
ATOM      2  F   UNL     1      -9.047  -7.411   5.779  0.00  0.00    -0.166 F 
ATOM      3  F   UNL     1      -9.091  -9.528   5.282  0.00  0.00    -0.166 F 
ATOM     35  C   UNL     1      -8.244  -8.492   5.553  0.00  0.00    +0.417 C 
ENDBRANCH  34  35
ENDBRANCH   8  29
ENDBRANCH  21  24
BRANCH  18   7
ATOM      4  O   UNL     1      -5.107 -14.356  15.283  0.00  0.00    -0.276 OA
ATOM      7  N   UNL     1      -3.561 -12.683  15.745  0.00  0.00    -0.309 N 
ATOM     17  C   UNL     1      -4.599 -13.548  16.057  0.00  0.00    +0.214 C 
ATOM     36  H   UNL     1      -3.227 -12.032  16.451  0.00  0.00    +0.149 HD
BRANCH  17  15
ATOM     15  C   UNL     1      -5.037 -13.378  17.496  0.00  0.00    +0.103 C 
BRANCH  15  10
ATOM     10  C   UNL     1      -5.907 -12.130  17.693  0.00  0.00    -0.011 C 
ATOM     11  C   UNL     1      -5.231 -11.140  18.668  0.00  0.00    +0.008 C 
ATOM     12  C   UNL     1      -7.248 -12.511  18.367  0.00  0.00    +0.008 C 
ATOM     13  C   UNL     1      -5.968 -11.314  19.989  0.00  0.00    +0.001 C 
ATOM     14  C   UNL     1      -7.399 -11.559  19.548  0.00  0.00    +0.001 C 
BRANCH  10  16
ATOM     16  C   UNL     1      -6.146 -11.465  16.332  0.00  0.00    +0.127 C 
BRANCH  16  20
ATOM      6  O   UNL     1      -6.931  -9.188  16.712  0.00  0.00    -0.251 OA
ATOM     20  C   UNL     1      -6.037  -9.971  16.428  0.00  0.00    +0.305 C 
BRANCH  20   5
ATOM      5  O   UNL     1      -4.763  -9.594  16.147  0.00  0.00    -0.481 OA
ATOM     37  H   UNL     1      -4.416 -10.043  15.347  0.00  0.00    +0.295 HD
ENDBRANCH  20   5
ENDBRANCH  16  20
ENDBRANCH  10  16
ENDBRANCH  15  10
ENDBRANCH  17  15
ENDBRANCH  18   7
TORSDOF 9
ENDMDL
MODEL 4
REMARK VINA RESULT:      -7.0     31.010     35.609
REMARK  Name = 40777675
REMARK  11 active torsions:
REMARK  status: ('A' for Active; 'I' for Inactive)
REMARK    1  A    between atoms: O_5  and  C_20
REMARK    2  A    between atoms: N_7  and  C_18
REMARK    3  A    between atoms: N_8  and  C_29
REMARK    4  A    between atoms: C_10  and  C_15
REMARK    5  A    between atoms: C_10  and  C_16
REMARK    6  A    between atoms: C_15  and  C_17
REMARK    7  A    between atoms: C_16  and  C_20
REMARK    8  A    between atoms: C_21  and  C_24
REMARK    9  A    between atoms: C_25  and  C_27
REMARK   10  A    between atoms: C_26  and  C_28
REMARK   11  A    between atoms: C_34  and  C_35
REMARK                            x       y       z     vdW  Elec       q    Type
REMARK                         _______ _______ _______ _____ _____    ______ ____
ROOT
ATOM     18  C   UNL     1      11.529  10.484   6.466  0.00  0.00    +0.097 C 
ATOM     19  C   UNL     1      12.852   9.830   6.874  0.00  0.00    +0.039 C 
ATOM     21  C   UNL     1      13.673   9.690   5.575  0.00  0.00    +0.047 C 
ATOM     22  C   UNL     1      11.859  11.127   5.161  0.00  0.00    -0.009 C 
ATOM     23  C   UNL     1      13.029  10.702   4.673  0.00  0.00    -0.021 C 
ENDROOT
BRANCH  21  24
ATOM      8  N   UNL     1      17.333   9.686   5.746  0.00  0.00    -0.236 N 
ATOM      9  N   UNL     1      17.133  10.781   6.500  0.00  0.00    -0.171 NA
ATOM     24  C   UNL     1      15.159   9.885   5.782  0.00  0.00    +0.003 A 
ATOM     25  C   UNL     1      16.182   9.113   5.291  0.00  0.00    +0.046 A 
ATOM     26  C   UNL     1      15.802  10.897   6.518  0.00  0.00    +0.064 A 
ATOM     27  C   UNL     1      16.159   7.902   4.445  0.00  0.00    +0.066 C 
ATOM     28  C   UNL     1      15.183  12.008   7.262  0.00  0.00    +0.068 C 
BRANCH   8  29
ATOM     29  C   UNL     1      18.634   9.245   5.499  0.00  0.00    +0.066 A 
ATOM     30  C   UNL     1      19.297   8.462   6.444  0.00  0.00    +0.028 A 
ATOM     31  C   UNL     1      19.272   9.591   4.308  0.00  0.00    +0.028 A 
ATOM     32  C   UNL     1      20.598   8.025   6.198  0.00  0.00    +0.014 A 
ATOM     33  C   UNL     1      20.573   9.154   4.062  0.00  0.00    +0.014 A 
ATOM     34  C   UNL     1      21.237   8.370   5.007  0.00  0.00    +0.055 A 
BRANCH  34  35
ATOM      1  F   UNL     1      22.753   6.543   4.718  0.00  0.00    -0.166 F 
ATOM      2  F   UNL     1      23.513   8.332   5.692  0.00  0.00    -0.166 F 
ATOM      3  F   UNL     1      23.134   8.331   3.551  0.00  0.00    -0.166 F 
ATOM     35  C   UNL     1      22.628   7.903   4.745  0.00  0.00    +0.417 C 
ENDBRANCH  34  35
ENDBRANCH   8  29
ENDBRANCH  21  24
BRANCH  18   7
ATOM      4  O   UNL     1       9.804   9.246   8.462  0.00  0.00    -0.276 OA
ATOM      7  N   UNL     1      10.484   9.460   6.251  0.00  0.00    -0.309 N 
ATOM     17  C   UNL     1       9.715   8.934   7.278  0.00  0.00    +0.214 C 
ATOM     36  H   UNL     1      10.351   9.115   5.304  0.00  0.00    +0.149 HD
BRANCH  17  15
ATOM     15  C   UNL     1       8.731   7.910   6.753  0.00  0.00    +0.103 C 
BRANCH  15  10
ATOM     10  C   UNL     1       9.317   6.492   6.750  0.00  0.00    -0.011 C 
ATOM     11  C   UNL     1      10.853   6.535   6.588  0.00  0.00    +0.008 C 
ATOM     12  C   UNL     1       8.803   5.701   5.523  0.00  0.00    +0.008 C 
ATOM     13  C   UNL     1      11.112   6.163   5.135  0.00  0.00    +0.001 C 
ATOM     14  C   UNL     1      10.044   5.121   4.857  0.00  0.00    +0.001 C 
BRANCH  10  16
ATOM     16  C   UNL     1       8.935   5.788   8.058  0.00  0.00    +0.127 C 
BRANCH  16  20
ATOM      6  O   UNL     1      10.897   5.451   9.465  0.00  0.00    -0.251 OA
ATOM     20  C   UNL     1      10.100   5.040   8.636  0.00  0.00    +0.305 C 
BRANCH  20   5
ATOM      5  O   UNL     1      10.150   3.796   8.093  0.00  0.00    -0.481 OA
ATOM     37  H   UNL     1      10.841   3.727   7.400  0.00  0.00    +0.295 HD
ENDBRANCH  20   5
ENDBRANCH  16  20
ENDBRANCH  10  16
ENDBRANCH  15  10
ENDBRANCH  17  15
ENDBRANCH  18   7
TORSDOF 9
ENDMDL
MODEL 5
REMARK VINA RESULT:      -7.0     22.613     25.405
REMARK  Name = 40777675
REMARK  11 active torsions:
REMARK  status: ('A' for Active; 'I' for Inactive)
REMARK    1  A    between atoms: O_5  and  C_20
REMARK    2  A    between atoms: N_7  and  C_18
REMARK    3  A    between atoms: N_8  and  C_29
REMARK    4  A    between atoms: C_10  and  C_15
REMARK    5  A    between atoms: C_10  and  C_16
REMARK    6  A    between atoms: C_15  and  C_17
REMARK    7  A    between atoms: C_16  and  C_20
REMARK    8  A    between atoms: C_21  and  C_24
REMARK    9  A    between atoms: C_25  and  C_27
REMARK   10  A    between atoms: C_26  and  C_28
REMARK   11  A    between atoms: C_34  and  C_35
REMARK                            x       y       z     vdW  Elec       q    Type
REMARK                         _______ _______ _______ _____ _____    ______ ____
ROOT
ATOM     18  C   UNL     1      -6.112 -10.081   8.946  0.00  0.00    +0.097 C 
ATOM     19  C   UNL     1      -5.318 -10.903   9.965  0.00  0.00    +0.039 C 
ATOM     21  C   UNL     1      -4.217  -9.965  10.501  0.00  0.00    +0.047 C 
ATOM     22  C   UNL     1      -5.791  -8.674   9.325  0.00  0.00    -0.009 C 
ATOM     23  C   UNL     1      -4.763  -8.605  10.177  0.00  0.00    -0.021 C 
ENDROOT
BRANCH  21  24
ATOM      8  N   UNL     1      -4.033 -10.512  14.119  0.00  0.00    -0.236 N 
ATOM      9  N   UNL     1      -2.709 -10.474  13.890  0.00  0.00    -0.171 NA
ATOM     24  C   UNL     1      -3.902 -10.185  11.964  0.00  0.00    +0.003 A 
ATOM     25  C   UNL     1      -4.792 -10.344  12.998  0.00  0.00    +0.046 A 
ATOM     26  C   UNL     1      -2.636 -10.274  12.571  0.00  0.00    +0.064 A 
ATOM     27  C   UNL     1      -6.269 -10.350  13.010  0.00  0.00    +0.066 C 
ATOM     28  C   UNL     1      -1.314 -10.175  11.927  0.00  0.00    +0.068 C 
BRANCH   8  29
ATOM     29  C   UNL     1      -4.505 -10.710  15.417  0.00  0.00    +0.066 A 
ATOM     30  C   UNL     1      -4.101 -11.829  16.145  0.00  0.00    +0.028 A 
ATOM     31  C   UNL     1      -5.387  -9.790  15.985  0.00  0.00    +0.028 A 
ATOM     32  C   UNL     1      -4.577 -12.029  17.441  0.00  0.00    +0.014 A 
ATOM     33  C   UNL     1      -5.863  -9.989  17.281  0.00  0.00    +0.014 A 
ATOM     34  C   UNL     1      -5.457 -11.109  18.009  0.00  0.00    +0.055 A 
BRANCH  34  35
ATOM      1  F   UNL     1      -6.953 -12.266  19.475  0.00  0.00    -0.166 F 
ATOM      2  F   UNL     1      -6.499 -10.190  19.939  0.00  0.00    -0.166 F 
ATOM      3  F   UNL     1      -5.007 -11.736  20.273  0.00  0.00    -0.166 F 
ATOM     35  C   UNL     1      -5.967 -11.323  19.394  0.00  0.00    +0.417 C 
ENDBRANCH  34  35
ENDBRANCH   8  29
ENDBRANCH  21  24
BRANCH  18   7
ATOM      4  O   UNL     1      -7.475 -11.504   6.799  0.00  0.00    -0.276 OA
ATOM      7  N   UNL     1      -5.622 -10.335   7.574  0.00  0.00    -0.309 N 
ATOM     17  C   UNL     1      -6.355 -11.029   6.623  0.00  0.00    +0.214 C 
ATOM     36  H   UNL     1      -4.691 -10.003   7.337  0.00  0.00    +0.149 HD
BRANCH  17  15
ATOM     15  C   UNL     1      -5.599 -11.129   5.316  0.00  0.00    +0.103 C 
BRANCH  15  10
ATOM     10  C   UNL     1      -4.873 -12.474   5.169  0.00  0.00    -0.011 C 
ATOM     11  C   UNL     1      -3.346 -12.263   5.067  0.00  0.00    +0.008 C 
ATOM     12  C   UNL     1      -5.277 -13.159   3.841  0.00  0.00    +0.008 C 
ATOM     13  C   UNL     1      -3.016 -12.432   3.591  0.00  0.00    +0.001 C 
ATOM     14  C   UNL     1      -3.968 -13.532   3.156  0.00  0.00    +0.001 C 
BRANCH  10  16
ATOM     16  C   UNL     1      -5.213 -13.362   6.371  0.00  0.00    +0.127 C 
BRANCH  16  20
ATOM      6  O   UNL     1      -3.368 -14.953   6.452  0.00  0.00    -0.251 OA
ATOM     20  C   UNL     1      -3.985 -14.015   6.933  0.00  0.00    +0.305 C 
BRANCH  20   5
ATOM      5  O   UNL     1      -3.637 -13.398   8.092  0.00  0.00    -0.481 OA
ATOM     37  H   UNL     1      -4.314 -12.748   8.378  0.00  0.00    +0.295 HD
ENDBRANCH  20   5
ENDBRANCH  16  20
ENDBRANCH  10  16
ENDBRANCH  15  10
ENDBRANCH  17  15
ENDBRANCH  18   7
TORSDOF 9
ENDMDL
MODEL 6
REMARK VINA RESULT:      -7.0     21.647     24.551
REMARK  Name = 40777675
REMARK  11 active torsions:
REMARK  status: ('A' for Active; 'I' for Inactive)
REMARK    1  A    between atoms: O_5  and  C_20
REMARK    2  A    between atoms: N_7  and  C_18
REMARK    3  A    between atoms: N_8  and  C_29
REMARK    4  A    between atoms: C_10  and  C_15
REMARK    5  A    between atoms: C_10  and  C_16
REMARK    6  A    between atoms: C_15  and  C_17
REMARK    7  A    between atoms: C_16  and  C_20
REMARK    8  A    between atoms: C_21  and  C_24
REMARK    9  A    between atoms: C_25  and  C_27
REMARK   10  A    between atoms: C_26  and  C_28
REMARK   11  A    between atoms: C_34  and  C_35
REMARK                            x       y       z     vdW  Elec       q    Type
REMARK                         _______ _______ _______ _____ _____    ______ ____
ROOT
ATOM     18  C   UNL     1      -5.289 -10.261   7.910  0.00  0.00    +0.097 C 
ATOM     19  C   UNL     1      -4.699  -9.633   9.176  0.00  0.00    +0.039 C 
ATOM     21  C   UNL     1      -5.745  -9.860  10.288  0.00  0.00    +0.047 C 
ATOM     22  C   UNL     1      -6.307 -11.210   8.447  0.00  0.00    -0.009 C 
ATOM     23  C   UNL     1      -6.556 -11.000   9.744  0.00  0.00    -0.021 C 
ENDROOT
BRANCH  21  24
ATOM      8  N   UNL     1      -4.805 -10.504  13.770  0.00  0.00    -0.236 N 
ATOM      9  N   UNL     1      -3.559 -10.438  13.271  0.00  0.00    -0.171 NA
ATOM     24  C   UNL     1      -5.130 -10.116  11.646  0.00  0.00    +0.003 A 
ATOM     25  C   UNL     1      -5.783 -10.317  12.837  0.00  0.00    +0.046 A 
ATOM     26  C   UNL     1      -3.764 -10.200  11.973  0.00  0.00    +0.064 A 
ATOM     27  C   UNL     1      -7.225 -10.348  13.156  0.00  0.00    +0.066 C 
ATOM     28  C   UNL     1      -2.607 -10.062  11.071  0.00  0.00    +0.068 C 
BRANCH   8  29
ATOM     29  C   UNL     1      -4.994 -10.746  15.132  0.00  0.00    +0.066 A 
ATOM     30  C   UNL     1      -4.770 -12.020  15.652  0.00  0.00    +0.028 A 
ATOM     31  C   UNL     1      -5.412  -9.712  15.970  0.00  0.00    +0.028 A 
ATOM     32  C   UNL     1      -4.963 -12.262  17.012  0.00  0.00    +0.014 A 
ATOM     33  C   UNL     1      -5.605  -9.954  17.331  0.00  0.00    +0.014 A 
ATOM     34  C   UNL     1      -5.380 -11.229  17.852  0.00  0.00    +0.055 A 
BRANCH  34  35
ATOM      1  F   UNL     1      -6.055 -10.404  19.993  0.00  0.00    -0.166 F 
ATOM      2  F   UNL     1      -4.439 -11.857  19.943  0.00  0.00    -0.166 F 
ATOM      3  F   UNL     1      -6.485 -12.486  19.562  0.00  0.00    -0.166 F 
ATOM     35  C   UNL     1      -5.588 -11.488  19.305  0.00  0.00    +0.417 C 
ENDBRANCH  34  35
ENDBRANCH   8  29
ENDBRANCH  21  24
BRANCH  18   7
ATOM      4  O   UNL     1      -6.193 -10.500   5.150  0.00  0.00    -0.276 OA
ATOM      7  N   UNL     1      -5.969  -9.237   7.088  0.00  0.00    -0.309 N 
ATOM     17  C   UNL     1      -6.359  -9.456   5.775  0.00  0.00    +0.214 C 
ATOM     36  H   UNL     1      -6.129  -8.326   7.508  0.00  0.00    +0.149 HD
BRANCH  17  15
ATOM     15  C   UNL     1      -7.030  -8.230   5.194  0.00  0.00    +0.103 C 
BRANCH  15  10
ATOM     10  C   UNL     1      -8.558  -8.290   5.323  0.00  0.00    -0.011 C 
ATOM     11  C   UNL     1      -9.055  -7.302   6.402  0.00  0.00    +0.008 C 
ATOM     12  C   UNL     1      -9.001  -9.689   5.820  0.00  0.00    +0.008 C 
ATOM     13  C   UNL     1      -9.366  -8.162   7.619  0.00  0.00    +0.001 C 
ATOM     14  C   UNL     1      -9.926  -9.431   7.003  0.00  0.00    +0.001 C 
BRANCH  10  16
ATOM     16  C   UNL     1      -9.190  -7.965   3.965  0.00  0.00    +0.127 C 
BRANCH  16  20
ATOM      6  O   UNL     1      -7.787  -9.137   2.354  0.00  0.00    -0.251 OA
ATOM     20  C   UNL     1      -8.193  -8.099   2.852  0.00  0.00    +0.305 C 
BRANCH  20   5
ATOM      5  O   UNL     1      -7.788  -6.864   2.459  0.00  0.00    -0.481 OA
ATOM     37  H   UNL     1      -7.859  -6.207   3.184  0.00  0.00    +0.295 HD
ENDBRANCH  20   5
ENDBRANCH  16  20
ENDBRANCH  10  16
ENDBRANCH  15  10
ENDBRANCH  17  15
ENDBRANCH  18   7
TORSDOF 9
ENDMDL
MODEL 7
REMARK VINA RESULT:      -7.0     21.158     24.051
REMARK  Name = 40777675
REMARK  11 active torsions:
REMARK  status: ('A' for Active; 'I' for Inactive)
REMARK    1  A    between atoms: O_5  and  C_20
REMARK    2  A    between atoms: N_7  and  C_18
REMARK    3  A    between atoms: N_8  and  C_29
REMARK    4  A    between atoms: C_10  and  C_15
REMARK    5  A    between atoms: C_10  and  C_16
REMARK    6  A    between atoms: C_15  and  C_17
REMARK    7  A    between atoms: C_16  and  C_20
REMARK    8  A    between atoms: C_21  and  C_24
REMARK    9  A    between atoms: C_25  and  C_27
REMARK   10  A    between atoms: C_26  and  C_28
REMARK   11  A    between atoms: C_34  and  C_35
REMARK                            x       y       z     vdW  Elec       q    Type
REMARK                         _______ _______ _______ _____ _____    ______ ____
ROOT
ATOM     18  C   UNL     1      -5.002 -10.069   7.923  0.00  0.00    +0.097 C 
ATOM     19  C   UNL     1      -4.620  -9.424   9.258  0.00  0.00    +0.039 C 
ATOM     21  C   UNL     1      -5.630  -9.962  10.293  0.00  0.00    +0.047 C 
ATOM     22  C   UNL     1      -5.799 -11.260   8.339  0.00  0.00    -0.009 C 
ATOM     23  C   UNL     1      -6.139 -11.210   9.631  0.00  0.00    -0.021 C 
ENDROOT
BRANCH  21  24
ATOM      8  N   UNL     1      -4.720 -10.524  13.797  0.00  0.00    -0.236 N 
ATOM      9  N   UNL     1      -3.470 -10.419  13.316  0.00  0.00    -0.171 NA
ATOM     24  C   UNL     1      -5.027 -10.177  11.663  0.00  0.00    +0.003 A 
ATOM     25  C   UNL     1      -5.690 -10.387  12.847  0.00  0.00    +0.046 A 
ATOM     26  C   UNL     1      -3.664 -10.207  12.011  0.00  0.00    +0.064 A 
ATOM     27  C   UNL     1      -7.134 -10.466  13.146  0.00  0.00    +0.066 C 
ATOM     28  C   UNL     1      -2.500 -10.038  11.124  0.00  0.00    +0.068 C 
BRANCH   8  29
ATOM     29  C   UNL     1      -4.920 -10.755  15.159  0.00  0.00    +0.066 A 
ATOM     30  C   UNL     1      -5.470  -9.756  15.962  0.00  0.00    +0.028 A 
ATOM     31  C   UNL     1      -4.566 -11.983  15.716  0.00  0.00    +0.028 A 
ATOM     32  C   UNL     1      -5.666  -9.985  17.324  0.00  0.00    +0.014 A 
ATOM     33  C   UNL     1      -4.761 -12.212  17.078  0.00  0.00    +0.014 A 
ATOM     34  C   UNL     1      -5.312 -11.213  17.883  0.00  0.00    +0.055 A 
BRANCH  34  35
ATOM      1  F   UNL     1      -4.391 -11.865  19.992  0.00  0.00    -0.166 F 
ATOM      2  F   UNL     1      -6.451 -12.426  19.581  0.00  0.00    -0.166 F 
ATOM      3  F   UNL     1      -5.950 -10.356  20.023  0.00  0.00    -0.166 F 
ATOM     35  C   UNL     1      -5.520 -11.458  19.339  0.00  0.00    +0.417 C 
ENDBRANCH  34  35
ENDBRANCH   8  29
ENDBRANCH  21  24
BRANCH  18   7
ATOM      4  O   UNL     1      -6.226 -10.582   5.328  0.00  0.00    -0.276 OA
ATOM      7  N   UNL     1      -5.864  -9.164   7.133  0.00  0.00    -0.309 N 
ATOM     17  C   UNL     1      -6.398  -9.509   5.900  0.00  0.00    +0.214 C 
ATOM     36  H   UNL     1      -6.045  -8.237   7.510  0.00  0.00    +0.149 HD
BRANCH  17  15
ATOM     15  C   UNL     1      -7.237  -8.383   5.334  0.00  0.00    +0.103 C 
BRANCH  15  10
ATOM     10  C   UNL     1      -8.626  -8.315   5.983  0.00  0.00    -0.011 C 
ATOM     11  C   UNL     1      -8.794  -9.433   7.035  0.00  0.00    +0.008 C 
ATOM     12  C   UNL     1      -9.726  -8.583   4.926  0.00  0.00    +0.008 C 
ATOM     13  C   UNL     1      -9.655 -10.492   6.359  0.00  0.00    +0.001 C 
ATOM     14  C   UNL     1     -10.617  -9.664   5.526  0.00  0.00    +0.001 C 
BRANCH  10  16
ATOM     16  C   UNL     1      -8.810  -6.937   6.630  0.00  0.00    +0.127 C 
BRANCH  16  20
ATOM      6  O   UNL     1      -9.205  -7.155   9.025  0.00  0.00    -0.251 OA
ATOM     20  C   UNL     1      -8.448  -6.964   8.086  0.00  0.00    +0.305 C 
BRANCH  20   5
ATOM      5  O   UNL     1      -7.116  -6.741   8.222  0.00  0.00    -0.481 OA
ATOM     37  H   UNL     1      -6.581  -7.449   7.803  0.00  0.00    +0.295 HD
ENDBRANCH  20   5
ENDBRANCH  16  20
ENDBRANCH  10  16
ENDBRANCH  15  10
ENDBRANCH  17  15
ENDBRANCH  18   7
TORSDOF 9
ENDMDL
MODEL 8
REMARK VINA RESULT:      -6.9     22.520     25.316
REMARK  Name = 40777675
REMARK  11 active torsions:
REMARK  status: ('A' for Active; 'I' for Inactive)
REMARK    1  A    between atoms: O_5  and  C_20
REMARK    2  A    between atoms: N_7  and  C_18
REMARK    3  A    between atoms: N_8  and  C_29
REMARK    4  A    between atoms: C_10  and  C_15
REMARK    5  A    between atoms: C_10  and  C_16
REMARK    6  A    between atoms: C_15  and  C_17
REMARK    7  A    between atoms: C_16  and  C_20
REMARK    8  A    between atoms: C_21  and  C_24
REMARK    9  A    between atoms: C_25  and  C_27
REMARK   10  A    between atoms: C_26  and  C_28
REMARK   11  A    between atoms: C_34  and  C_35
REMARK                            x       y       z     vdW  Elec       q    Type
REMARK                         _______ _______ _______ _____ _____    ______ ____
ROOT
ATOM     18  C   UNL     1      -6.347  -9.710   9.125  0.00  0.00    +0.097 C 
ATOM     19  C   UNL     1      -5.707 -10.693  10.110  0.00  0.00    +0.039 C 
ATOM     21  C   UNL     1      -4.504  -9.951  10.728  0.00  0.00    +0.047 C 
ATOM     22  C   UNL     1      -5.846  -8.386   9.596  0.00  0.00    -0.009 C 
ATOM     23  C   UNL     1      -4.845  -8.511  10.474  0.00  0.00    -0.021 C 
ENDROOT
BRANCH  21  24
ATOM      8  N   UNL     1      -4.511 -10.722  14.310  0.00  0.00    -0.236 N 
ATOM      9  N   UNL     1      -3.189 -10.862  14.113  0.00  0.00    -0.171 NA
ATOM     24  C   UNL     1      -4.269 -10.297  12.181  0.00  0.00    +0.003 A 
ATOM     25  C   UNL     1      -5.203 -10.384  13.183  0.00  0.00    +0.046 A 
ATOM     26  C   UNL     1      -3.048 -10.600  12.810  0.00  0.00    +0.064 A 
ATOM     27  C   UNL     1      -6.666 -10.179  13.162  0.00  0.00    +0.066 C 
ATOM     28  C   UNL     1      -1.706 -10.655  12.203  0.00  0.00    +0.068 C 
BRANCH   8  29
ATOM     29  C   UNL     1      -5.047 -10.924  15.582  0.00  0.00    +0.066 A 
ATOM     30  C   UNL     1      -5.089  -9.871  16.497  0.00  0.00    +0.028 A 
ATOM     31  C   UNL     1      -5.534 -12.180  15.941  0.00  0.00    +0.028 A 
ATOM     32  C   UNL     1      -5.620 -10.075  17.770  0.00  0.00    +0.014 A 
ATOM     33  C   UNL     1      -6.065 -12.384  17.215  0.00  0.00    +0.014 A 
ATOM     34  C   UNL     1      -6.109 -11.331  18.130  0.00  0.00    +0.055 A 
BRANCH  34  35
ATOM      1  F   UNL     1      -7.718 -10.717  19.790  0.00  0.00    -0.166 F 
ATOM      2  F   UNL     1      -5.756 -11.349  20.481  0.00  0.00    -0.166 F 
ATOM      3  F   UNL     1      -7.158 -12.811  19.689  0.00  0.00    -0.166 F 
ATOM     35  C   UNL     1      -6.675 -11.548  19.492  0.00  0.00    +0.417 C 
ENDBRANCH  34  35
ENDBRANCH   8  29
ENDBRANCH  21  24
BRANCH  18   7
ATOM      4  O   UNL     1      -7.734 -11.052   6.941  0.00  0.00    -0.276 OA
ATOM      7  N   UNL     1      -5.854  -9.952   7.752  0.00  0.00    -0.309 N 
ATOM     17  C   UNL     1      -6.600 -10.606   6.783  0.00  0.00    +0.214 C 
ATOM     36  H   UNL     1      -4.912  -9.643   7.528  0.00  0.00    +0.149 HD
BRANCH  17  15
ATOM     15  C   UNL     1      -5.837 -10.703   5.480  0.00  0.00    +0.103 C 
BRANCH  15  10
ATOM     10  C   UNL     1      -5.342 -12.129   5.203  0.00  0.00    -0.011 C 
ATOM     11  C   UNL     1      -5.244 -12.938   6.516  0.00  0.00    +0.008 C 
ATOM     12  C   UNL     1      -3.901 -12.097   4.639  0.00  0.00    +0.008 C 
ATOM     13  C   UNL     1      -3.761 -12.969   6.857  0.00  0.00    +0.001 C 
ATOM     14  C   UNL     1      -3.103 -13.074   5.493  0.00  0.00    +0.001 C 
BRANCH  10  16
ATOM     16  C   UNL     1      -6.302 -12.813   4.222  0.00  0.00    +0.127 C 
BRANCH  16  20
ATOM      6  O   UNL     1      -5.416 -12.681   1.955  0.00  0.00    -0.251 OA
ATOM     20  C   UNL     1      -6.150 -12.260   2.835  0.00  0.00    +0.305 C 
BRANCH  20   5
ATOM      5  O   UNL     1      -6.970 -11.188   2.685  0.00  0.00    -0.481 OA
ATOM     37  H   UNL     1      -6.967 -10.851   1.764  0.00  0.00    +0.295 HD
ENDBRANCH  20   5
ENDBRANCH  16  20
ENDBRANCH  10  16
ENDBRANCH  15  10
ENDBRANCH  17  15
ENDBRANCH  18   7
TORSDOF 9
ENDMDL
MODEL 9
REMARK VINA RESULT:      -6.9     20.871     22.477
REMARK  Name = 40777675
REMARK  11 active torsions:
REMARK  status: ('A' for Active; 'I' for Inactive)
REMARK    1  A    between atoms: O_5  and  C_20
REMARK    2  A    between atoms: N_7  and  C_18
REMARK    3  A    between atoms: N_8  and  C_29
REMARK    4  A    between atoms: C_10  and  C_15
REMARK    5  A    between atoms: C_10  and  C_16
REMARK    6  A    between atoms: C_15  and  C_17
REMARK    7  A    between atoms: C_16  and  C_20
REMARK    8  A    between atoms: C_21  and  C_24
REMARK    9  A    between atoms: C_25  and  C_27
REMARK   10  A    between atoms: C_26  and  C_28
REMARK   11  A    between atoms: C_34  and  C_35
REMARK                            x       y       z     vdW  Elec       q    Type
REMARK                         _______ _______ _______ _____ _____    ______ ____
ROOT
ATOM     18  C   UNL     1      -7.768  -9.901  13.283  0.00  0.00    +0.097 C 
ATOM     19  C   UNL     1      -7.062  -9.085  12.196  0.00  0.00    +0.039 C 
ATOM     21  C   UNL     1      -5.975 -10.009  11.610  0.00  0.00    +0.047 C 
ATOM     22  C   UNL     1      -7.437 -11.309  12.916  0.00  0.00    -0.009 C 
ATOM     23  C   UNL     1      -6.465 -11.374  12.000  0.00  0.00    -0.021 C 
ENDROOT
BRANCH  21  24
ATOM      8  N   UNL     1      -6.028  -9.660   7.963  0.00  0.00    -0.236 N 
ATOM      9  N   UNL     1      -4.721  -9.397   8.136  0.00  0.00    -0.171 NA
ATOM     24  C   UNL     1      -5.762  -9.817  10.126  0.00  0.00    +0.003 A 
ATOM     25  C   UNL     1      -6.696  -9.919   9.125  0.00  0.00    +0.046 A 
ATOM     26  C   UNL     1      -4.566  -9.494   9.459  0.00  0.00    +0.064 A 
ATOM     27  C   UNL     1      -8.139 -10.233   9.177  0.00  0.00    +0.066 C 
ATOM     28  C   UNL     1      -3.235  -9.265  10.050  0.00  0.00    +0.068 C 
BRANCH   8  29
ATOM     29  C   UNL     1      -6.572  -9.650   6.678  0.00  0.00    +0.066 A 
ATOM     30  C   UNL     1      -6.326 -10.711   5.807  0.00  0.00    +0.028 A 
ATOM     31  C   UNL     1      -7.358  -8.574   6.264  0.00  0.00    +0.028 A 
ATOM     32  C   UNL     1      -6.867 -10.697   4.521  0.00  0.00    +0.014 A 
ATOM     33  C   UNL     1      -7.898  -8.560   4.978  0.00  0.00    +0.014 A 
ATOM     34  C   UNL     1      -7.653  -9.622   4.107  0.00  0.00    +0.055 A 
BRANCH  34  35
ATOM      1  F   UNL     1      -7.810  -8.551   1.974  0.00  0.00    -0.166 F 
ATOM      2  F   UNL     1      -9.592  -9.536   2.735  0.00  0.00    -0.166 F 
ATOM      3  F   UNL     1      -7.922 -10.717   1.997  0.00  0.00    -0.166 F 
ATOM     35  C   UNL     1      -8.230  -9.607   2.732  0.00  0.00    +0.417 C 
ENDBRANCH  34  35
ENDBRANCH   8  29
ENDBRANCH  21  24
BRANCH  18   7
ATOM      4  O   UNL     1      -8.958 -10.415  15.894  0.00  0.00    -0.276 OA
ATOM      7  N   UNL     1      -7.196  -9.602  14.614  0.00  0.00    -0.309 N 
ATOM     17  C   UNL     1      -7.851  -9.889  15.802  0.00  0.00    +0.214 C 
ATOM     36  H   UNL     1      -6.291  -9.141  14.645  0.00  0.00    +0.149 HD
BRANCH  17  15
ATOM     15  C   UNL     1      -7.022  -9.472  16.997  0.00  0.00    +0.103 C 
BRANCH  15  10
ATOM     10  C   UNL     1      -6.018 -10.557  17.412  0.00  0.00    -0.011 C 
ATOM     11  C   UNL     1      -6.372 -11.909  16.755  0.00  0.00    +0.008 C 
ATOM     12  C   UNL     1      -6.104 -10.813  18.937  0.00  0.00    +0.008 C 
ATOM     13  C   UNL     1      -7.031 -12.729  17.855  0.00  0.00    +0.001 C 
ATOM     14  C   UNL     1      -6.253 -12.322  19.093  0.00  0.00    +0.001 C 
BRANCH  10  16
ATOM     16  C   UNL     1      -4.606 -10.116  17.008  0.00  0.00    +0.127 C 
BRANCH  16  20
ATOM      6  O   UNL     1      -4.343 -10.676  14.651  0.00  0.00    -0.251 OA
ATOM     20  C   UNL     1      -4.107 -10.897  15.828  0.00  0.00    +0.305 C 
BRANCH  20   5
ATOM      5  O   UNL     1      -3.328 -11.921  16.263  0.00  0.00    -0.481 OA
ATOM     37  H   UNL     1      -3.721 -12.377  17.038  0.00  0.00    +0.295 HD
ENDBRANCH  20   5
ENDBRANCH  16  20
ENDBRANCH  10  16
ENDBRANCH  15  10
ENDBRANCH  17  15
ENDBRANCH  18   7
TORSDOF 9
ENDMDL
MODEL 10
REMARK VINA RESULT:      -6.9     21.216     23.067
REMARK  Name = 40777675
REMARK  11 active torsions:
REMARK  status: ('A' for Active; 'I' for Inactive)
REMARK    1  A    between atoms: O_5  and  C_20
REMARK    2  A    between atoms: N_7  and  C_18
REMARK    3  A    between atoms: N_8  and  C_29
REMARK    4  A    between atoms: C_10  and  C_15
REMARK    5  A    between atoms: C_10  and  C_16
REMARK    6  A    between atoms: C_15  and  C_17
REMARK    7  A    between atoms: C_16  and  C_20
REMARK    8  A    between atoms: C_21  and  C_24
REMARK    9  A    between atoms: C_25  and  C_27
REMARK   10  A    between atoms: C_26  and  C_28
REMARK   11  A    between atoms: C_34  and  C_35
REMARK                            x       y       z     vdW  Elec       q    Type
REMARK                         _______ _______ _______ _____ _____    ______ ____
ROOT
ATOM     18  C   UNL     1      -2.840 -11.162  12.279  0.00  0.00    +0.097 C 
ATOM     19  C   UNL     1      -4.196 -11.258  11.574  0.00  0.00    +0.039 C 
ATOM     21  C   UNL     1      -4.341  -9.958  10.755  0.00  0.00    +0.047 C 
ATOM     22  C   UNL     1      -2.107 -10.150  11.463  0.00  0.00    -0.009 C 
ATOM     23  C   UNL     1      -2.918  -9.495  10.627  0.00  0.00    -0.021 C 
ENDROOT
BRANCH  21  24
ATOM      8  N   UNL     1      -6.333  -9.924   7.680  0.00  0.00    -0.236 N 
ATOM      9  N   UNL     1      -5.725 -11.104   7.471  0.00  0.00    -0.171 NA
ATOM     24  C   UNL     1      -5.060 -10.156   9.439  0.00  0.00    +0.003 A 
ATOM     25  C   UNL     1      -5.969  -9.315   8.846  0.00  0.00    +0.046 A 
ATOM     26  C   UNL     1      -4.949 -11.240   8.549  0.00  0.00    +0.064 A 
ATOM     27  C   UNL     1      -6.508  -8.011   9.283  0.00  0.00    +0.066 C 
ATOM     28  C   UNL     1      -4.104 -12.440   8.686  0.00  0.00    +0.068 C 
BRANCH   8  29
ATOM     29  C   UNL     1      -7.242  -9.437   6.740  0.00  0.00    +0.066 A 
ATOM     30  C   UNL     1      -6.781  -8.807   5.584  0.00  0.00    +0.028 A 
ATOM     31  C   UNL     1      -8.612  -9.576   6.959  0.00  0.00    +0.028 A 
ATOM     32  C   UNL     1      -7.690  -8.316   4.647  0.00  0.00    +0.014 A 
ATOM     33  C   UNL     1      -9.522  -9.085   6.022  0.00  0.00    +0.014 A 
ATOM     34  C   UNL     1      -9.060  -8.456   4.865  0.00  0.00    +0.055 A 
BRANCH  34  35
ATOM      1  F   UNL     1     -11.117  -8.739   3.677  0.00  0.00    -0.166 F 
ATOM      2  F   UNL     1      -9.477  -7.773   2.627  0.00  0.00    -0.166 F 
ATOM      3  F   UNL     1     -10.550  -6.709   4.191  0.00  0.00    -0.166 F 
ATOM     35  C   UNL     1     -10.032  -7.930   3.864  0.00  0.00    +0.417 C 
ENDBRANCH  34  35
ENDBRANCH   8  29
ENDBRANCH  21  24
BRANCH  18   7
ATOM      4  O   UNL     1      -2.183 -12.510  14.778  0.00  0.00    -0.276 OA
ATOM      7  N   UNL     1      -3.002 -10.647  13.655  0.00  0.00    -0.309 N 
ATOM     17  C   UNL     1      -2.656 -11.376  14.783  0.00  0.00    +0.214 C 
ATOM     36  H   UNL     1      -3.412  -9.723  13.768  0.00  0.00    +0.149 HD
BRANCH  17  15
ATOM     15  C   UNL     1      -2.933 -10.591  16.047  0.00  0.00    +0.103 C 
BRANCH  15  10
ATOM     10  C   UNL     1      -4.275 -10.976  16.686  0.00  0.00    -0.011 C 
ATOM     11  C   UNL     1      -5.034 -11.986  15.797  0.00  0.00    +0.008 C 
ATOM     12  C   UNL     1      -5.202  -9.740  16.776  0.00  0.00    +0.008 C 
ATOM     13  C   UNL     1      -6.112 -11.172  15.097  0.00  0.00    +0.001 C 
ATOM     14  C   UNL     1      -6.527 -10.173  16.162  0.00  0.00    +0.001 C 
BRANCH  10  16
ATOM     16  C   UNL     1      -4.016 -11.572  18.075  0.00  0.00    +0.127 C 
BRANCH  16  20
ATOM      6  O   UNL     1      -6.139 -12.574  18.730  0.00  0.00    -0.251 OA
ATOM     20  C   UNL     1      -4.974 -12.685  18.379  0.00  0.00    +0.305 C 
BRANCH  20   5
ATOM      5  O   UNL     1      -4.349 -13.878  18.202  0.00  0.00    -0.481 OA
ATOM     37  H   UNL     1      -4.344 -14.152  17.261  0.00  0.00    +0.295 HD
ENDBRANCH  20   5
ENDBRANCH  16  20
ENDBRANCH  10  16
ENDBRANCH  15  10
ENDBRANCH  17  15
ENDBRANCH  18   7
TORSDOF 9
ENDMDL
