REMARK  Name = 45361614
REMARK  9 active torsions:
REMARK  status: ('A' for Active; 'I' for Inactive)
REMARK    1  A    between atoms: O_1  and  C_10
REMARK    2  A    between atoms: N_4  and  C_14
REMARK    3  A    between atoms: C_7  and  C_17
REMARK    4  A    between atoms: C_9  and  C_19
REMARK    5  A    between atoms: C_12  and  C_18
REMARK    6  A    between atoms: C_18  and  C_20
REMARK    7  A    between atoms: C_18  and  C_21
REMARK    8  A    between atoms: C_22  and  C_28
REMARK    9  A    between atoms: C_27  and  C_29
REMARK                            x       y       z     vdW  Elec       q    Type
REMARK                         _______ _______ _______ _____ _____    ______ ____
ROOT
ATOM      7  C   UNL     1      -0.006   1.194  -1.455  0.00  0.00    -0.027 C 
ATOM      8  C   UNL     1      -0.076   0.383  -0.119  0.00  0.00    +0.028 C 
ATOM      9  C   UNL     1      -1.533   0.396   0.468  0.00  0.00    +0.012 C 
ATOM     10  C   UNL     1       1.046   0.821   0.867  0.00  0.00    +0.122 C 
ATOM     11  C   UNL     1       1.410   1.067  -2.063  0.00  0.00    +0.007 C 
ATOM     12  C   UNL     1       2.450   0.791   0.220  0.00  0.00    +0.029 C 
ATOM     13  C   UNL     1      -1.008   0.589  -2.465  0.00  0.00    +0.009 C 
ATOM     14  C   UNL     1      -2.542  -0.145  -0.584  0.00  0.00    +0.076 C 
ATOM     15  C   UNL     1       2.508   1.533  -1.115  0.00  0.00    +0.007 C 
ATOM     16  C   UNL     1      -2.437   0.551  -1.940  0.00  0.00    +0.023 C 
ATOM     17  C   UNL     1      -0.329   2.697  -1.254  0.00  0.00    +0.011 C 
ATOM     19  C   UNL     1      -1.680  -0.410   1.770  0.00  0.00    +0.010 C 
ENDROOT
BRANCH  14   4
ATOM      3  O   UNL     1      -4.710  -1.920  -1.213  0.00  0.00    -0.269 OA
ATOM      4  N   UNL     1      -3.909  -0.039  -0.119  0.00  0.00    -0.307 N 
ATOM     22  C   UNL     1      -4.887  -0.950  -0.480  0.00  0.00    +0.263 C 
ATOM     34  H   UNL     1      -4.166   0.767   0.445  0.00  0.00    +0.149 HD
BRANCH  22  28
ATOM      6  N   UNL     1      -6.365   0.413   0.837  0.00  0.00    -0.250 NA
ATOM     28  C   UNL     1      -6.246  -0.686   0.059  0.00  0.00    +0.125 A 
ATOM     30  C   UNL     1      -7.295  -1.540  -0.244  0.00  0.00    +0.033 A 
ATOM     31  C   UNL     1      -8.546  -1.246   0.285  0.00  0.00    +0.004 A 
ATOM     32  C   UNL     1      -7.596   0.666   1.334  0.00  0.00    +0.111 A 
ATOM     33  C   UNL     1      -8.709  -0.124   1.090  0.00  0.00    +0.020 A 
ENDBRANCH  22  28
ENDBRANCH  14   4
BRANCH  10   1
ATOM      1  O   UNL     1       1.087  -0.080   1.974  0.00  0.00    -0.391 OA
ATOM     35  H   UNL     1       1.273  -0.971   1.632  0.00  0.00    +0.210 HD
ENDBRANCH  10   1
BRANCH  12  18
ATOM     18  C   UNL     1       3.522   1.350   1.163  0.00  0.00    +0.078 C 
ATOM     20  C   UNL     1       3.241   2.800   1.515  0.00  0.00    +0.017 C 
BRANCH  18  21
ATOM      2  O   UNL     1       5.290   2.178  -0.180  0.00  0.00    -0.275 OA
ATOM      5  N   UNL     1       5.553   0.032   0.670  0.00  0.00    -0.301 N 
ATOM     21  C   UNL     1       4.866   1.232   0.489  0.00  0.00    +0.219 C 
ATOM     23  C   UNL     1       6.881  -0.144   0.080  0.00  0.00    +0.108 C 
ATOM     24  C   UNL     1       5.075  -1.109   1.459  0.00  0.00    +0.108 C 
ATOM     25  C   UNL     1       6.931  -1.401  -0.785  0.00  0.00    +0.022 C 
ATOM     26  C   UNL     1       5.089  -2.389   0.623  0.00  0.00    +0.022 C 
ATOM     27  C   UNL     1       6.473  -2.637   0.004  0.00  0.00    -0.011 C 
ATOM     29  C   UNL     1       6.454  -3.876  -0.888  0.00  0.00    +0.007 C 
ENDBRANCH  18  21
ENDBRANCH  12  18
TORSDOF 5
