REMARK  Name = 40777846
REMARK  7 active torsions:
REMARK  status: ('A' for Active; 'I' for Inactive)
REMARK    1  A    between atoms: O_2  and  C_9
REMARK    2  A    between atoms: O_3  and  C_10
REMARK    3  A    between atoms: N_7  and  C_13
REMARK    4  A    between atoms: C_8  and  C_12
REMARK    5  A    between atoms: C_11  and  C_13
REMARK    6  A    between atoms: C_12  and  C_14
REMARK    7  A    between atoms: C_21  and  C_24
REMARK                            x       y       z     vdW  Elec       q    Type
REMARK                         _______ _______ _______ _____ _____    ______ ____
ROOT
ATOM      1  O   UNL     1       2.197   0.049  -0.660  0.00  0.00    -0.366 OA
ATOM      8  C   UNL     1       1.672   1.267  -0.104  0.00  0.00    +0.159 C 
ATOM      9  C   UNL     1       2.804   1.867   0.713  0.00  0.00    +0.175 C 
ATOM     10  C   UNL     1       4.012   1.488  -0.118  0.00  0.00    +0.176 C 
ATOM     11  C   UNL     1       3.641   0.088  -0.597  0.00  0.00    +0.167 C 
ENDROOT
BRANCH   9   2
ATOM      2  O   UNL     1       2.655   3.261   0.880  0.00  0.00    -0.387 OA
ATOM     25  H   UNL     1       3.465   3.591   1.305  0.00  0.00    +0.210 HD
ENDBRANCH   9   2
BRANCH  10   3
ATOM      3  O   UNL     1       4.112   2.335  -1.262  0.00  0.00    -0.387 OA
ATOM     26  H   UNL     1       4.876   2.032  -1.782  0.00  0.00    +0.210 HD
ENDBRANCH  10   3
BRANCH   8  12
ATOM     12  C   UNL     1       0.432   0.961   0.718  0.00  0.00    +0.130 C 
BRANCH  12  14
ATOM      4  O   UNL     1      -0.599   0.860  -1.414  0.00  0.00    -0.275 OA
ATOM      6  N   UNL     1      -1.936   0.427   0.449  0.00  0.00    -0.271 N 
ATOM     14  C   UNL     1      -0.750   0.746  -0.197  0.00  0.00    +0.222 C 
ATOM     15  C   UNL     1      -2.115   0.290   1.910  0.00  0.00    +0.118 C 
ATOM     16  C   UNL     1      -3.580  -0.076   2.169  0.00  0.00    +0.056 C 
ATOM     17  C   UNL     1      -3.177   0.179  -0.175  0.00  0.00    +0.039 A 
ATOM     18  C   UNL     1      -4.146  -0.113   0.787  0.00  0.00    -0.024 A 
ATOM     19  C   UNL     1      -3.503   0.194  -1.523  0.00  0.00    +0.024 A 
ATOM     20  C   UNL     1      -5.455  -0.395   0.429  0.00  0.00    +0.005 A 
ATOM     22  C   UNL     1      -4.822  -0.089  -1.893  0.00  0.00    +0.002 A 
ATOM     23  C   UNL     1      -5.791  -0.382  -0.924  0.00  0.00    +0.000 A 
ENDBRANCH  12  14
ENDBRANCH   8  12
BRANCH  11  13
ATOM     13  C   UNL     1       4.097  -1.008   0.356  0.00  0.00    +0.138 C 
BRANCH  13   7
ATOM      5  O   UNL     1       1.635  -2.452   0.889  0.00  0.00    -0.276 OA
ATOM      7  N   UNL     1       3.725  -2.304  -0.129  0.00  0.00    -0.313 N 
ATOM     21  C   UNL     1       2.518  -2.924   0.178  0.00  0.00    +0.210 C 
ATOM     24  C   UNL     1       2.372  -4.268  -0.482  0.00  0.00    +0.109 C 
ATOM     27  H   UNL     1       4.378  -2.781  -0.744  0.00  0.00    +0.149 HD
ENDBRANCH  13   7
ENDBRANCH  11  13
TORSDOF 6
