MODEL 1
REMARK VINA RESULT:      -7.4      0.000      0.000
REMARK  Name = 25390480
REMARK  9 active torsions:
REMARK  status: ('A' for Active; 'I' for Inactive)
REMARK    1  A    between atoms: O_2  and  C_11
REMARK    2  A    between atoms: O_3  and  C_12
REMARK    3  A    between atoms: O_6  and  C_29
REMARK    4  A    between atoms: O_6  and  C_32
REMARK    5  A    between atoms: N_8  and  C_15
REMARK    6  A    between atoms: N_9  and  C_26
REMARK    7  A    between atoms: C_10  and  C_14
REMARK    8  A    between atoms: C_13  and  C_15
REMARK    9  A    between atoms: C_14  and  C_16
REMARK                            x       y       z     vdW  Elec       q    Type
REMARK                         _______ _______ _______ _____ _____    ______ ____
ROOT
ATOM      1  O   UNL     1     -17.471   5.896  23.714  0.00  0.00    -0.366 OA
ATOM     10  C   UNL     1     -16.649   5.819  22.527  0.00  0.00    +0.159 C 
ATOM     11  C   UNL     1     -15.993   4.442  22.547  0.00  0.00    +0.175 C 
ATOM     12  C   UNL     1     -15.917   4.152  24.032  0.00  0.00    +0.176 C 
ATOM     13  C   UNL     1     -17.232   4.732  24.523  0.00  0.00    +0.167 C 
ENDROOT
BRANCH  11   2
ATOM      2  O   UNL     1     -16.876   3.521  21.907  0.00  0.00    -0.387 OA
ATOM     33  H   UNL     1     -17.713   3.530  22.404  0.00  0.00    +0.210 HD
ENDBRANCH  11   2
BRANCH  12   3
ATOM      3  O   UNL     1     -15.801   2.776  24.327  0.00  0.00    -0.387 OA
ATOM     34  H   UNL     1     -16.066   2.654  25.255  0.00  0.00    +0.210 HD
ENDBRANCH  12   3
BRANCH  10  14
ATOM     14  C   UNL     1     -15.643   6.960  22.583  0.00  0.00    +0.130 C 
BRANCH  14  16
ATOM      4  O   UNL     1     -16.268   7.940  20.517  0.00  0.00    -0.275 OA
ATOM      7  N   UNL     1     -14.035   7.318  20.780  0.00  0.00    -0.271 N 
ATOM     16  C   UNL     1     -15.354   7.458  21.187  0.00  0.00    +0.222 C 
ATOM     17  C   UNL     1     -12.938   6.739  21.584  0.00  0.00    +0.118 C 
ATOM     18  C   UNL     1     -13.511   7.703  19.527  0.00  0.00    +0.039 A 
ATOM     19  C   UNL     1     -11.659   6.793  20.741  0.00  0.00    +0.056 C 
ATOM     20  C   UNL     1     -12.145   7.413  19.472  0.00  0.00    -0.024 A 
ATOM     21  C   UNL     1     -14.152   8.286  18.445  0.00  0.00    +0.024 A 
ATOM     22  C   UNL     1     -11.393   7.698  18.342  0.00  0.00    +0.005 A 
ATOM     24  C   UNL     1     -13.402   8.575  17.302  0.00  0.00    +0.002 A 
ATOM     25  C   UNL     1     -12.032   8.283  17.250  0.00  0.00    +0.000 A 
ENDBRANCH  14  16
ENDBRANCH  10  14
BRANCH  13  15
ATOM     15  C   UNL     1     -17.207   5.124  25.990  0.00  0.00    +0.140 C 
BRANCH  15   8
ATOM      5  O   UNL     1     -17.568   3.532  28.343  0.00  0.00    -0.253 OA
ATOM      8  N   UNL     1     -16.176   4.390  26.710  0.00  0.00    -0.297 N 
ATOM      9  N   UNL     1     -15.269   3.050  28.323  0.00  0.00    -0.269 N 
ATOM     23  C   UNL     1     -16.446   3.639  27.851  0.00  0.00    +0.304 C 
ATOM     35  H   UNL     1     -15.224   4.425  26.359  0.00  0.00    +0.150 HD
ATOM     36  H   UNL     1     -14.421   3.242  27.798  0.00  0.00    +0.156 HD
BRANCH   9  26
ATOM     26  C   UNL     1     -15.110   2.213  29.452  0.00  0.00    +0.038 A 
ATOM     27  C   UNL     1     -14.624   2.742  30.648  0.00  0.00    +0.069 A 
ATOM     28  C   UNL     1     -15.436   0.860  29.369  0.00  0.00    +0.023 A 
ATOM     29  C   UNL     1     -14.464   1.917  31.761  0.00  0.00    +0.122 A 
ATOM     30  C   UNL     1     -15.276   0.035  30.484  0.00  0.00    +0.005 A 
ATOM     31  C   UNL     1     -14.791   0.564  31.680  0.00  0.00    +0.046 A 
BRANCH  29   6
ATOM      6  O   UNL     1     -13.992   2.433  32.929  0.00  0.00    -0.495 OA
ATOM     32  C   UNL     1     -13.867   3.853  33.008  0.00  0.00    +0.277 C 
ENDBRANCH  29   6
ENDBRANCH   9  26
ENDBRANCH  15   8
ENDBRANCH  13  15
TORSDOF 8
ENDMDL
MODEL 2
REMARK VINA RESULT:      -7.4     28.040     31.148
REMARK  Name = 25390480
REMARK  9 active torsions:
REMARK  status: ('A' for Active; 'I' for Inactive)
REMARK    1  A    between atoms: O_2  and  C_11
REMARK    2  A    between atoms: O_3  and  C_12
REMARK    3  A    between atoms: O_6  and  C_29
REMARK    4  A    between atoms: O_6  and  C_32
REMARK    5  A    between atoms: N_8  and  C_15
REMARK    6  A    between atoms: N_9  and  C_26
REMARK    7  A    between atoms: C_10  and  C_14
REMARK    8  A    between atoms: C_13  and  C_15
REMARK    9  A    between atoms: C_14  and  C_16
REMARK                            x       y       z     vdW  Elec       q    Type
REMARK                         _______ _______ _______ _____ _____    ______ ____
ROOT
ATOM      1  O   UNL     1      13.141  13.018  23.090  0.00  0.00    -0.366 OA
ATOM     10  C   UNL     1      11.971  12.512  23.773  0.00  0.00    +0.159 C 
ATOM     11  C   UNL     1      12.481  11.713  24.967  0.00  0.00    +0.175 C 
ATOM     12  C   UNL     1      13.832  11.238  24.473  0.00  0.00    +0.176 C 
ATOM     13  C   UNL     1      14.315  12.449  23.695  0.00  0.00    +0.167 C 
ENDROOT
BRANCH  11   2
ATOM      2  O   UNL     1      12.643  12.612  26.064  0.00  0.00    -0.387 OA
ATOM     33  H   UNL     1      13.409  12.304  26.580  0.00  0.00    +0.210 HD
ENDBRANCH  11   2
BRANCH  12   3
ATOM      3  O   UNL     1      14.717  10.890  25.517  0.00  0.00    -0.387 OA
ATOM     34  H   UNL     1      14.184  10.763  26.320  0.00  0.00    +0.210 HD
ENDBRANCH  12   3
BRANCH  10  14
ATOM     14  C   UNL     1      11.183  11.666  22.781  0.00  0.00    +0.130 C 
BRANCH  14  16
ATOM      4  O   UNL     1      11.715  12.853  20.800  0.00  0.00    -0.275 OA
ATOM      7  N   UNL     1      12.411  10.630  20.941  0.00  0.00    -0.271 N 
ATOM     16  C   UNL     1      11.795  11.785  21.406  0.00  0.00    +0.222 C 
ATOM     17  C   UNL     1      12.505   9.347  21.669  0.00  0.00    +0.118 C 
ATOM     18  C   UNL     1      13.052  10.481  19.694  0.00  0.00    +0.039 A 
ATOM     19  C   UNL     1      13.273   8.361  20.782  0.00  0.00    +0.056 C 
ATOM     20  C   UNL     1      13.559   9.185  19.570  0.00  0.00    -0.024 A 
ATOM     21  C   UNL     1      13.218  11.403  18.672  0.00  0.00    +0.024 A 
ATOM     22  C   UNL     1      14.239   8.783  18.430  0.00  0.00    +0.005 A 
ATOM     24  C   UNL     1      13.901  11.006  17.519  0.00  0.00    +0.002 A 
ATOM     25  C   UNL     1      14.408   9.704  17.398  0.00  0.00    +0.000 A 
ENDBRANCH  14  16
ENDBRANCH  10  14
BRANCH  13  15
ATOM     15  C   UNL     1      15.330  12.108  22.619  0.00  0.00    +0.140 C 
BRANCH  15   8
ATOM      5  O   UNL     1      16.753  10.610  20.635  0.00  0.00    -0.253 OA
ATOM      8  N   UNL     1      15.739  10.713  22.709  0.00  0.00    -0.297 N 
ATOM      9  N   UNL     1      16.685   8.739  22.053  0.00  0.00    -0.269 N 
ATOM     23  C   UNL     1      16.430  10.065  21.689  0.00  0.00    +0.304 C 
ATOM     35  H   UNL     1      15.512  10.198  23.554  0.00  0.00    +0.150 HD
ATOM     36  H   UNL     1      16.346   8.444  22.965  0.00  0.00    +0.156 HD
BRANCH   9  26
ATOM     26  C   UNL     1      17.360   7.747  21.305  0.00  0.00    +0.038 A 
ATOM     27  C   UNL     1      18.668   7.394  21.637  0.00  0.00    +0.069 A 
ATOM     28  C   UNL     1      16.719   7.124  20.235  0.00  0.00    +0.023 A 
ATOM     29  C   UNL     1      19.335   6.417  20.898  0.00  0.00    +0.122 A 
ATOM     30  C   UNL     1      17.387   6.146  19.497  0.00  0.00    +0.005 A 
ATOM     31  C   UNL     1      18.695   5.792  19.829  0.00  0.00    +0.046 A 
BRANCH  29   6
ATOM      6  O   UNL     1      20.611   6.071  21.222  0.00  0.00    -0.495 OA
ATOM     32  C   UNL     1      21.659   6.667  20.458  0.00  0.00    +0.277 C 
ENDBRANCH  29   6
ENDBRANCH   9  26
ENDBRANCH  15   8
ENDBRANCH  13  15
TORSDOF 8
ENDMDL
MODEL 3
REMARK VINA RESULT:      -7.2     31.831     35.041
REMARK  Name = 25390480
REMARK  9 active torsions:
REMARK  status: ('A' for Active; 'I' for Inactive)
REMARK    1  A    between atoms: O_2  and  C_11
REMARK    2  A    between atoms: O_3  and  C_12
REMARK    3  A    between atoms: O_6  and  C_29
REMARK    4  A    between atoms: O_6  and  C_32
REMARK    5  A    between atoms: N_8  and  C_15
REMARK    6  A    between atoms: N_9  and  C_26
REMARK    7  A    between atoms: C_10  and  C_14
REMARK    8  A    between atoms: C_13  and  C_15
REMARK    9  A    between atoms: C_14  and  C_16
REMARK                            x       y       z     vdW  Elec       q    Type
REMARK                         _______ _______ _______ _____ _____    ______ ____
ROOT
ATOM      1  O   UNL     1      19.624   6.067  22.416  0.00  0.00    -0.366 OA
ATOM     10  C   UNL     1      20.711   6.826  22.993  0.00  0.00    +0.159 C 
ATOM     11  C   UNL     1      20.402   8.295  22.721  0.00  0.00    +0.175 C 
ATOM     12  C   UNL     1      19.593   8.215  21.443  0.00  0.00    +0.176 C 
ATOM     13  C   UNL     1      18.769   6.961  21.682  0.00  0.00    +0.167 C 
ENDROOT
BRANCH  11   2
ATOM      2  O   UNL     1      19.591   8.782  23.790  0.00  0.00    -0.387 OA
ATOM     33  H   UNL     1      18.774   8.253  23.799  0.00  0.00    +0.210 HD
ENDBRANCH  11   2
BRANCH  12   3
ATOM      3  O   UNL     1      18.781   9.349  21.224  0.00  0.00    -0.387 OA
ATOM     34  H   UNL     1      17.909   9.163  21.614  0.00  0.00    +0.210 HD
ENDBRANCH  12   3
BRANCH  10  14
ATOM     14  C   UNL     1      22.004   6.358  22.338  0.00  0.00    +0.130 C 
BRANCH  14  16
ATOM      4  O   UNL     1      22.091   4.751  24.078  0.00  0.00    -0.275 OA
ATOM      7  N   UNL     1      23.182   4.234  22.081  0.00  0.00    -0.271 N 
ATOM     16  C   UNL     1      22.427   5.034  22.928  0.00  0.00    +0.222 C 
ATOM     17  C   UNL     1      23.586   4.576  20.700  0.00  0.00    +0.118 C 
ATOM     18  C   UNL     1      23.698   2.958  22.391  0.00  0.00    +0.039 A 
ATOM     19  C   UNL     1      24.399   3.402  20.146  0.00  0.00    +0.056 C 
ATOM     20  C   UNL     1      24.405   2.451  21.298  0.00  0.00    -0.024 A 
ATOM     21  C   UNL     1      23.586   2.223  23.561  0.00  0.00    +0.024 A 
ATOM     22  C   UNL     1      25.012   1.205  21.348  0.00  0.00    +0.005 A 
ATOM     24  C   UNL     1      24.195   0.966  23.620  0.00  0.00    +0.002 A 
ATOM     25  C   UNL     1      24.904   0.460  22.521  0.00  0.00    +0.000 A 
ENDBRANCH  14  16
ENDBRANCH  10  14
BRANCH  13  15
ATOM     15  C   UNL     1      18.307   6.290  20.401  0.00  0.00    +0.140 C 
BRANCH  15   8
ATOM      5  O   UNL     1      16.212   8.209  20.033  0.00  0.00    -0.253 OA
ATOM      8  N   UNL     1      16.874   6.031  20.433  0.00  0.00    -0.297 N 
ATOM      9  N   UNL     1      14.639   6.491  20.328  0.00  0.00    -0.269 N 
ATOM     23  C   UNL     1      15.925   7.032  20.243  0.00  0.00    +0.304 C 
ATOM     35  H   UNL     1      16.560   5.079  20.595  0.00  0.00    +0.150 HD
ATOM     36  H   UNL     1      14.575   5.493  20.510  0.00  0.00    +0.156 HD
BRANCH   9  26
ATOM     26  C   UNL     1      13.403   7.164  20.193  0.00  0.00    +0.038 A 
ATOM     27  C   UNL     1      12.867   7.390  18.925  0.00  0.00    +0.069 A 
ATOM     28  C   UNL     1      12.721   7.604  21.328  0.00  0.00    +0.023 A 
ATOM     29  C   UNL     1      11.649   8.056  18.792  0.00  0.00    +0.122 A 
ATOM     30  C   UNL     1      11.502   8.270  21.193  0.00  0.00    +0.005 A 
ATOM     31  C   UNL     1      10.966   8.495  19.926  0.00  0.00    +0.046 A 
BRANCH  29   6
ATOM      6  O   UNL     1      11.124   8.275  17.555  0.00  0.00    -0.495 OA
ATOM     32  C   UNL     1      11.880   9.099  16.667  0.00  0.00    +0.277 C 
ENDBRANCH  29   6
ENDBRANCH   9  26
ENDBRANCH  15   8
ENDBRANCH  13  15
TORSDOF 8
ENDMDL
MODEL 4
REMARK VINA RESULT:      -7.2     18.163     19.962
REMARK  Name = 25390480
REMARK  9 active torsions:
REMARK  status: ('A' for Active; 'I' for Inactive)
REMARK    1  A    between atoms: O_2  and  C_11
REMARK    2  A    between atoms: O_3  and  C_12
REMARK    3  A    between atoms: O_6  and  C_29
REMARK    4  A    between atoms: O_6  and  C_32
REMARK    5  A    between atoms: N_8  and  C_15
REMARK    6  A    between atoms: N_9  and  C_26
REMARK    7  A    between atoms: C_10  and  C_14
REMARK    8  A    between atoms: C_13  and  C_15
REMARK    9  A    between atoms: C_14  and  C_16
REMARK                            x       y       z     vdW  Elec       q    Type
REMARK                         _______ _______ _______ _____ _____    ______ ____
ROOT
ATOM      1  O   UNL     1      -6.205 -12.898  17.693  0.00  0.00    -0.366 OA
ATOM     10  C   UNL     1      -5.140 -11.981  17.352  0.00  0.00    +0.159 C 
ATOM     11  C   UNL     1      -4.801 -11.221  18.630  0.00  0.00    +0.175 C 
ATOM     12  C   UNL     1      -6.124 -11.240  19.368  0.00  0.00    +0.176 C 
ATOM     13  C   UNL     1      -6.637 -12.632  19.039  0.00  0.00    +0.167 C 
ENDROOT
BRANCH  11   2
ATOM      2  O   UNL     1      -3.825 -11.976  19.348  0.00  0.00    -0.387 OA
ATOM     33  H   UNL     1      -4.013 -11.867  20.296  0.00  0.00    +0.210 HD
ENDBRANCH  11   2
BRANCH  12   3
ATOM      3  O   UNL     1      -5.991 -11.039  20.759  0.00  0.00    -0.387 OA
ATOM     34  H   UNL     1      -5.498 -10.210  20.887  0.00  0.00    +0.210 HD
ENDBRANCH  12   3
BRANCH  10  14
ATOM     14  C   UNL     1      -5.644 -11.076  16.236  0.00  0.00    +0.130 C 
BRANCH  14  16
ATOM      4  O   UNL     1      -3.467 -11.399  15.358  0.00  0.00    -0.275 OA
ATOM      7  N   UNL     1      -5.049 -10.395  13.968  0.00  0.00    -0.271 N 
ATOM     16  C   UNL     1      -4.603 -10.976  15.147  0.00  0.00    +0.222 C 
ATOM     17  C   UNL     1      -6.414  -9.886  13.716  0.00  0.00    +0.118 C 
ATOM     18  C   UNL     1      -4.276 -10.185  12.806  0.00  0.00    +0.039 A 
ATOM     19  C   UNL     1      -6.453  -9.339  12.284  0.00  0.00    +0.056 C 
ATOM     20  C   UNL     1      -5.054  -9.578  11.818  0.00  0.00    -0.024 A 
ATOM     21  C   UNL     1      -2.945 -10.493  12.566  0.00  0.00    +0.024 A 
ATOM     22  C   UNL     1      -4.526  -9.267  10.574  0.00  0.00    +0.005 A 
ATOM     24  C   UNL     1      -2.404 -10.181  11.315  0.00  0.00    +0.002 A 
ATOM     25  C   UNL     1      -3.188  -9.572  10.326  0.00  0.00    +0.000 A 
ENDBRANCH  14  16
ENDBRANCH  10  14
BRANCH  13  15
ATOM     15  C   UNL     1      -8.148 -12.753  19.125  0.00  0.00    +0.140 C 
BRANCH  15   8
ATOM      5  O   UNL     1      -9.489 -11.438  16.962  0.00  0.00    -0.253 OA
ATOM      8  N   UNL     1      -8.777 -11.440  19.160  0.00  0.00    -0.297 N 
ATOM      9  N   UNL     1      -9.915  -9.618  18.383  0.00  0.00    -0.269 N 
ATOM     23  C   UNL     1      -9.408 -10.879  18.054  0.00  0.00    +0.304 C 
ATOM     35  H   UNL     1      -8.756 -10.919  20.032  0.00  0.00    +0.150 HD
ATOM     36  H   UNL     1      -9.760  -9.299  19.336  0.00  0.00    +0.156 HD
BRANCH   9  26
ATOM     26  C   UNL     1     -10.623  -8.721  17.549  0.00  0.00    +0.038 A 
ATOM     27  C   UNL     1     -11.987  -8.909  17.323  0.00  0.00    +0.069 A 
ATOM     28  C   UNL     1      -9.957  -7.652  16.951  0.00  0.00    +0.023 A 
ATOM     29  C   UNL     1     -12.684  -8.026  16.499  0.00  0.00    +0.122 A 
ATOM     30  C   UNL     1     -10.656  -6.769  16.127  0.00  0.00    +0.005 A 
ATOM     31  C   UNL     1     -12.020  -6.956  15.902  0.00  0.00    +0.046 A 
BRANCH  29   6
ATOM      6  O   UNL     1     -14.015  -8.208  16.279  0.00  0.00    -0.495 OA
ATOM     32  C   UNL     1     -14.832  -7.038  16.242  0.00  0.00    +0.277 C 
ENDBRANCH  29   6
ENDBRANCH   9  26
ENDBRANCH  15   8
ENDBRANCH  13  15
TORSDOF 8
ENDMDL
MODEL 5
REMARK VINA RESULT:      -7.1     30.092     35.228
REMARK  Name = 25390480
REMARK  9 active torsions:
REMARK  status: ('A' for Active; 'I' for Inactive)
REMARK    1  A    between atoms: O_2  and  C_11
REMARK    2  A    between atoms: O_3  and  C_12
REMARK    3  A    between atoms: O_6  and  C_29
REMARK    4  A    between atoms: O_6  and  C_32
REMARK    5  A    between atoms: N_8  and  C_15
REMARK    6  A    between atoms: N_9  and  C_26
REMARK    7  A    between atoms: C_10  and  C_14
REMARK    8  A    between atoms: C_13  and  C_15
REMARK    9  A    between atoms: C_14  and  C_16
REMARK                            x       y       z     vdW  Elec       q    Type
REMARK                         _______ _______ _______ _____ _____    ______ ____
ROOT
ATOM      1  O   UNL     1      13.393   3.624  -0.036  0.00  0.00    -0.366 OA
ATOM     10  C   UNL     1      14.644   3.970  -0.673  0.00  0.00    +0.159 C 
ATOM     11  C   UNL     1      15.552   4.509   0.427  0.00  0.00    +0.175 C 
ATOM     12  C   UNL     1      14.551   5.086   1.407  0.00  0.00    +0.176 C 
ATOM     13  C   UNL     1      13.429   4.064   1.332  0.00  0.00    +0.167 C 
ENDROOT
BRANCH  11   2
ATOM      2  O   UNL     1      16.240   3.405   1.014  0.00  0.00    -0.387 OA
ATOM     33  H   UNL     1      16.965   3.768   1.553  0.00  0.00    +0.210 HD
ENDBRANCH  11   2
BRANCH  12   3
ATOM      3  O   UNL     1      15.063   5.217   2.716  0.00  0.00    -0.387 OA
ATOM     34  H   UNL     1      15.662   5.983   2.719  0.00  0.00    +0.210 HD
ENDBRANCH  12   3
BRANCH  10  14
ATOM     14  C   UNL     1      14.347   4.997  -1.758  0.00  0.00    +0.130 C 
BRANCH  14  16
ATOM      4  O   UNL     1      12.857   3.712  -3.080  0.00  0.00    -0.275 OA
ATOM      7  N   UNL     1      12.014   5.645  -2.081  0.00  0.00    -0.271 N 
ATOM     16  C   UNL     1      12.999   4.713  -2.377  0.00  0.00    +0.222 C 
ATOM     17  C   UNL     1      12.186   6.847  -1.237  0.00  0.00    +0.118 C 
ATOM     18  C   UNL     1      10.679   5.610  -2.534  0.00  0.00    +0.039 A 
ATOM     19  C   UNL     1      10.840   7.577  -1.181  0.00  0.00    +0.056 C 
ATOM     20  C   UNL     1       9.976   6.709  -2.035  0.00  0.00    -0.024 A 
ATOM     21  C   UNL     1      10.050   4.681  -3.349  0.00  0.00    +0.024 A 
ATOM     22  C   UNL     1       8.635   6.904  -2.336  0.00  0.00    +0.005 A 
ATOM     24  C   UNL     1       8.699   4.871  -3.658  0.00  0.00    +0.002 A 
ATOM     25  C   UNL     1       7.997   5.975  -3.156  0.00  0.00    +0.000 A 
ENDBRANCH  14  16
ENDBRANCH  10  14
BRANCH  13  15
ATOM     15  C   UNL     1      12.075   4.627   1.725  0.00  0.00    +0.140 C 
BRANCH  15   8
ATOM      5  O   UNL     1       9.988   4.667   3.687  0.00  0.00    -0.253 OA
ATOM      8  N   UNL     1      12.129   5.250   3.040  0.00  0.00    -0.297 N 
ATOM      9  N   UNL     1      11.398   5.896   5.107  0.00  0.00    -0.269 N 
ATOM     23  C   UNL     1      11.059   5.219   3.931  0.00  0.00    +0.304 C 
ATOM     35  H   UNL     1      12.985   5.720   3.316  0.00  0.00    +0.150 HD
ATOM     36  H   UNL     1      12.330   6.299   5.148  0.00  0.00    +0.156 HD
BRANCH   9  26
ATOM     26  C   UNL     1      10.599   6.093   6.257  0.00  0.00    +0.038 A 
ATOM     27  C   UNL     1      10.598   5.140   7.276  0.00  0.00    +0.069 A 
ATOM     28  C   UNL     1       9.811   7.237   6.371  0.00  0.00    +0.023 A 
ATOM     29  C   UNL     1       9.809   5.333   8.409  0.00  0.00    +0.122 A 
ATOM     30  C   UNL     1       9.022   7.430   7.505  0.00  0.00    +0.005 A 
ATOM     31  C   UNL     1       9.021   6.478   8.525  0.00  0.00    +0.046 A 
BRANCH  29   6
ATOM      6  O   UNL     1       9.808   4.405   9.405  0.00  0.00    -0.495 OA
ATOM     32  C   UNL     1       8.828   4.555  10.431  0.00  0.00    +0.277 C 
ENDBRANCH  29   6
ENDBRANCH   9  26
ENDBRANCH  15   8
ENDBRANCH  13  15
TORSDOF 8
ENDMDL
MODEL 6
REMARK VINA RESULT:      -7.1     19.571     21.397
REMARK  Name = 25390480
REMARK  9 active torsions:
REMARK  status: ('A' for Active; 'I' for Inactive)
REMARK    1  A    between atoms: O_2  and  C_11
REMARK    2  A    between atoms: O_3  and  C_12
REMARK    3  A    between atoms: O_6  and  C_29
REMARK    4  A    between atoms: O_6  and  C_32
REMARK    5  A    between atoms: N_8  and  C_15
REMARK    6  A    between atoms: N_9  and  C_26
REMARK    7  A    between atoms: C_10  and  C_14
REMARK    8  A    between atoms: C_13  and  C_15
REMARK    9  A    between atoms: C_14  and  C_16
REMARK                            x       y       z     vdW  Elec       q    Type
REMARK                         _______ _______ _______ _____ _____    ______ ____
ROOT
ATOM      1  O   UNL     1      -4.449 -11.415  14.728  0.00  0.00    -0.366 OA
ATOM     10  C   UNL     1      -3.517 -11.663  13.651  0.00  0.00    +0.159 C 
ATOM     11  C   UNL     1      -2.133 -11.738  14.288  0.00  0.00    +0.175 C 
ATOM     12  C   UNL     1      -2.296 -10.843  15.499  0.00  0.00    +0.176 C 
ATOM     13  C   UNL     1      -3.710 -11.179  15.939  0.00  0.00    +0.167 C 
ENDROOT
BRANCH  11   2
ATOM      2  O   UNL     1      -1.907 -13.087  14.697  0.00  0.00    -0.387 OA
ATOM     33  H   UNL     1      -0.956 -13.266  14.594  0.00  0.00    +0.210 HD
ENDBRANCH  11   2
BRANCH  12   3
ATOM      3  O   UNL     1      -1.349 -11.099  16.515  0.00  0.00    -0.387 OA
ATOM     34  H   UNL     1      -0.485 -11.219  16.084  0.00  0.00    +0.210 HD
ENDBRANCH  12   3
BRANCH  10  14
ATOM     14  C   UNL     1      -3.650 -10.524  12.648  0.00  0.00    +0.130 C 
BRANCH  14  16
ATOM      4  O   UNL     1      -3.211 -12.152  10.982  0.00  0.00    -0.275 OA
ATOM      7  N   UNL     1      -4.496 -10.303  10.367  0.00  0.00    -0.271 N 
ATOM     16  C   UNL     1      -3.759 -11.083  11.249  0.00  0.00    +0.222 C 
ATOM     17  C   UNL     1      -5.152  -9.018  10.689  0.00  0.00    +0.118 C 
ATOM     18  C   UNL     1      -4.744 -10.601   9.011  0.00  0.00    +0.039 A 
ATOM     19  C   UNL     1      -5.853  -8.520   9.421  0.00  0.00    +0.056 C 
ATOM     20  C   UNL     1      -5.522  -9.593   8.436  0.00  0.00    -0.024 A 
ATOM     21  C   UNL     1      -4.334 -11.691   8.259  0.00  0.00    +0.024 A 
ATOM     22  C   UNL     1      -5.907  -9.651   7.104  0.00  0.00    +0.005 A 
ATOM     24  C   UNL     1      -4.716 -11.756   6.915  0.00  0.00    +0.002 A 
ATOM     25  C   UNL     1      -5.497 -10.743   6.342  0.00  0.00    +0.000 A 
ENDBRANCH  14  16
ENDBRANCH  10  14
BRANCH  13  15
ATOM     15  C   UNL     1      -4.374 -10.068  16.734  0.00  0.00    +0.140 C 
BRANCH  15   8
ATOM      5  O   UNL     1      -6.924  -9.795  18.009  0.00  0.00    -0.253 OA
ATOM      8  N   UNL     1      -5.620  -9.648  16.107  0.00  0.00    -0.297 N 
ATOM      9  N   UNL     1      -7.838  -9.123  15.953  0.00  0.00    -0.269 N 
ATOM     23  C   UNL     1      -6.817  -9.544  16.810  0.00  0.00    +0.304 C 
ATOM     35  H   UNL     1      -5.608  -9.418  15.118  0.00  0.00    +0.150 HD
ATOM     36  H   UNL     1      -7.580  -8.960  14.983  0.00  0.00    +0.156 HD
BRANCH   9  26
ATOM     26  C   UNL     1      -9.197  -8.894  16.268  0.00  0.00    +0.038 A 
ATOM     27  C   UNL     1      -9.742  -7.618  16.117  0.00  0.00    +0.069 A 
ATOM     28  C   UNL     1      -9.992  -9.941  16.732  0.00  0.00    +0.023 A 
ATOM     29  C   UNL     1     -11.082  -7.391  16.429  0.00  0.00    +0.122 A 
ATOM     30  C   UNL     1     -11.333  -9.713  17.044  0.00  0.00    +0.005 A 
ATOM     31  C   UNL     1     -11.878  -8.438  16.892  0.00  0.00    +0.046 A 
BRANCH  29   6
ATOM      6  O   UNL     1     -11.615  -6.147  16.280  0.00  0.00    -0.495 OA
ATOM     32  C   UNL     1     -11.846  -5.696  14.946  0.00  0.00    +0.277 C 
ENDBRANCH  29   6
ENDBRANCH   9  26
ENDBRANCH  15   8
ENDBRANCH  13  15
TORSDOF 8
ENDMDL
MODEL 7
REMARK VINA RESULT:      -7.0     30.720     35.905
REMARK  Name = 25390480
REMARK  9 active torsions:
REMARK  status: ('A' for Active; 'I' for Inactive)
REMARK    1  A    between atoms: O_2  and  C_11
REMARK    2  A    between atoms: O_3  and  C_12
REMARK    3  A    between atoms: O_6  and  C_29
REMARK    4  A    between atoms: O_6  and  C_32
REMARK    5  A    between atoms: N_8  and  C_15
REMARK    6  A    between atoms: N_9  and  C_26
REMARK    7  A    between atoms: C_10  and  C_14
REMARK    8  A    between atoms: C_13  and  C_15
REMARK    9  A    between atoms: C_14  and  C_16
REMARK                            x       y       z     vdW  Elec       q    Type
REMARK                         _______ _______ _______ _____ _____    ______ ____
ROOT
ATOM      1  O   UNL     1      13.706   4.847  -0.434  0.00  0.00    -0.366 OA
ATOM     10  C   UNL     1      14.860   5.709  -0.303  0.00  0.00    +0.159 C 
ATOM     11  C   UNL     1      15.865   4.955   0.561  0.00  0.00    +0.175 C 
ATOM     12  C   UNL     1      14.960   4.091   1.415  0.00  0.00    +0.176 C 
ATOM     13  C   UNL     1      13.881   3.702   0.418  0.00  0.00    +0.167 C 
ENDROOT
BRANCH  11   2
ATOM      2  O   UNL     1      16.662   4.139  -0.297  0.00  0.00    -0.387 OA
ATOM     33  H   UNL     1      16.067   3.745  -0.959  0.00  0.00    +0.210 HD
ENDBRANCH  11   2
BRANCH  12   3
ATOM      3  O   UNL     1      15.612   2.963   1.957  0.00  0.00    -0.387 OA
ATOM     34  H   UNL     1      16.556   3.184   2.040  0.00  0.00    +0.210 HD
ENDBRANCH  12   3
BRANCH  10  14
ATOM     14  C   UNL     1      14.396   7.016   0.325  0.00  0.00    +0.130 C 
BRANCH  14  16
ATOM      4  O   UNL     1      16.538   7.984   0.634  0.00  0.00    -0.275 OA
ATOM      7  N   UNL     1      15.228   7.642   2.535  0.00  0.00    -0.271 N 
ATOM     16  C   UNL     1      15.501   7.598   1.174  0.00  0.00    +0.222 C 
ATOM     17  C   UNL     1      13.983   7.177   3.183  0.00  0.00    +0.118 C 
ATOM     18  C   UNL     1      16.091   8.136   3.535  0.00  0.00    +0.039 A 
ATOM     19  C   UNL     1      14.119   7.425   4.689  0.00  0.00    +0.056 C 
ATOM     20  C   UNL     1      15.483   8.024   4.788  0.00  0.00    -0.024 A 
ATOM     21  C   UNL     1      17.364   8.672   3.415  0.00  0.00    +0.024 A 
ATOM     22  C   UNL     1      16.128   8.444   5.942  0.00  0.00    +0.005 A 
ATOM     24  C   UNL     1      18.022   9.096   4.573  0.00  0.00    +0.002 A 
ATOM     25  C   UNL     1      17.409   8.983   5.829  0.00  0.00    +0.000 A 
ENDBRANCH  14  16
ENDBRANCH  10  14
BRANCH  13  15
ATOM     15  C   UNL     1      12.558   3.343   1.072  0.00  0.00    +0.140 C 
BRANCH  15   8
ATOM      5  O   UNL     1      10.136   4.372   2.203  0.00  0.00    -0.253 OA
ATOM      8  N   UNL     1      12.413   4.010   2.358  0.00  0.00    -0.297 N 
ATOM      9  N   UNL     1      11.356   5.071   4.083  0.00  0.00    -0.269 N 
ATOM     23  C   UNL     1      11.189   4.479   2.828  0.00  0.00    +0.304 C 
ATOM     35  H   UNL     1      13.240   4.129   2.936  0.00  0.00    +0.150 HD
ATOM     36  H   UNL     1      12.299   5.079   4.462  0.00  0.00    +0.156 HD
BRANCH   9  26
ATOM     26  C   UNL     1      10.367   5.667   4.901  0.00  0.00    +0.038 A 
ATOM     27  C   UNL     1      10.393   5.470   6.282  0.00  0.00    +0.069 A 
ATOM     28  C   UNL     1       9.366   6.449   4.326  0.00  0.00    +0.023 A 
ATOM     29  C   UNL     1       9.418   6.056   7.088  0.00  0.00    +0.122 A 
ATOM     30  C   UNL     1       8.391   7.035   5.134  0.00  0.00    +0.005 A 
ATOM     31  C   UNL     1       8.417   6.839   6.514  0.00  0.00    +0.046 A 
BRANCH  29   6
ATOM      6  O   UNL     1       9.444   5.865   8.435  0.00  0.00    -0.495 OA
ATOM     32  C   UNL     1       9.509   4.517   8.899  0.00  0.00    +0.277 C 
ENDBRANCH  29   6
ENDBRANCH   9  26
ENDBRANCH  15   8
ENDBRANCH  13  15
TORSDOF 8
ENDMDL
MODEL 8
REMARK VINA RESULT:      -6.9     29.866     33.891
REMARK  Name = 25390480
REMARK  9 active torsions:
REMARK  status: ('A' for Active; 'I' for Inactive)
REMARK    1  A    between atoms: O_2  and  C_11
REMARK    2  A    between atoms: O_3  and  C_12
REMARK    3  A    between atoms: O_6  and  C_29
REMARK    4  A    between atoms: O_6  and  C_32
REMARK    5  A    between atoms: N_8  and  C_15
REMARK    6  A    between atoms: N_9  and  C_26
REMARK    7  A    between atoms: C_10  and  C_14
REMARK    8  A    between atoms: C_13  and  C_15
REMARK    9  A    between atoms: C_14  and  C_16
REMARK                            x       y       z     vdW  Elec       q    Type
REMARK                         _______ _______ _______ _____ _____    ______ ____
ROOT
ATOM      1  O   UNL     1      10.957   6.782   7.276  0.00  0.00    -0.366 OA
ATOM     10  C   UNL     1       9.947   6.394   8.235  0.00  0.00    +0.159 C 
ATOM     11  C   UNL     1       9.611   4.936   7.941  0.00  0.00    +0.175 C 
ATOM     12  C   UNL     1       9.899   4.841   6.456  0.00  0.00    +0.176 C 
ATOM     13  C   UNL     1      11.135   5.715   6.329  0.00  0.00    +0.167 C 
ENDROOT
BRANCH  11   2
ATOM      2  O   UNL     1      10.520   4.115   8.674  0.00  0.00    -0.387 OA
ATOM     33  H   UNL     1      11.419   4.341   8.377  0.00  0.00    +0.210 HD
ENDBRANCH  11   2
BRANCH  12   3
ATOM      3  O   UNL     1      10.135   3.520   6.016  0.00  0.00    -0.387 OA
ATOM     34  H   UNL     1      10.382   3.566   5.076  0.00  0.00    +0.210 HD
ENDBRANCH  12   3
BRANCH  10  14
ATOM     14  C   UNL     1       8.756   7.327   8.061  0.00  0.00    +0.130 C 
BRANCH  14  16
ATOM      4  O   UNL     1       9.864   9.414   8.250  0.00  0.00    -0.275 OA
ATOM      7  N   UNL     1       8.866   8.908   6.202  0.00  0.00    -0.271 N 
ATOM     16  C   UNL     1       9.222   8.658   7.521  0.00  0.00    +0.222 C 
ATOM     17  C   UNL     1       8.093   7.999   5.328  0.00  0.00    +0.118 C 
ATOM     18  C   UNL     1       9.177  10.072   5.469  0.00  0.00    +0.039 A 
ATOM     19  C   UNL     1       7.943   8.679   3.963  0.00  0.00    +0.056 C 
ATOM     20  C   UNL     1       8.659   9.973   4.175  0.00  0.00    -0.024 A 
ATOM     21  C   UNL     1       9.879  11.200   5.863  0.00  0.00    +0.024 A 
ATOM     22  C   UNL     1       8.831  10.993   3.250  0.00  0.00    +0.005 A 
ATOM     24  C   UNL     1      10.056  12.233   4.937  0.00  0.00    +0.002 A 
ATOM     25  C   UNL     1       9.535  12.131   3.640  0.00  0.00    +0.000 A 
ENDBRANCH  14  16
ENDBRANCH  10  14
BRANCH  13  15
ATOM     15  C   UNL     1      11.324   6.292   4.937  0.00  0.00    +0.140 C 
BRANCH  15   8
ATOM      5  O   UNL     1      12.208   6.491   2.220  0.00  0.00    -0.253 OA
ATOM      8  N   UNL     1      11.271   5.245   3.925  0.00  0.00    -0.297 N 
ATOM      9  N   UNL     1      11.549   4.263   1.881  0.00  0.00    -0.269 N 
ATOM     23  C   UNL     1      11.727   5.434   2.624  0.00  0.00    +0.304 C 
ATOM     35  H   UNL     1      10.891   4.340   4.187  0.00  0.00    +0.150 HD
ATOM     36  H   UNL     1      11.132   3.474   2.368  0.00  0.00    +0.156 HD
BRANCH   9  26
ATOM     26  C   UNL     1      11.879   4.035   0.525  0.00  0.00    +0.038 A 
ATOM     27  C   UNL     1      10.874   4.007  -0.442  0.00  0.00    +0.069 A 
ATOM     28  C   UNL     1      13.209   3.837   0.155  0.00  0.00    +0.023 A 
ATOM     29  C   UNL     1      11.199   3.781  -1.778  0.00  0.00    +0.122 A 
ATOM     30  C   UNL     1      13.533   3.611  -1.183  0.00  0.00    +0.005 A 
ATOM     31  C   UNL     1      12.529   3.584  -2.150  0.00  0.00    +0.046 A 
BRANCH  29   6
ATOM      6  O   UNL     1      10.219   3.755  -2.723  0.00  0.00    -0.495 OA
ATOM     32  C   UNL     1      10.085   2.556  -3.486  0.00  0.00    +0.277 C 
ENDBRANCH  29   6
ENDBRANCH   9  26
ENDBRANCH  15   8
ENDBRANCH  13  15
TORSDOF 8
ENDMDL
MODEL 9
REMARK VINA RESULT:      -6.8      1.646      2.143
REMARK  Name = 25390480
REMARK  9 active torsions:
REMARK  status: ('A' for Active; 'I' for Inactive)
REMARK    1  A    between atoms: O_2  and  C_11
REMARK    2  A    between atoms: O_3  and  C_12
REMARK    3  A    between atoms: O_6  and  C_29
REMARK    4  A    between atoms: O_6  and  C_32
REMARK    5  A    between atoms: N_8  and  C_15
REMARK    6  A    between atoms: N_9  and  C_26
REMARK    7  A    between atoms: C_10  and  C_14
REMARK    8  A    between atoms: C_13  and  C_15
REMARK    9  A    between atoms: C_14  and  C_16
REMARK                            x       y       z     vdW  Elec       q    Type
REMARK                         _______ _______ _______ _____ _____    ______ ____
ROOT
ATOM      1  O   UNL     1     -17.405   5.938  23.372  0.00  0.00    -0.366 OA
ATOM     10  C   UNL     1     -16.270   6.038  22.481  0.00  0.00    +0.159 C 
ATOM     11  C   UNL     1     -16.006   4.629  21.961  0.00  0.00    +0.175 C 
ATOM     12  C   UNL     1     -16.512   3.773  23.104  0.00  0.00    +0.176 C 
ATOM     13  C   UNL     1     -17.739   4.551  23.547  0.00  0.00    +0.167 C 
ENDROOT
BRANCH  11   2
ATOM      2  O   UNL     1     -16.809   4.429  20.799  0.00  0.00    -0.387 OA
ATOM     33  H   UNL     1     -17.464   3.742  21.014  0.00  0.00    +0.210 HD
ENDBRANCH  11   2
BRANCH  12   3
ATOM      3  O   UNL     1     -16.832   2.454  22.714  0.00  0.00    -0.387 OA
ATOM     34  H   UNL     1     -16.607   1.868  23.456  0.00  0.00    +0.210 HD
ENDBRANCH  12   3
BRANCH  10  14
ATOM     14  C   UNL     1     -15.103   6.610  23.276  0.00  0.00    +0.130 C 
BRANCH  14  16
ATOM      4  O   UNL     1     -15.139   8.924  22.764  0.00  0.00    -0.275 OA
ATOM      7  N   UNL     1     -13.451   7.634  21.798  0.00  0.00    -0.271 N 
ATOM     16  C   UNL     1     -14.571   7.845  22.590  0.00  0.00    +0.222 C 
ATOM     17  C   UNL     1     -12.771   6.338  21.589  0.00  0.00    +0.118 C 
ATOM     18  C   UNL     1     -12.767   8.619  21.054  0.00  0.00    +0.039 A 
ATOM     19  C   UNL     1     -11.582   6.578  20.651  0.00  0.00    +0.056 C 
ATOM     20  C   UNL     1     -11.686   8.044  20.382  0.00  0.00    -0.024 A 
ATOM     21  C   UNL     1     -13.032   9.975  20.935  0.00  0.00    +0.024 A 
ATOM     22  C   UNL     1     -10.849   8.805  19.578  0.00  0.00    +0.005 A 
ATOM     24  C   UNL     1     -12.194  10.749  20.126  0.00  0.00    +0.002 A 
ATOM     25  C   UNL     1     -11.110  10.169  19.452  0.00  0.00    +0.000 A 
ENDBRANCH  14  16
ENDBRANCH  10  14
BRANCH  13  15
ATOM     15  C   UNL     1     -18.123   4.296  24.994  0.00  0.00    +0.140 C 
BRANCH  15   8
ATOM      5  O   UNL     1     -18.035   3.208  27.642  0.00  0.00    -0.253 OA
ATOM      8  N   UNL     1     -16.940   4.129  25.828  0.00  0.00    -0.297 N 
ATOM      9  N   UNL     1     -15.712   3.552  27.666  0.00  0.00    -0.269 N 
ATOM     23  C   UNL     1     -16.994   3.588  27.109  0.00  0.00    +0.304 C 
ATOM     35  H   UNL     1     -16.041   4.414  25.452  0.00  0.00    +0.150 HD
ATOM     36  H   UNL     1     -14.955   3.909  27.089  0.00  0.00    +0.156 HD
BRANCH   9  26
ATOM     26  C   UNL     1     -15.332   3.078  28.943  0.00  0.00    +0.038 A 
ATOM     27  C   UNL     1     -15.000   1.735  29.117  0.00  0.00    +0.069 A 
ATOM     28  C   UNL     1     -15.293   3.953  30.028  0.00  0.00    +0.023 A 
ATOM     29  C   UNL     1     -14.627   1.267  30.377  0.00  0.00    +0.122 A 
ATOM     30  C   UNL     1     -14.919   3.484  31.288  0.00  0.00    +0.005 A 
ATOM     31  C   UNL     1     -14.586   2.141  31.462  0.00  0.00    +0.046 A 
BRANCH  29   6
ATOM      6  O   UNL     1     -14.302  -0.044  30.547  0.00  0.00    -0.495 OA
ATOM     32  C   UNL     1     -13.520  -0.657  29.522  0.00  0.00    +0.277 C 
ENDBRANCH  29   6
ENDBRANCH   9  26
ENDBRANCH  15   8
ENDBRANCH  13  15
TORSDOF 8
ENDMDL
MODEL 10
REMARK VINA RESULT:      -6.8     30.699     35.585
REMARK  Name = 25390480
REMARK  9 active torsions:
REMARK  status: ('A' for Active; 'I' for Inactive)
REMARK    1  A    between atoms: O_2  and  C_11
REMARK    2  A    between atoms: O_3  and  C_12
REMARK    3  A    between atoms: O_6  and  C_29
REMARK    4  A    between atoms: O_6  and  C_32
REMARK    5  A    between atoms: N_8  and  C_15
REMARK    6  A    between atoms: N_9  and  C_26
REMARK    7  A    between atoms: C_10  and  C_14
REMARK    8  A    between atoms: C_13  and  C_15
REMARK    9  A    between atoms: C_14  and  C_16
REMARK                            x       y       z     vdW  Elec       q    Type
REMARK                         _______ _______ _______ _____ _____    ______ ____
ROOT
ATOM      1  O   UNL     1      12.727   3.812   1.677  0.00  0.00    -0.366 OA
ATOM     10  C   UNL     1      11.396   4.369   1.583  0.00  0.00    +0.159 C 
ATOM     11  C   UNL     1      11.197   4.763   0.123  0.00  0.00    +0.175 C 
ATOM     12  C   UNL     1      12.615   5.065  -0.317  0.00  0.00    +0.176 C 
ATOM     13  C   UNL     1      13.397   3.990   0.417  0.00  0.00    +0.167 C 
ENDROOT
BRANCH  11   2
ATOM      2  O   UNL     1      10.693   3.627  -0.578  0.00  0.00    -0.387 OA
ATOM     33  H   UNL     1      10.447   3.923  -1.472  0.00  0.00    +0.210 HD
ENDBRANCH  11   2
BRANCH  12   3
ATOM      3  O   UNL     1      12.794   4.990  -1.715  0.00  0.00    -0.387 OA
ATOM     34  H   UNL     1      13.741   4.843  -1.880  0.00  0.00    +0.210 HD
ENDBRANCH  12   3
BRANCH  10  14
ATOM     14  C   UNL     1      11.318   5.554   2.536  0.00  0.00    +0.130 C 
BRANCH  14  16
ATOM      4  O   UNL     1      10.744   3.879   4.113  0.00  0.00    -0.275 OA
ATOM      7  N   UNL     1      10.640   6.101   4.818  0.00  0.00    -0.271 N 
ATOM     16  C   UNL     1      10.872   5.085   3.901  0.00  0.00    +0.222 C 
ATOM     17  C   UNL     1      10.792   7.549   4.562  0.00  0.00    +0.118 C 
ATOM     18  C   UNL     1      10.217   5.929   6.153  0.00  0.00    +0.039 A 
ATOM     19  C   UNL     1      10.438   8.293   5.854  0.00  0.00    +0.056 C 
ATOM     20  C   UNL     1      10.090   7.171   6.777  0.00  0.00    -0.024 A 
ATOM     21  C   UNL     1       9.940   4.759   6.846  0.00  0.00    +0.024 A 
ATOM     22  C   UNL     1       9.687   7.275   8.101  0.00  0.00    +0.005 A 
ATOM     24  C   UNL     1       9.532   4.855   8.179  0.00  0.00    +0.002 A 
ATOM     25  C   UNL     1       9.406   6.104   8.803  0.00  0.00    +0.000 A 
ENDBRANCH  14  16
ENDBRANCH  10  14
BRANCH  13  15
ATOM     15  C   UNL     1      14.850   4.361   0.658  0.00  0.00    +0.140 C 
BRANCH  15   8
ATOM      5  O   UNL     1      14.923   7.044   1.658  0.00  0.00    -0.253 OA
ATOM      8  N   UNL     1      15.063   4.770   2.040  0.00  0.00    -0.297 N 
ATOM      9  N   UNL     1      15.307   6.192   3.812  0.00  0.00    -0.269 N 
ATOM     23  C   UNL     1      15.082   6.105   2.434  0.00  0.00    +0.304 C 
ATOM     35  H   UNL     1      15.196   4.048   2.741  0.00  0.00    +0.150 HD
ATOM     36  H   UNL     1      15.421   5.314   4.311  0.00  0.00    +0.156 HD
BRANCH   9  26
ATOM     26  C   UNL     1      15.397   7.359   4.605  0.00  0.00    +0.038 A 
ATOM     27  C   UNL     1      16.560   8.129   4.582  0.00  0.00    +0.069 A 
ATOM     28  C   UNL     1      14.325   7.739   5.411  0.00  0.00    +0.023 A 
ATOM     29  C   UNL     1      16.650   9.279   5.365  0.00  0.00    +0.122 A 
ATOM     30  C   UNL     1      14.416   8.890   6.194  0.00  0.00    +0.005 A 
ATOM     31  C   UNL     1      15.578   9.660   6.171  0.00  0.00    +0.046 A 
BRANCH  29   6
ATOM      6  O   UNL     1      17.785  10.031   5.342  0.00  0.00    -0.495 OA
ATOM     32  C   UNL     1      18.753   9.776   6.360  0.00  0.00    +0.277 C 
ENDBRANCH  29   6
ENDBRANCH   9  26
ENDBRANCH  15   8
ENDBRANCH  13  15
TORSDOF 8
ENDMDL
