MODEL 1
REMARK VINA RESULT:      -5.4      0.000      0.000
REMARK  Name = 75537116
REMARK  5 active torsions:
REMARK  status: ('A' for Active; 'I' for Inactive)
REMARK    1  A    between atoms: O_2  and  C_19
REMARK    2  A    between atoms: O_2  and  C_20
REMARK    3  A    between atoms: N_4  and  C_13
REMARK    4  A    between atoms: N_5  and  C_14
REMARK    5  A    between atoms: C_13  and  C_15
REMARK                            x       y       z     vdW  Elec       q    Type
REMARK                         _______ _______ _______ _____ _____    ______ ____
ROOT
ATOM      1  O   UNL     1      20.792   9.119  22.762  0.00  0.00    -0.252 OA
ATOM      3  N   UNL     1      19.101   8.150  21.451  0.00  0.00    -0.278 N 
ATOM      4  N   UNL     1      16.513   7.419  20.627  0.00  0.00    -0.295 NA
ATOM      5  N   UNL     1      20.940   6.935  21.881  0.00  0.00    -0.287 N 
ATOM      7  C   UNL     1      18.926   6.939  20.676  0.00  0.00    +0.109 C 
ATOM      8  C   UNL     1      17.523   6.372  20.884  0.00  0.00    +0.109 C 
ATOM      9  C   UNL     1      20.061   6.036  21.154  0.00  0.00    +0.132 C 
ATOM     10  C   UNL     1      18.089   9.183  21.388  0.00  0.00    +0.125 C 
ATOM     11  C   UNL     1      16.698   8.564  21.540  0.00  0.00    +0.104 C 
ATOM     12  C   UNL     1      20.337   8.187  22.111  0.00  0.00    +0.305 C 
ATOM     14  C   UNL     1      22.211   6.499  22.416  0.00  0.00    +0.133 C 
ENDROOT
BRANCH   4  13
ATOM     13  C   UNL     1      15.164   6.870  20.764  0.00  0.00    +0.121 C 
BRANCH  13  15
ATOM      6  N   UNL     1      12.116   7.152  18.536  0.00  0.00    -0.221 NA
ATOM     15  C   UNL     1      14.289   7.232  19.594  0.00  0.00    -0.015 A 
ATOM     16  C   UNL     1      14.795   7.952  18.517  0.00  0.00    +0.011 A 
ATOM     17  C   UNL     1      12.956   6.859  19.555  0.00  0.00    +0.119 A 
ATOM     18  C   UNL     1      13.962   8.272  17.449  0.00  0.00    +0.067 A 
ATOM     19  C   UNL     1      12.643   7.853  17.507  0.00  0.00    +0.214 A 
BRANCH  19   2
ATOM      2  O   UNL     1      11.804   8.157  16.467  0.00  0.00    -0.480 OA
ATOM     20  C   UNL     1      10.499   8.610  16.810  0.00  0.00    +0.279 C 
ENDBRANCH  19   2
ENDBRANCH  13  15
ENDBRANCH   4  13
TORSDOF 3
ENDMDL
MODEL 2
REMARK VINA RESULT:      -5.2      2.124      2.302
REMARK  Name = 75537116
REMARK  5 active torsions:
REMARK  status: ('A' for Active; 'I' for Inactive)
REMARK    1  A    between atoms: O_2  and  C_19
REMARK    2  A    between atoms: O_2  and  C_20
REMARK    3  A    between atoms: N_4  and  C_13
REMARK    4  A    between atoms: N_5  and  C_14
REMARK    5  A    between atoms: C_13  and  C_15
REMARK                            x       y       z     vdW  Elec       q    Type
REMARK                         _______ _______ _______ _____ _____    ______ ____
ROOT
ATOM      1  O   UNL     1      20.707   6.327  23.796  0.00  0.00    -0.252 OA
ATOM      3  N   UNL     1      19.659   6.473  21.698  0.00  0.00    -0.278 N 
ATOM      4  N   UNL     1      17.584   6.594  19.803  0.00  0.00    -0.295 NA
ATOM      5  N   UNL     1      21.419   5.095  21.914  0.00  0.00    -0.287 N 
ATOM      7  C   UNL     1      19.902   5.982  20.358  0.00  0.00    +0.109 C 
ATOM      8  C   UNL     1      18.595   5.521  19.715  0.00  0.00    +0.109 C 
ATOM      9  C   UNL     1      20.942   4.881  20.558  0.00  0.00    +0.132 C 
ATOM     10  C   UNL     1      18.588   7.420  21.922  0.00  0.00    +0.125 C 
ATOM     11  C   UNL     1      17.316   6.950  21.211  0.00  0.00    +0.104 C 
ATOM     12  C   UNL     1      20.610   6.008  22.617  0.00  0.00    +0.305 C 
ATOM     14  C   UNL     1      22.505   4.322  22.475  0.00  0.00    +0.133 C 
ENDROOT
BRANCH   4  13
ATOM     13  C   UNL     1      16.348   6.186  19.137  0.00  0.00    +0.121 C 
BRANCH  13  15
ATOM      6  N   UNL     1      13.152   7.419  20.750  0.00  0.00    -0.221 NA
ATOM     15  C   UNL     1      15.193   7.082  19.498  0.00  0.00    -0.015 A 
ATOM     16  C   UNL     1      15.076   8.355  18.950  0.00  0.00    +0.011 A 
ATOM     17  C   UNL     1      14.214   6.665  20.384  0.00  0.00    +0.119 A 
ATOM     18  C   UNL     1      13.998   9.161  19.301  0.00  0.00    +0.067 A 
ATOM     19  C   UNL     1      13.072   8.651  20.197  0.00  0.00    +0.214 A 
BRANCH  19   2
ATOM      2  O   UNL     1      12.002   9.426  20.558  0.00  0.00    -0.480 OA
ATOM     20  C   UNL     1      10.879   8.747  21.111  0.00  0.00    +0.279 C 
ENDBRANCH  19   2
ENDBRANCH  13  15
ENDBRANCH   4  13
TORSDOF 3
ENDMDL
MODEL 3
REMARK VINA RESULT:      -5.2     27.859     30.435
REMARK  Name = 75537116
REMARK  5 active torsions:
REMARK  status: ('A' for Active; 'I' for Inactive)
REMARK    1  A    between atoms: O_2  and  C_19
REMARK    2  A    between atoms: O_2  and  C_20
REMARK    3  A    between atoms: N_4  and  C_13
REMARK    4  A    between atoms: N_5  and  C_14
REMARK    5  A    between atoms: C_13  and  C_15
REMARK                            x       y       z     vdW  Elec       q    Type
REMARK                         _______ _______ _______ _____ _____    ______ ____
ROOT
ATOM      1  O   UNL     1      -4.710 -11.606  18.886  0.00  0.00    -0.252 OA
ATOM      3  N   UNL     1      -6.463 -10.354  17.950  0.00  0.00    -0.278 N 
ATOM      4  N   UNL     1      -9.077  -9.678  17.162  0.00  0.00    -0.295 NA
ATOM      5  N   UNL     1      -4.542 -10.519  16.799  0.00  0.00    -0.287 N 
ATOM      7  C   UNL     1      -6.650  -9.487  16.805  0.00  0.00    +0.109 C 
ATOM      8  C   UNL     1      -8.004  -9.756  16.150  0.00  0.00    +0.109 C 
ATOM      9  C   UNL     1      -5.439  -9.787  15.922  0.00  0.00    +0.132 C 
ATOM     10  C   UNL     1      -7.521 -10.467  18.932  0.00  0.00    +0.125 C 
ATOM     11  C   UNL     1      -8.865 -10.674  18.231  0.00  0.00    +0.104 C 
ATOM     12  C   UNL     1      -5.178 -10.911  17.994  0.00  0.00    +0.305 C 
ATOM     14  C   UNL     1      -3.212 -10.907  16.383  0.00  0.00    +0.133 C 
ENDROOT
BRANCH   4  13
ATOM     13  C   UNL     1     -10.384  -9.873  16.535  0.00  0.00    +0.121 C 
BRANCH  13  15
ATOM      6  N   UNL     1     -12.274  -7.420  14.356  0.00  0.00    -0.221 NA
ATOM     15  C   UNL     1     -10.958  -8.580  16.021  0.00  0.00    -0.015 A 
ATOM     16  C   UNL     1     -10.731  -7.380  16.687  0.00  0.00    +0.011 A 
ATOM     17  C   UNL     1     -11.729  -8.546  14.871  0.00  0.00    +0.119 A 
ATOM     18  C   UNL     1     -11.274  -6.200  16.188  0.00  0.00    +0.067 A 
ATOM     19  C   UNL     1     -12.031  -6.274  15.031  0.00  0.00    +0.214 A 
BRANCH  19   2
ATOM      2  O   UNL     1     -12.577  -5.125  14.521  0.00  0.00    -0.480 OA
ATOM     20  C   UNL     1     -12.241  -4.800  13.177  0.00  0.00    +0.279 C 
ENDBRANCH  19   2
ENDBRANCH  13  15
ENDBRANCH   4  13
TORSDOF 3
ENDMDL
MODEL 4
REMARK VINA RESULT:      -5.2     27.799     28.935
REMARK  Name = 75537116
REMARK  5 active torsions:
REMARK  status: ('A' for Active; 'I' for Inactive)
REMARK    1  A    between atoms: O_2  and  C_19
REMARK    2  A    between atoms: O_2  and  C_20
REMARK    3  A    between atoms: N_4  and  C_13
REMARK    4  A    between atoms: N_5  and  C_14
REMARK    5  A    between atoms: C_13  and  C_15
REMARK                            x       y       z     vdW  Elec       q    Type
REMARK                         _______ _______ _______ _____ _____    ______ ____
ROOT
ATOM      1  O   UNL     1      -6.348 -11.664  17.066  0.00  0.00    -0.252 OA
ATOM      3  N   UNL     1      -4.745 -10.860  15.549  0.00  0.00    -0.278 N 
ATOM      4  N   UNL     1      -3.348 -10.541  13.128  0.00  0.00    -0.295 NA
ATOM      5  N   UNL     1      -4.065 -11.427  17.613  0.00  0.00    -0.287 N 
ATOM      7  C   UNL     1      -3.348 -10.480  15.588  0.00  0.00    +0.109 C 
ATOM      8  C   UNL     1      -2.625 -10.982  14.339  0.00  0.00    +0.109 C 
ATOM      9  C   UNL     1      -2.847 -11.077  16.902  0.00  0.00    +0.132 C 
ATOM     10  C   UNL     1      -5.513 -10.609  14.348  0.00  0.00    +0.125 C 
ATOM     11  C   UNL     1      -4.727 -11.070  13.118  0.00  0.00    +0.104 C 
ATOM     12  C   UNL     1      -5.199 -11.352  16.780  0.00  0.00    +0.305 C 
ATOM     14  C   UNL     1      -4.044 -11.932  18.967  0.00  0.00    +0.133 C 
ENDROOT
BRANCH   4  13
ATOM     13  C   UNL     1      -2.632 -10.964  11.925  0.00  0.00    +0.121 C 
BRANCH  13  15
ATOM      6  N   UNL     1      -4.627 -11.280   8.723  0.00  0.00    -0.221 NA
ATOM     15  C   UNL     1      -3.371 -10.586  10.670  0.00  0.00    -0.015 A 
ATOM     16  C   UNL     1      -3.493  -9.256  10.283  0.00  0.00    +0.011 A 
ATOM     17  C   UNL     1      -3.950 -11.551   9.862  0.00  0.00    +0.119 A 
ATOM     18  C   UNL     1      -4.182  -8.937   9.117  0.00  0.00    +0.067 A 
ATOM     19  C   UNL     1      -4.725  -9.976   8.380  0.00  0.00    +0.214 A 
BRANCH  19   2
ATOM      2  O   UNL     1      -5.408  -9.686   7.227  0.00  0.00    -0.480 OA
ATOM     20  C   UNL     1      -5.573 -10.751   6.298  0.00  0.00    +0.279 C 
ENDBRANCH  19   2
ENDBRANCH  13  15
ENDBRANCH   4  13
TORSDOF 3
ENDMDL
MODEL 5
REMARK VINA RESULT:      -5.1     14.904     18.197
REMARK  Name = 75537116
REMARK  5 active torsions:
REMARK  status: ('A' for Active; 'I' for Inactive)
REMARK    1  A    between atoms: O_2  and  C_19
REMARK    2  A    between atoms: O_2  and  C_20
REMARK    3  A    between atoms: N_4  and  C_13
REMARK    4  A    between atoms: N_5  and  C_14
REMARK    5  A    between atoms: C_13  and  C_15
REMARK                            x       y       z     vdW  Elec       q    Type
REMARK                         _______ _______ _______ _____ _____    ______ ____
ROOT
ATOM      1  O   UNL     1      16.327   3.862  -0.587  0.00  0.00    -0.252 OA
ATOM      3  N   UNL     1      14.975   4.820   1.079  0.00  0.00    -0.278 N 
ATOM      4  N   UNL     1      12.668   5.376   2.589  0.00  0.00    -0.295 NA
ATOM      5  N   UNL     1      16.406   6.152  -0.026  0.00  0.00    -0.287 N 
ATOM      7  C   UNL     1      14.861   6.103   1.741  0.00  0.00    +0.109 C 
ATOM      8  C   UNL     1      13.391   6.479   1.923  0.00  0.00    +0.109 C 
ATOM      9  C   UNL     1      15.658   7.046   0.842  0.00  0.00    +0.132 C 
ATOM     10  C   UNL     1      14.191   3.702   1.561  0.00  0.00    +0.125 C 
ATOM     11  C   UNL     1      12.742   4.139   1.787  0.00  0.00    +0.104 C 
ATOM     12  C   UNL     1      15.953   4.822   0.075  0.00  0.00    +0.305 C 
ATOM     14  C   UNL     1      17.382   6.643  -0.973  0.00  0.00    +0.133 C 
ENDROOT
BRANCH   4  13
ATOM     13  C   UNL     1      11.274   5.749   2.823  0.00  0.00    +0.121 C 
BRANCH  13  15
ATOM      6  N   UNL     1      11.256   6.461   6.542  0.00  0.00    -0.221 NA
ATOM     15  C   UNL     1      10.910   5.673   4.282  0.00  0.00    -0.015 A 
ATOM     16  C   UNL     1       9.935   4.789   4.732  0.00  0.00    +0.011 A 
ATOM     17  C   UNL     1      11.535   6.480   5.219  0.00  0.00    +0.119 A 
ATOM     18  C   UNL     1       9.620   4.741   6.086  0.00  0.00    +0.067 A 
ATOM     19  C   UNL     1      10.303   5.590   6.942  0.00  0.00    +0.214 A 
BRANCH  19   2
ATOM      2  O   UNL     1      10.009   5.560   8.280  0.00  0.00    -0.480 OA
ATOM     20  C   UNL     1       9.633   4.300   8.824  0.00  0.00    +0.279 C 
ENDBRANCH  19   2
ENDBRANCH  13  15
ENDBRANCH   4  13
TORSDOF 3
ENDMDL
MODEL 6
REMARK VINA RESULT:      -5.1     27.419     30.212
REMARK  Name = 75537116
REMARK  5 active torsions:
REMARK  status: ('A' for Active; 'I' for Inactive)
REMARK    1  A    between atoms: O_2  and  C_19
REMARK    2  A    between atoms: O_2  and  C_20
REMARK    3  A    between atoms: N_4  and  C_13
REMARK    4  A    between atoms: N_5  and  C_14
REMARK    5  A    between atoms: C_13  and  C_15
REMARK                            x       y       z     vdW  Elec       q    Type
REMARK                         _______ _______ _______ _____ _____    ______ ____
ROOT
ATOM      1  O   UNL     1      -9.823 -11.713  20.456  0.00  0.00    -0.252 OA
ATOM      3  N   UNL     1      -8.223 -11.379  18.768  0.00  0.00    -0.278 N 
ATOM      4  N   UNL     1      -5.714 -10.918  17.583  0.00  0.00    -0.295 NA
ATOM      5  N   UNL     1     -10.185 -10.299  18.603  0.00  0.00    -0.287 N 
ATOM      7  C   UNL     1      -8.165 -10.715  17.483  0.00  0.00    +0.109 C 
ATOM      8  C   UNL     1      -6.831  -9.987  17.320  0.00  0.00    +0.109 C 
ATOM      9  C   UNL     1      -9.394  -9.809  17.487  0.00  0.00    +0.132 C 
ATOM     10  C   UNL     1      -7.109 -12.200  19.192  0.00  0.00    +0.125 C 
ATOM     11  C   UNL     1      -5.792 -11.457  18.955  0.00  0.00    +0.104 C 
ATOM     12  C   UNL     1      -9.458 -11.199  19.407  0.00  0.00    +0.305 C 
ATOM     14  C   UNL     1     -11.501  -9.777  18.897  0.00  0.00    +0.133 C 
ENDROOT
BRANCH   4  13
ATOM     13  C   UNL     1      -4.432 -10.248  17.371  0.00  0.00    +0.121 C 
BRANCH  13  15
ATOM      6  N   UNL     1      -3.427 -12.640  14.614  0.00  0.00    -0.221 NA
ATOM     15  C   UNL     1      -3.594 -10.954  16.339  0.00  0.00    -0.015 A 
ATOM     16  C   UNL     1      -2.261 -10.610  16.142  0.00  0.00    +0.011 A 
ATOM     17  C   UNL     1      -4.124 -11.966  15.557  0.00  0.00    +0.119 A 
ATOM     18  C   UNL     1      -1.510 -11.280  15.181  0.00  0.00    +0.067 A 
ATOM     19  C   UNL     1      -2.134 -12.278  14.450  0.00  0.00    +0.214 A 
BRANCH  19   2
ATOM      2  O   UNL     1      -1.416 -12.952  13.498  0.00  0.00    -0.480 OA
ATOM     20  C   UNL     1      -1.432 -14.373  13.573  0.00  0.00    +0.279 C 
ENDBRANCH  19   2
ENDBRANCH  13  15
ENDBRANCH   4  13
TORSDOF 3
ENDMDL
MODEL 7
REMARK VINA RESULT:      -5.1     27.084     31.001
REMARK  Name = 75537116
REMARK  5 active torsions:
REMARK  status: ('A' for Active; 'I' for Inactive)
REMARK    1  A    between atoms: O_2  and  C_19
REMARK    2  A    between atoms: O_2  and  C_20
REMARK    3  A    between atoms: N_4  and  C_13
REMARK    4  A    between atoms: N_5  and  C_14
REMARK    5  A    between atoms: C_13  and  C_15
REMARK                            x       y       z     vdW  Elec       q    Type
REMARK                         _______ _______ _______ _____ _____    ______ ____
ROOT
ATOM      1  O   UNL     1     -12.495  -8.484  13.487  0.00  0.00    -0.252 OA
ATOM      3  N   UNL     1     -10.611  -8.322  14.880  0.00  0.00    -0.278 N 
ATOM      4  N   UNL     1      -8.547  -9.134  16.610  0.00  0.00    -0.295 NA
ATOM      5  N   UNL     1     -12.223  -6.772  15.087  0.00  0.00    -0.287 N 
ATOM      7  C   UNL     1     -10.081  -7.372  15.836  0.00  0.00    +0.109 C 
ATOM      8  C   UNL     1      -9.509  -8.103  17.050  0.00  0.00    +0.109 C 
ATOM      9  C   UNL     1     -11.269  -6.460  16.137  0.00  0.00    +0.132 C 
ATOM     10  C   UNL     1      -9.804  -9.459  14.491  0.00  0.00    +0.125 C 
ATOM     11  C   UNL     1      -9.203 -10.123  15.731  0.00  0.00    +0.104 C 
ATOM     12  C   UNL     1     -11.855  -7.927  14.370  0.00  0.00    +0.305 C 
ATOM     14  C   UNL     1     -13.463  -6.043  14.937  0.00  0.00    +0.133 C 
ENDROOT
BRANCH   4  13
ATOM     13  C   UNL     1      -7.948  -9.799  17.767  0.00  0.00    +0.121 C 
BRANCH  13  15
ATOM      6  N   UNL     1      -4.549 -10.007  16.113  0.00  0.00    -0.221 NA
ATOM     15  C   UNL     1      -6.508 -10.163  17.521  0.00  0.00    -0.015 A 
ATOM     16  C   UNL     1      -5.807 -10.959  18.421  0.00  0.00    +0.011 A 
ATOM     17  C   UNL     1      -5.840  -9.717  16.393  0.00  0.00    +0.119 A 
ATOM     18  C   UNL     1      -4.478 -11.279  18.168  0.00  0.00    +0.067 A 
ATOM     19  C   UNL     1      -3.900 -10.783  17.011  0.00  0.00    +0.214 A 
BRANCH  19   2
ATOM      2  O   UNL     1      -2.591 -11.085  16.740  0.00  0.00    -0.480 OA
ATOM     20  C   UNL     1      -2.091 -10.678  15.471  0.00  0.00    +0.279 C 
ENDBRANCH  19   2
ENDBRANCH  13  15
ENDBRANCH   4  13
TORSDOF 3
ENDMDL
MODEL 8
REMARK VINA RESULT:      -4.9     28.555     31.012
REMARK  Name = 75537116
REMARK  5 active torsions:
REMARK  status: ('A' for Active; 'I' for Inactive)
REMARK    1  A    between atoms: O_2  and  C_19
REMARK    2  A    between atoms: O_2  and  C_20
REMARK    3  A    between atoms: N_4  and  C_13
REMARK    4  A    between atoms: N_5  and  C_14
REMARK    5  A    between atoms: C_13  and  C_15
REMARK                            x       y       z     vdW  Elec       q    Type
REMARK                         _______ _______ _______ _____ _____    ______ ____
ROOT
ATOM      1  O   UNL     1       3.662   7.992  -4.053  0.00  0.00    -0.252 OA
ATOM      3  N   UNL     1       2.348   6.336  -5.079  0.00  0.00    -0.278 N 
ATOM      4  N   UNL     1       1.697   3.903  -6.331  0.00  0.00    -0.295 NA
ATOM      5  N   UNL     1       2.037   8.474  -5.694  0.00  0.00    -0.287 N 
ATOM      7  C   UNL     1       1.220   6.292  -5.986  0.00  0.00    +0.109 C 
ATOM      8  C   UNL     1       1.409   5.180  -7.016  0.00  0.00    +0.109 C 
ATOM      9  C   UNL     1       1.169   7.704  -6.569  0.00  0.00    +0.132 C 
ATOM     10  C   UNL     1       2.811   5.110  -4.465  0.00  0.00    +0.125 C 
ATOM     11  C   UNL     1       2.927   4.008  -5.520  0.00  0.00    +0.104 C 
ATOM     12  C   UNL     1       2.790   7.645  -4.839  0.00  0.00    +0.305 C 
ATOM     14  C   UNL     1       2.188   9.905  -5.831  0.00  0.00    +0.133 C 
ENDROOT
BRANCH   4  13
ATOM     13  C   UNL     1       1.819   2.819  -7.305  0.00  0.00    +0.121 C 
BRANCH  13  15
ATOM      6  N   UNL     1       0.051  -0.021  -5.532  0.00  0.00    -0.221 NA
ATOM     15  C   UNL     1       0.846   1.704  -7.028  0.00  0.00    -0.015 A 
ATOM     16  C   UNL     1      -0.128   1.357  -7.958  0.00  0.00    +0.011 A 
ATOM     17  C   UNL     1       0.894   0.990  -5.842  0.00  0.00    +0.119 A 
ATOM     18  C   UNL     1      -1.014   0.322  -7.675  0.00  0.00    +0.067 A 
ATOM     19  C   UNL     1      -0.883  -0.329  -6.459  0.00  0.00    +0.214 A 
BRANCH  19   2
ATOM      2  O   UNL     1      -1.744  -1.352  -6.158  0.00  0.00    -0.480 OA
ATOM     20  C   UNL     1      -2.611  -1.785  -7.201  0.00  0.00    +0.279 C 
ENDBRANCH  19   2
ENDBRANCH  13  15
ENDBRANCH   4  13
TORSDOF 3
ENDMDL
MODEL 9
REMARK VINA RESULT:      -4.9     26.881     29.718
REMARK  Name = 75537116
REMARK  5 active torsions:
REMARK  status: ('A' for Active; 'I' for Inactive)
REMARK    1  A    between atoms: O_2  and  C_19
REMARK    2  A    between atoms: O_2  and  C_20
REMARK    3  A    between atoms: N_4  and  C_13
REMARK    4  A    between atoms: N_5  and  C_14
REMARK    5  A    between atoms: C_13  and  C_15
REMARK                            x       y       z     vdW  Elec       q    Type
REMARK                         _______ _______ _______ _____ _____    ______ ____
ROOT
ATOM      1  O   UNL     1      -5.260 -10.383   6.601  0.00  0.00    -0.252 OA
ATOM      3  N   UNL     1      -4.716 -10.795   8.849  0.00  0.00    -0.278 N 
ATOM      4  N   UNL     1      -3.388 -10.548  11.316  0.00  0.00    -0.295 NA
ATOM      5  N   UNL     1      -5.067 -12.556   7.500  0.00  0.00    -0.287 N 
ATOM      7  C   UNL     1      -4.645 -11.945   9.727  0.00  0.00    +0.109 C 
ATOM      8  C   UNL     1      -3.412 -11.853  10.624  0.00  0.00    +0.109 C 
ATOM      9  C   UNL     1      -4.655 -13.134   8.768  0.00  0.00    +0.132 C 
ATOM     10  C   UNL     1      -4.554  -9.468   9.406  0.00  0.00    +0.125 C 
ATOM     11  C   UNL     1      -3.345  -9.438  10.344  0.00  0.00    +0.104 C 
ATOM     12  C   UNL     1      -5.045 -11.147   7.533  0.00  0.00    +0.305 C 
ATOM     14  C   UNL     1      -5.309 -13.370   6.330  0.00  0.00    +0.133 C 
ENDROOT
BRANCH   4  13
ATOM     13  C   UNL     1      -2.244 -10.475  12.224  0.00  0.00    +0.121 C 
BRANCH  13  15
ATOM      6  N   UNL     1      -2.029 -10.932  15.976  0.00  0.00    -0.221 NA
ATOM     15  C   UNL     1      -2.661 -10.611  13.664  0.00  0.00    -0.015 A 
ATOM     16  C   UNL     1      -4.001 -10.551  14.031  0.00  0.00    +0.011 A 
ATOM     17  C   UNL     1      -1.723 -10.802  14.666  0.00  0.00    +0.119 A 
ATOM     18  C   UNL     1      -4.356 -10.682  15.370  0.00  0.00    +0.067 A 
ATOM     19  C   UNL     1      -3.342 -10.868  16.295  0.00  0.00    +0.214 A 
BRANCH  19   2
ATOM      2  O   UNL     1      -3.667 -10.999  17.619  0.00  0.00    -0.480 OA
ATOM     20  C   UNL     1      -5.041 -10.842  17.958  0.00  0.00    +0.279 C 
ENDBRANCH  19   2
ENDBRANCH  13  15
ENDBRANCH   4  13
TORSDOF 3
ENDMDL
MODEL 10
REMARK VINA RESULT:      -4.7     14.937     18.999
REMARK  Name = 75537116
REMARK  5 active torsions:
REMARK  status: ('A' for Active; 'I' for Inactive)
REMARK    1  A    between atoms: O_2  and  C_19
REMARK    2  A    between atoms: O_2  and  C_20
REMARK    3  A    between atoms: N_4  and  C_13
REMARK    4  A    between atoms: N_5  and  C_14
REMARK    5  A    between atoms: C_13  and  C_15
REMARK                            x       y       z     vdW  Elec       q    Type
REMARK                         _______ _______ _______ _____ _____    ______ ____
ROOT
ATOM      1  O   UNL     1      11.206   5.784  -2.248  0.00  0.00    -0.252 OA
ATOM      3  N   UNL     1      11.340   5.404   0.066  0.00  0.00    -0.278 N 
ATOM      4  N   UNL     1      11.598   5.971   2.809  0.00  0.00    -0.295 NA
ATOM      5  N   UNL     1      12.492   4.046  -1.303  0.00  0.00    -0.287 N 
ATOM      7  C   UNL     1      11.903   4.397   0.942  0.00  0.00    +0.109 C 
ATOM      8  C   UNL     1      12.556   5.054   2.157  0.00  0.00    +0.109 C 
ATOM      9  C   UNL     1      12.861   3.625   0.037  0.00  0.00    +0.132 C 
ATOM     10  C   UNL     1      10.504   6.444   0.628  0.00  0.00    +0.125 C 
ATOM     11  C   UNL     1      11.167   7.031   1.876  0.00  0.00    +0.104 C 
ATOM     12  C   UNL     1      11.623   5.155  -1.284  0.00  0.00    +0.305 C 
ATOM     14  C   UNL     1      13.092   3.464  -2.482  0.00  0.00    +0.133 C 
ENDROOT
BRANCH   4  13
ATOM     13  C   UNL     1      12.193   6.559   4.009  0.00  0.00    +0.121 C 
BRANCH  13  15
ATOM      6  N   UNL     1      11.071   6.527   7.624  0.00  0.00    -0.221 NA
ATOM     15  C   UNL     1      11.365   6.287   5.236  0.00  0.00    -0.015 A 
ATOM     16  C   UNL     1      10.174   5.574   5.154  0.00  0.00    +0.011 A 
ATOM     17  C   UNL     1      11.766   6.736   6.484  0.00  0.00    +0.119 A 
ATOM     18  C   UNL     1       9.431   5.337   6.306  0.00  0.00    +0.067 A 
ATOM     19  C   UNL     1       9.918   5.830   7.505  0.00  0.00    +0.214 A 
BRANCH  19   2
ATOM      2  O   UNL     1       9.203   5.610   8.653  0.00  0.00    -0.480 OA
ATOM     20  C   UNL     1       9.405   4.359   9.301  0.00  0.00    +0.279 C 
ENDBRANCH  19   2
ENDBRANCH  13  15
ENDBRANCH   4  13
TORSDOF 3
ENDMDL
