MODEL 1
REMARK VINA RESULT:      -7.1      0.000      0.000
REMARK  Name = 75536470
REMARK  9 active torsions:
REMARK  status: ('A' for Active; 'I' for Inactive)
REMARK    1  A    between atoms: O_2  and  C_11
REMARK    2  A    between atoms: N_4  and  C_10
REMARK    3  A    between atoms: N_4  and  C_19
REMARK    4  A    between atoms: N_4  and  C_20
REMARK    5  A    between atoms: N_5  and  C_17
REMARK    6  A    between atoms: C_12  and  C_18
REMARK    7  A    between atoms: C_13  and  C_17
REMARK    8  A    between atoms: C_19  and  C_21
REMARK    9  A    between atoms: C_20  and  C_22
REMARK                            x       y       z     vdW  Elec       q    Type
REMARK                         _______ _______ _______ _____ _____    ______ ____
ROOT
ATOM      4  N   UNL     1      13.388   8.018  19.526  0.00  0.00    -0.280 NA
ENDROOT
BRANCH   4  10
ATOM      1  O   UNL     1      12.582  10.803  21.722  0.00  0.00    -0.371 OA
ATOM     10  C   UNL     1      12.618   9.148  20.019  0.00  0.00    +0.114 C 
ATOM     11  C   UNL     1      11.576   8.769  21.056  0.00  0.00    +0.164 C 
ATOM     13  C   UNL     1      11.320  10.115  21.719  0.00  0.00    +0.165 C 
ATOM     16  C   UNL     1      13.462  10.148  20.793  0.00  0.00    +0.182 C 
BRANCH  11   2
ATOM      2  O   UNL     1      10.402   8.233  20.479  0.00  0.00    -0.388 OA
ATOM     28  H   UNL     1       9.913   7.755  21.170  0.00  0.00    +0.210 HD
ENDBRANCH  11   2
BRANCH  13  17
ATOM     17  C   UNL     1      10.798   9.995  23.140  0.00  0.00    +0.138 C 
BRANCH  17   5
ATOM      3  O   UNL     1      11.888  11.385  25.450  0.00  0.00    -0.276 OA
ATOM      5  N   UNL     1      10.400  11.270  23.660  0.00  0.00    -0.313 N 
ATOM     18  C   UNL     1      10.981  11.859  24.774  0.00  0.00    +0.216 C 
ATOM     27  H   UNL     1       9.663  11.770  23.171  0.00  0.00    +0.149 HD
BRANCH  18  12
ATOM     12  C   UNL     1      10.412  13.190  25.136  0.00  0.00    +0.075 C 
ATOM     14  C   UNL     1       9.978  14.102  24.037  0.00  0.00    +0.013 C 
ATOM     15  C   UNL     1      11.210  14.414  24.831  0.00  0.00    +0.013 C 
ENDBRANCH  18  12
ENDBRANCH  17   5
ENDBRANCH  13  17
ENDBRANCH   4  10
BRANCH   4  19
ATOM     19  C   UNL     1      12.597   7.218  18.587  0.00  0.00    +0.159 C 
BRANCH  19  21
ATOM      6  N   UNL     1      10.798   8.281  17.203  0.00  0.00    -0.347 N 
ATOM      8  N   UNL     1      12.878   8.592  16.488  0.00  0.00    -0.239 NA
ATOM     21  C   UNL     1      12.126   8.036  17.413  0.00  0.00    +0.121 A 
ATOM     23  C   UNL     1      10.694   9.040  16.072  0.00  0.00    +0.104 A 
ATOM     25  C   UNL     1      11.990   9.219  15.649  0.00  0.00    +0.130 A 
ATOM     29  H   UNL     1      10.031   7.961  17.780  0.00  0.00    +0.167 HD
ENDBRANCH  19  21
ENDBRANCH   4  19
BRANCH   4  20
ATOM     20  C   UNL     1      13.850   7.179  20.637  0.00  0.00    +0.159 C 
BRANCH  20  22
ATOM      7  N   UNL     1      16.152   7.061  21.620  0.00  0.00    -0.347 N 
ATOM      9  N   UNL     1      15.980   6.463  19.488  0.00  0.00    -0.239 NA
ATOM     22  C   UNL     1      15.324   6.890  20.545  0.00  0.00    +0.121 A 
ATOM     24  C   UNL     1      17.415   6.721  21.224  0.00  0.00    +0.104 A 
ATOM     26  C   UNL     1      17.283   6.355  19.904  0.00  0.00    +0.130 A 
ATOM     30  H   UNL     1      15.881   7.383  22.539  0.00  0.00    +0.167 HD
ENDBRANCH  20  22
ENDBRANCH   4  20
TORSDOF 9
ENDMDL
MODEL 2
REMARK VINA RESULT:      -6.9      1.885      2.573
REMARK  Name = 75536470
REMARK  9 active torsions:
REMARK  status: ('A' for Active; 'I' for Inactive)
REMARK    1  A    between atoms: O_2  and  C_11
REMARK    2  A    between atoms: N_4  and  C_10
REMARK    3  A    between atoms: N_4  and  C_19
REMARK    4  A    between atoms: N_4  and  C_20
REMARK    5  A    between atoms: N_5  and  C_17
REMARK    6  A    between atoms: C_12  and  C_18
REMARK    7  A    between atoms: C_13  and  C_17
REMARK    8  A    between atoms: C_19  and  C_21
REMARK    9  A    between atoms: C_20  and  C_22
REMARK                            x       y       z     vdW  Elec       q    Type
REMARK                         _______ _______ _______ _____ _____    ______ ____
ROOT
ATOM      4  N   UNL     1      14.341   7.440  19.445  0.00  0.00    -0.280 NA
ENDROOT
BRANCH   4  10
ATOM      1  O   UNL     1      11.116   6.750  20.980  0.00  0.00    -0.371 OA
ATOM     10  C   UNL     1      13.423   7.054  20.504  0.00  0.00    +0.114 C 
ATOM     11  C   UNL     1      12.932   8.221  21.340  0.00  0.00    +0.164 C 
ATOM     13  C   UNL     1      11.681   7.626  21.970  0.00  0.00    +0.165 C 
ATOM     16  C   UNL     1      12.113   6.489  19.978  0.00  0.00    +0.182 C 
BRANCH  11   2
ATOM      2  O   UNL     1      13.872   8.628  22.316  0.00  0.00    -0.388 OA
ATOM     28  H   UNL     1      14.260   9.473  22.032  0.00  0.00    +0.210 HD
ENDBRANCH  11   2
BRANCH  13  17
ATOM     17  C   UNL     1      10.656   8.671  22.375  0.00  0.00    +0.138 C 
BRANCH  17   5
ATOM      3  O   UNL     1      11.019  11.549  22.176  0.00  0.00    -0.276 OA
ATOM      5  N   UNL     1      11.181   9.557  23.373  0.00  0.00    -0.313 N 
ATOM     18  C   UNL     1      11.317  10.925  23.188  0.00  0.00    +0.216 C 
ATOM     27  H   UNL     1      11.449   9.155  24.267  0.00  0.00    +0.149 HD
BRANCH  18  12
ATOM     12  C   UNL     1      11.883  11.653  24.361  0.00  0.00    +0.075 C 
ATOM     14  C   UNL     1      10.941  12.202  25.380  0.00  0.00    +0.013 C 
ATOM     15  C   UNL     1      11.673  13.127  24.455  0.00  0.00    +0.013 C 
ENDBRANCH  18  12
ENDBRANCH  17   5
ENDBRANCH  13  17
ENDBRANCH   4  10
BRANCH   4  19
ATOM     19  C   UNL     1      13.708   7.294  18.130  0.00  0.00    +0.159 C 
BRANCH  19  21
ATOM      6  N   UNL     1      14.420   9.663  17.727  0.00  0.00    -0.347 N 
ATOM      8  N   UNL     1      13.970   8.467  15.911  0.00  0.00    -0.239 NA
ATOM     21  C   UNL     1      14.026   8.455  17.224  0.00  0.00    +0.121 A 
ATOM     23  C   UNL     1      14.629  10.500  16.668  0.00  0.00    +0.104 A 
ATOM     25  C   UNL     1      14.346   9.739  15.558  0.00  0.00    +0.130 A 
ATOM     29  H   UNL     1      14.538   9.896  18.704  0.00  0.00    +0.167 HD
ENDBRANCH  19  21
ENDBRANCH   4  19
BRANCH   4  20
ATOM     20  C   UNL     1      15.569   6.642  19.503  0.00  0.00    +0.159 C 
BRANCH  20  22
ATOM      7  N   UNL     1      16.548   8.660  20.621  0.00  0.00    -0.347 N 
ATOM      9  N   UNL     1      17.782   6.816  20.704  0.00  0.00    -0.239 NA
ATOM     22  C   UNL     1      16.654   7.341  20.278  0.00  0.00    +0.121 A 
ATOM     24  C   UNL     1      17.679   8.998  21.309  0.00  0.00    +0.104 A 
ATOM     26  C   UNL     1      18.425   7.843  21.348  0.00  0.00    +0.130 A 
ATOM     30  H   UNL     1      15.776   9.275  20.403  0.00  0.00    +0.167 HD
ENDBRANCH  20  22
ENDBRANCH   4  20
TORSDOF 9
ENDMDL
MODEL 3
REMARK VINA RESULT:      -6.4      3.548      8.143
REMARK  Name = 75536470
REMARK  9 active torsions:
REMARK  status: ('A' for Active; 'I' for Inactive)
REMARK    1  A    between atoms: O_2  and  C_11
REMARK    2  A    between atoms: N_4  and  C_10
REMARK    3  A    between atoms: N_4  and  C_19
REMARK    4  A    between atoms: N_4  and  C_20
REMARK    5  A    between atoms: N_5  and  C_17
REMARK    6  A    between atoms: C_12  and  C_18
REMARK    7  A    between atoms: C_13  and  C_17
REMARK    8  A    between atoms: C_19  and  C_21
REMARK    9  A    between atoms: C_20  and  C_22
REMARK                            x       y       z     vdW  Elec       q    Type
REMARK                         _______ _______ _______ _____ _____    ______ ____
ROOT
ATOM      4  N   UNL     1      14.479   7.777  20.061  0.00  0.00    -0.280 NA
ENDROOT
BRANCH   4  10
ATOM      1  O   UNL     1      17.864   6.459  19.864  0.00  0.00    -0.371 OA
ATOM     10  C   UNL     1      15.921   7.826  19.886  0.00  0.00    +0.114 C 
ATOM     11  C   UNL     1      16.686   8.032  21.180  0.00  0.00    +0.164 C 
ATOM     13  C   UNL     1      18.072   7.545  20.783  0.00  0.00    +0.165 C 
ATOM     16  C   UNL     1      16.504   6.509  19.398  0.00  0.00    +0.182 C 
BRANCH  11   2
ATOM      2  O   UNL     1      16.700   9.383  21.597  0.00  0.00    -0.388 OA
ATOM     28  H   UNL     1      17.409   9.844  21.116  0.00  0.00    +0.210 HD
ENDBRANCH  11   2
BRANCH  13  17
ATOM     17  C   UNL     1      18.902   7.067  21.962  0.00  0.00    +0.138 C 
BRANCH  17   5
ATOM      3  O   UNL     1      21.046   5.955  23.582  0.00  0.00    -0.276 OA
ATOM      5  N   UNL     1      19.947   6.181  21.539  0.00  0.00    -0.313 N 
ATOM     18  C   UNL     1      20.933   5.698  22.388  0.00  0.00    +0.216 C 
ATOM     27  H   UNL     1      19.948   5.882  20.568  0.00  0.00    +0.149 HD
BRANCH  18  12
ATOM     12  C   UNL     1      21.918   4.787  21.735  0.00  0.00    +0.075 C 
ATOM     14  C   UNL     1      21.408   3.571  21.037  0.00  0.00    +0.013 C 
ATOM     15  C   UNL     1      22.149   3.441  22.334  0.00  0.00    +0.013 C 
ENDBRANCH  18  12
ENDBRANCH  17   5
ENDBRANCH  13  17
ENDBRANCH   4  10
BRANCH   4  19
ATOM     19  C   UNL     1      14.134   7.262  21.389  0.00  0.00    +0.159 C 
BRANCH  19  21
ATOM      6  N   UNL     1      12.367   8.760  22.346  0.00  0.00    -0.347 N 
ATOM      8  N   UNL     1      11.660   6.799  21.579  0.00  0.00    -0.239 NA
ATOM     21  C   UNL     1      12.707   7.574  21.758  0.00  0.00    +0.121 A 
ATOM     23  C   UNL     1      11.017   8.742  22.555  0.00  0.00    +0.104 A 
ATOM     25  C   UNL     1      10.603   7.522  22.074  0.00  0.00    +0.130 A 
ATOM     29  H   UNL     1      12.997   9.515  22.580  0.00  0.00    +0.167 HD
ENDBRANCH  19  21
ENDBRANCH   4  19
BRANCH   4  20
ATOM     20  C   UNL     1      13.856   6.950  19.023  0.00  0.00    +0.159 C 
BRANCH  20  22
ATOM      7  N   UNL     1      13.529   8.615  17.179  0.00  0.00    -0.347 N 
ATOM      9  N   UNL     1      11.674   7.775  18.063  0.00  0.00    -0.239 NA
ATOM     22  C   UNL     1      12.988   7.765  18.104  0.00  0.00    +0.121 A 
ATOM     24  C   UNL     1      12.496   9.204  16.507  0.00  0.00    +0.104 A 
ATOM     26  C   UNL     1      11.360   8.669  17.071  0.00  0.00    +0.130 A 
ATOM     30  H   UNL     1      14.514   8.781  17.023  0.00  0.00    +0.167 HD
ENDBRANCH  20  22
ENDBRANCH   4  20
TORSDOF 9
ENDMDL
MODEL 4
REMARK VINA RESULT:      -6.3      2.662      7.051
REMARK  Name = 75536470
REMARK  9 active torsions:
REMARK  status: ('A' for Active; 'I' for Inactive)
REMARK    1  A    between atoms: O_2  and  C_11
REMARK    2  A    between atoms: N_4  and  C_10
REMARK    3  A    between atoms: N_4  and  C_19
REMARK    4  A    between atoms: N_4  and  C_20
REMARK    5  A    between atoms: N_5  and  C_17
REMARK    6  A    between atoms: C_12  and  C_18
REMARK    7  A    between atoms: C_13  and  C_17
REMARK    8  A    between atoms: C_19  and  C_21
REMARK    9  A    between atoms: C_20  and  C_22
REMARK                            x       y       z     vdW  Elec       q    Type
REMARK                         _______ _______ _______ _____ _____    ______ ____
ROOT
ATOM      4  N   UNL     1      11.890   9.708  21.949  0.00  0.00    -0.280 NA
ENDROOT
BRANCH   4  10
ATOM      1  O   UNL     1      13.672   7.033  20.245  0.00  0.00    -0.371 OA
ATOM     10  C   UNL     1      12.047   8.435  21.264  0.00  0.00    +0.114 C 
ATOM     11  C   UNL     1      11.911   8.534  19.756  0.00  0.00    +0.164 C 
ATOM     13  C   UNL     1      12.598   7.249  19.314  0.00  0.00    +0.165 C 
ATOM     16  C   UNL     1      13.447   7.857  21.401  0.00  0.00    +0.182 C 
BRANCH  11   2
ATOM      2  O   UNL     1      10.563   8.583  19.332  0.00  0.00    -0.388 OA
ATOM     28  H   UNL     1       9.993   8.494  20.115  0.00  0.00    +0.210 HD
ENDBRANCH  11   2
BRANCH  13  17
ATOM     17  C   UNL     1      13.151   7.319  17.901  0.00  0.00    +0.138 C 
BRANCH  17   5
ATOM      3  O   UNL     1      13.079   8.666  15.325  0.00  0.00    -0.276 OA
ATOM      5  N   UNL     1      13.623   8.637  17.591  0.00  0.00    -0.313 N 
ATOM     18  C   UNL     1      13.546   9.200  16.324  0.00  0.00    +0.216 C 
ATOM     27  H   UNL     1      14.020   9.187  18.347  0.00  0.00    +0.149 HD
BRANCH  18  12
ATOM     12  C   UNL     1      14.097  10.584  16.230  0.00  0.00    +0.075 C 
ATOM     14  C   UNL     1      13.923  11.334  14.951  0.00  0.00    +0.013 C 
ATOM     15  C   UNL     1      15.275  10.823  15.347  0.00  0.00    +0.013 C 
ENDBRANCH  18  12
ENDBRANCH  17   5
ENDBRANCH  13  17
ENDBRANCH   4  10
BRANCH   4  19
ATOM     19  C   UNL     1      13.196  10.281  22.288  0.00  0.00    +0.159 C 
BRANCH  19  21
ATOM      6  N   UNL     1      14.326  11.401  20.352  0.00  0.00    -0.347 N 
ATOM      8  N   UNL     1      13.082  12.717  21.638  0.00  0.00    -0.239 NA
ATOM     21  C   UNL     1      13.513  11.489  21.448  0.00  0.00    +0.121 A 
ATOM     23  C   UNL     1      14.420  12.651  19.809  0.00  0.00    +0.104 A 
ATOM     25  C   UNL     1      13.643  13.446  20.619  0.00  0.00    +0.130 A 
ATOM     29  H   UNL     1      14.775  10.564  20.005  0.00  0.00    +0.167 HD
ENDBRANCH  19  21
ENDBRANCH   4  19
BRANCH   4  20
ATOM     20  C   UNL     1      11.079   9.551  23.160  0.00  0.00    +0.159 C 
BRANCH  20  22
ATOM      7  N   UNL     1      10.391  11.956  23.297  0.00  0.00    -0.347 N 
ATOM      9  N   UNL     1      11.253  11.091  25.151  0.00  0.00    -0.239 NA
ATOM     22  C   UNL     1      10.922  10.851  23.901  0.00  0.00    +0.121 A 
ATOM     24  C   UNL     1      10.382  12.965  24.219  0.00  0.00    +0.104 A 
ATOM     26  C   UNL     1      10.919  12.406  25.355  0.00  0.00    +0.130 A 
ATOM     30  H   UNL     1      10.067  12.018  22.341  0.00  0.00    +0.167 HD
ENDBRANCH  20  22
ENDBRANCH   4  20
TORSDOF 9
ENDMDL
MODEL 5
REMARK VINA RESULT:      -6.2      3.822      7.297
REMARK  Name = 75536470
REMARK  9 active torsions:
REMARK  status: ('A' for Active; 'I' for Inactive)
REMARK    1  A    between atoms: O_2  and  C_11
REMARK    2  A    between atoms: N_4  and  C_10
REMARK    3  A    between atoms: N_4  and  C_19
REMARK    4  A    between atoms: N_4  and  C_20
REMARK    5  A    between atoms: N_5  and  C_17
REMARK    6  A    between atoms: C_12  and  C_18
REMARK    7  A    between atoms: C_13  and  C_17
REMARK    8  A    between atoms: C_19  and  C_21
REMARK    9  A    between atoms: C_20  and  C_22
REMARK                            x       y       z     vdW  Elec       q    Type
REMARK                         _______ _______ _______ _____ _____    ______ ____
ROOT
ATOM      4  N   UNL     1      15.179   7.685  20.108  0.00  0.00    -0.280 NA
ENDROOT
BRANCH   4  10
ATOM      1  O   UNL     1      18.480   6.161  20.018  0.00  0.00    -0.371 OA
ATOM     10  C   UNL     1      16.631   7.652  20.070  0.00  0.00    +0.114 C 
ATOM     11  C   UNL     1      17.276   7.615  21.443  0.00  0.00    +0.164 C 
ATOM     13  C   UNL     1      18.663   7.087  21.102  0.00  0.00    +0.165 C 
ATOM     16  C   UNL     1      17.178   6.377  19.447  0.00  0.00    +0.182 C 
BRANCH  11   2
ATOM      2  O   UNL     1      17.332   8.888  22.055  0.00  0.00    -0.388 OA
ATOM     28  H   UNL     1      18.053   9.394  21.642  0.00  0.00    +0.210 HD
ENDBRANCH  11   2
BRANCH  13  17
ATOM     17  C   UNL     1      19.342   6.386  22.266  0.00  0.00    +0.138 C 
BRANCH  17   5
ATOM      3  O   UNL     1      21.380   5.902  24.283  0.00  0.00    -0.276 OA
ATOM      5  N   UNL     1      19.897   7.330  23.191  0.00  0.00    -0.313 N 
ATOM     18  C   UNL     1      20.873   7.007  24.124  0.00  0.00    +0.216 C 
ATOM     27  H   UNL     1      19.564   8.289  23.144  0.00  0.00    +0.149 HD
BRANCH  18  12
ATOM     12  C   UNL     1      21.306   8.147  24.984  0.00  0.00    +0.075 C 
ATOM     14  C   UNL     1      20.452   8.524  26.148  0.00  0.00    +0.013 C 
ATOM     15  C   UNL     1      20.517   9.412  24.942  0.00  0.00    +0.013 C 
ENDBRANCH  18  12
ENDBRANCH  17   5
ENDBRANCH  13  17
ENDBRANCH   4  10
BRANCH   4  19
ATOM     19  C   UNL     1      14.676   7.065  21.337  0.00  0.00    +0.159 C 
BRANCH  19  21
ATOM      6  N   UNL     1      12.362   6.108  21.457  0.00  0.00    -0.347 N 
ATOM      8  N   UNL     1      12.501   8.321  21.590  0.00  0.00    -0.239 NA
ATOM     21  C   UNL     1      13.181   7.202  21.464  0.00  0.00    +0.121 A 
ATOM     23  C   UNL     1      11.078   6.555  21.586  0.00  0.00    +0.104 A 
ATOM     25  C   UNL     1      11.189   7.924  21.666  0.00  0.00    +0.130 A 
ATOM     29  H   UNL     1      12.653   5.143  21.374  0.00  0.00    +0.167 HD
ENDBRANCH  19  21
ENDBRANCH   4  19
BRANCH   4  20
ATOM     20  C   UNL     1      14.611   7.012  18.936  0.00  0.00    +0.159 C 
BRANCH  20  22
ATOM      7  N   UNL     1      13.341   9.112  18.428  0.00  0.00    -0.347 N 
ATOM      9  N   UNL     1      13.959   7.906  16.668  0.00  0.00    -0.239 NA
ATOM     22  C   UNL     1      13.981   7.990  17.980  0.00  0.00    +0.121 A 
ATOM     24  C   UNL     1      12.881   9.787  17.332  0.00  0.00    +0.104 A 
ATOM     26  C   UNL     1      13.275   9.023  16.258  0.00  0.00    +0.130 A 
ATOM     30  H   UNL     1      13.225   9.391  19.393  0.00  0.00    +0.167 HD
ENDBRANCH  20  22
ENDBRANCH   4  20
TORSDOF 9
ENDMDL
MODEL 6
REMARK VINA RESULT:      -6.1      3.290      6.274
REMARK  Name = 75536470
REMARK  9 active torsions:
REMARK  status: ('A' for Active; 'I' for Inactive)
REMARK    1  A    between atoms: O_2  and  C_11
REMARK    2  A    between atoms: N_4  and  C_10
REMARK    3  A    between atoms: N_4  and  C_19
REMARK    4  A    between atoms: N_4  and  C_20
REMARK    5  A    between atoms: N_5  and  C_17
REMARK    6  A    between atoms: C_12  and  C_18
REMARK    7  A    between atoms: C_13  and  C_17
REMARK    8  A    between atoms: C_19  and  C_21
REMARK    9  A    between atoms: C_20  and  C_22
REMARK                            x       y       z     vdW  Elec       q    Type
REMARK                         _______ _______ _______ _____ _____    ______ ____
ROOT
ATOM      4  N   UNL     1      17.961   7.754  21.667  0.00  0.00    -0.280 NA
ENDROOT
BRANCH   4  10
ATOM      1  O   UNL     1      15.854   6.159  19.167  0.00  0.00    -0.371 OA
ATOM     10  C   UNL     1      16.957   6.832  21.160  0.00  0.00    +0.114 C 
ATOM     11  C   UNL     1      15.552   7.404  21.156  0.00  0.00    +0.164 C 
ATOM     13  C   UNL     1      14.863   6.482  20.158  0.00  0.00    +0.165 C 
ATOM     16  C   UNL     1      17.150   6.497  19.690  0.00  0.00    +0.182 C 
BRANCH  11   2
ATOM      2  O   UNL     1      14.938   7.355  22.429  0.00  0.00    -0.388 OA
ATOM     28  H   UNL     1      15.188   6.518  22.856  0.00  0.00    +0.210 HD
ENDBRANCH  11   2
BRANCH  13  17
ATOM     17  C   UNL     1      13.657   7.116  19.488  0.00  0.00    +0.138 C 
BRANCH  17   5
ATOM      3  O   UNL     1      10.935   8.107  19.745  0.00  0.00    -0.276 OA
ATOM      5  N   UNL     1      13.213   8.277  20.204  0.00  0.00    -0.313 N 
ATOM     18  C   UNL     1      11.885   8.675  20.272  0.00  0.00    +0.216 C 
ATOM     27  H   UNL     1      13.913   8.823  20.698  0.00  0.00    +0.149 HD
BRANCH  18  12
ATOM     12  C   UNL     1      11.652   9.912  21.073  0.00  0.00    +0.075 C 
ATOM     14  C   UNL     1      12.400  10.082  22.353  0.00  0.00    +0.013 C 
ATOM     15  C   UNL     1      10.929   9.793  22.373  0.00  0.00    +0.013 C 
ENDBRANCH  18  12
ENDBRANCH  17   5
ENDBRANCH  13  17
ENDBRANCH   4  10
BRANCH   4  19
ATOM     19  C   UNL     1      17.903   9.031  20.950  0.00  0.00    +0.159 C 
BRANCH  19  21
ATOM      6  N   UNL     1      16.711  10.754  22.325  0.00  0.00    -0.347 N 
ATOM      8  N   UNL     1      18.930  10.822  22.402  0.00  0.00    -0.239 NA
ATOM     21  C   UNL     1      17.886  10.204  21.895  0.00  0.00    +0.121 A 
ATOM     23  C   UNL     1      17.024  11.789  23.160  0.00  0.00    +0.104 A 
ATOM     25  C   UNL     1      18.399  11.811  23.192  0.00  0.00    +0.130 A 
ATOM     29  H   UNL     1      15.780  10.450  22.075  0.00  0.00    +0.167 HD
ENDBRANCH  19  21
ENDBRANCH   4  19
BRANCH   4  20
ATOM     20  C   UNL     1      19.303   7.175  21.558  0.00  0.00    +0.159 C 
BRANCH  20  22
ATOM      7  N   UNL     1      19.835   8.131  23.812  0.00  0.00    -0.347 N 
ATOM      9  N   UNL     1      20.832   6.209  23.317  0.00  0.00    -0.239 NA
ATOM     22  C   UNL     1      20.007   7.138  22.887  0.00  0.00    +0.121 A 
ATOM     24  C   UNL     1      20.599   7.815  24.900  0.00  0.00    +0.104 A 
ATOM     26  C   UNL     1      21.204   6.625  24.571  0.00  0.00    +0.130 A 
ATOM     30  H   UNL     1      19.253   8.951  23.709  0.00  0.00    +0.167 HD
ENDBRANCH  20  22
ENDBRANCH   4  20
TORSDOF 9
ENDMDL
MODEL 7
REMARK VINA RESULT:      -6.1      1.456      2.081
REMARK  Name = 75536470
REMARK  9 active torsions:
REMARK  status: ('A' for Active; 'I' for Inactive)
REMARK    1  A    between atoms: O_2  and  C_11
REMARK    2  A    between atoms: N_4  and  C_10
REMARK    3  A    between atoms: N_4  and  C_19
REMARK    4  A    between atoms: N_4  and  C_20
REMARK    5  A    between atoms: N_5  and  C_17
REMARK    6  A    between atoms: C_12  and  C_18
REMARK    7  A    between atoms: C_13  and  C_17
REMARK    8  A    between atoms: C_19  and  C_21
REMARK    9  A    between atoms: C_20  and  C_22
REMARK                            x       y       z     vdW  Elec       q    Type
REMARK                         _______ _______ _______ _____ _____    ______ ____
ROOT
ATOM      4  N   UNL     1      13.246   8.240  19.605  0.00  0.00    -0.280 NA
ENDROOT
BRANCH   4  10
ATOM      1  O   UNL     1      12.862  10.472  22.451  0.00  0.00    -0.371 OA
ATOM     10  C   UNL     1      13.631   9.278  20.547  0.00  0.00    +0.114 C 
ATOM     11  C   UNL     1      13.212  10.673  20.121  0.00  0.00    +0.164 C 
ATOM     13  C   UNL     1      13.273  11.416  21.448  0.00  0.00    +0.165 C 
ATOM     16  C   UNL     1      12.927   9.150  21.889  0.00  0.00    +0.182 C 
BRANCH  11   2
ATOM      2  O   UNL     1      14.084  11.235  19.161  0.00  0.00    -0.388 OA
ATOM     28  H   UNL     1      14.668  10.531  18.828  0.00  0.00    +0.210 HD
ENDBRANCH  11   2
BRANCH  13  17
ATOM     17  C   UNL     1      12.372  12.638  21.494  0.00  0.00    +0.138 C 
BRANCH  17   5
ATOM      3  O   UNL     1       9.949  14.130  22.092  0.00  0.00    -0.276 OA
ATOM      5  N   UNL     1      11.701  12.744  22.756  0.00  0.00    -0.313 N 
ATOM     18  C   UNL     1      10.542  13.484  22.949  0.00  0.00    +0.216 C 
ATOM     27  H   UNL     1      12.092  12.235  23.543  0.00  0.00    +0.149 HD
BRANCH  18  12
ATOM     12  C   UNL     1      10.015  13.452  24.344  0.00  0.00    +0.075 C 
ATOM     14  C   UNL     1      10.737  14.226  25.396  0.00  0.00    +0.013 C 
ATOM     15  C   UNL     1      10.799  12.728  25.386  0.00  0.00    +0.013 C 
ENDBRANCH  18  12
ENDBRANCH  17   5
ENDBRANCH  13  17
ENDBRANCH   4  10
BRANCH   4  19
ATOM     19  C   UNL     1      11.815   8.318  19.299  0.00  0.00    +0.159 C 
BRANCH  19  21
ATOM      6  N   UNL     1      12.534   9.203  17.067  0.00  0.00    -0.347 N 
ATOM      8  N   UNL     1      10.463   8.407  17.170  0.00  0.00    -0.239 NA
ATOM     21  C   UNL     1      11.568   8.629  17.846  0.00  0.00    +0.121 A 
ATOM     23  C   UNL     1      12.012   9.357  15.814  0.00  0.00    +0.104 A 
ATOM     25  C   UNL     1      10.733   8.858  15.902  0.00  0.00    +0.130 A 
ATOM     29  H   UNL     1      13.465   9.463  17.362  0.00  0.00    +0.167 HD
ENDBRANCH  19  21
ENDBRANCH   4  19
BRANCH   4  20
ATOM     20  C   UNL     1      13.576   6.911  20.131  0.00  0.00    +0.159 C 
BRANCH  20  22
ATOM      7  N   UNL     1      15.682   6.504  21.426  0.00  0.00    -0.347 N 
ATOM      9  N   UNL     1      15.919   6.675  19.224  0.00  0.00    -0.239 NA
ATOM     22  C   UNL     1      15.063   6.699  20.222  0.00  0.00    +0.121 A 
ATOM     24  C   UNL     1      17.017   6.345  21.180  0.00  0.00    +0.104 A 
ATOM     26  C   UNL     1      17.138   6.454  19.814  0.00  0.00    +0.130 A 
ATOM     30  H   UNL     1      15.236   6.485  22.333  0.00  0.00    +0.167 HD
ENDBRANCH  20  22
ENDBRANCH   4  20
TORSDOF 9
ENDMDL
MODEL 8
REMARK VINA RESULT:      -6.1      4.180      8.168
REMARK  Name = 75536470
REMARK  9 active torsions:
REMARK  status: ('A' for Active; 'I' for Inactive)
REMARK    1  A    between atoms: O_2  and  C_11
REMARK    2  A    between atoms: N_4  and  C_10
REMARK    3  A    between atoms: N_4  and  C_19
REMARK    4  A    between atoms: N_4  and  C_20
REMARK    5  A    between atoms: N_5  and  C_17
REMARK    6  A    between atoms: C_12  and  C_18
REMARK    7  A    between atoms: C_13  and  C_17
REMARK    8  A    between atoms: C_19  and  C_21
REMARK    9  A    between atoms: C_20  and  C_22
REMARK                            x       y       z     vdW  Elec       q    Type
REMARK                         _______ _______ _______ _____ _____    ______ ____
ROOT
ATOM      4  N   UNL     1      19.550   7.249  21.900  0.00  0.00    -0.280 NA
ENDROOT
BRANCH   4  10
ATOM      1  O   UNL     1      16.307   8.435  20.755  0.00  0.00    -0.371 OA
ATOM     10  C   UNL     1      18.549   7.669  20.933  0.00  0.00    +0.114 C 
ATOM     11  C   UNL     1      17.677   6.535  20.426  0.00  0.00    +0.164 C 
ATOM     13  C   UNL     1      16.481   7.305  19.884  0.00  0.00    +0.165 C 
ATOM     16  C   UNL     1      17.508   8.605  21.527  0.00  0.00    +0.182 C 
BRANCH  11   2
ATOM      2  O   UNL     1      18.310   5.768  19.421  0.00  0.00    -0.388 OA
ATOM     28  H   UNL     1      18.674   6.377  18.755  0.00  0.00    +0.210 HD
ENDBRANCH  11   2
BRANCH  13  17
ATOM     17  C   UNL     1      15.204   6.483  19.849  0.00  0.00    +0.138 C 
BRANCH  17   5
ATOM      3  O   UNL     1      12.321   6.509  19.470  0.00  0.00    -0.276 OA
ATOM      5  N   UNL     1      14.211   7.024  20.732  0.00  0.00    -0.313 N 
ATOM     18  C   UNL     1      12.850   6.990  20.466  0.00  0.00    +0.216 C 
ATOM     27  H   UNL     1      14.530   7.438  21.603  0.00  0.00    +0.149 HD
BRANCH  18  12
ATOM     12  C   UNL     1      11.999   7.609  21.525  0.00  0.00    +0.075 C 
ATOM     14  C   UNL     1      10.622   7.074  21.734  0.00  0.00    +0.013 C 
ATOM     15  C   UNL     1      10.819   8.421  21.106  0.00  0.00    +0.013 C 
ENDBRANCH  18  12
ENDBRANCH  17   5
ENDBRANCH  13  17
ENDBRANCH   4  10
BRANCH   4  19
ATOM     19  C   UNL     1      19.750   8.278  22.923  0.00  0.00    +0.159 C 
BRANCH  19  21
ATOM      6  N   UNL     1      21.723   8.441  24.460  0.00  0.00    -0.347 N 
ATOM      8  N   UNL     1      20.381   6.702  24.791  0.00  0.00    -0.239 NA
ATOM     21  C   UNL     1      20.595   7.777  24.065  0.00  0.00    +0.121 A 
ATOM     23  C   UNL     1      22.263   7.745  25.504  0.00  0.00    +0.104 A 
ATOM     25  C   UNL     1      21.417   6.677  25.690  0.00  0.00    +0.130 A 
ATOM     29  H   UNL     1      22.090   9.292  24.056  0.00  0.00    +0.167 HD
ENDBRANCH  19  21
ENDBRANCH   4  19
BRANCH   4  20
ATOM     20  C   UNL     1      20.821   6.946  21.235  0.00  0.00    +0.159 C 
BRANCH  20  22
ATOM      7  N   UNL     1      21.861   5.032  22.474  0.00  0.00    -0.347 N 
ATOM      9  N   UNL     1      20.945   4.531  20.514  0.00  0.00    -0.239 NA
ATOM     22  C   UNL     1      21.193   5.494  21.374  0.00  0.00    +0.121 A 
ATOM     24  C   UNL     1      22.052   3.690  22.305  0.00  0.00    +0.104 A 
ATOM     26  C   UNL     1      21.478   3.404  21.088  0.00  0.00    +0.130 A 
ATOM     30  H   UNL     1      22.163   5.583  23.266  0.00  0.00    +0.167 HD
ENDBRANCH  20  22
ENDBRANCH   4  20
TORSDOF 9
ENDMDL
MODEL 9
REMARK VINA RESULT:      -6.0     26.152     28.328
REMARK  Name = 75536470
REMARK  9 active torsions:
REMARK  status: ('A' for Active; 'I' for Inactive)
REMARK    1  A    between atoms: O_2  and  C_11
REMARK    2  A    between atoms: N_4  and  C_10
REMARK    3  A    between atoms: N_4  and  C_19
REMARK    4  A    between atoms: N_4  and  C_20
REMARK    5  A    between atoms: N_5  and  C_17
REMARK    6  A    between atoms: C_12  and  C_18
REMARK    7  A    between atoms: C_13  and  C_17
REMARK    8  A    between atoms: C_19  and  C_21
REMARK    9  A    between atoms: C_20  and  C_22
REMARK                            x       y       z     vdW  Elec       q    Type
REMARK                         _______ _______ _______ _____ _____    ______ ____
ROOT
ATOM      4  N   UNL     1      -5.467 -11.394  17.135  0.00  0.00    -0.280 NA
ENDROOT
BRANCH   4  10
ATOM      1  O   UNL     1      -2.018 -11.033  16.038  0.00  0.00    -0.371 OA
ATOM     10  C   UNL     1      -4.233 -11.776  16.469  0.00  0.00    +0.114 C 
ATOM     11  C   UNL     1      -4.143 -11.294  15.032  0.00  0.00    +0.164 C 
ATOM     13  C   UNL     1      -2.642 -11.376  14.789  0.00  0.00    +0.165 C 
ATOM     16  C   UNL     1      -3.003 -11.125  17.081  0.00  0.00    +0.182 C 
BRANCH  11   2
ATOM      2  O   UNL     1      -4.867 -12.113  14.136  0.00  0.00    -0.388 OA
ATOM     28  H   UNL     1      -4.708 -13.042  14.373  0.00  0.00    +0.210 HD
ENDBRANCH  11   2
BRANCH  13  17
ATOM     17  C   UNL     1      -2.158 -10.436  13.699  0.00  0.00    +0.138 C 
BRANCH  17   5
ATOM      3  O   UNL     1      -1.628  -9.481  11.004  0.00  0.00    -0.276 OA
ATOM      5  N   UNL     1      -3.059 -10.422  12.584  0.00  0.00    -0.313 N 
ATOM     18  C   UNL     1      -2.716  -9.945  11.327  0.00  0.00    +0.216 C 
ATOM     27  H   UNL     1      -3.992 -10.799  12.726  0.00  0.00    +0.149 HD
BRANCH  18  12
ATOM     12  C   UNL     1      -3.809 -10.029  10.315  0.00  0.00    +0.075 C 
ATOM     14  C   UNL     1      -3.953  -8.918   9.328  0.00  0.00    +0.013 C 
ATOM     15  C   UNL     1      -4.958  -9.084  10.427  0.00  0.00    +0.013 C 
ENDBRANCH  18  12
ENDBRANCH  17   5
ENDBRANCH  13  17
ENDBRANCH   4  10
BRANCH   4  19
ATOM     19  C   UNL     1      -5.665  -9.943  17.074  0.00  0.00    +0.159 C 
BRANCH  19  21
ATOM      6  N   UNL     1      -7.912  -9.050  17.734  0.00  0.00    -0.347 N 
ATOM      8  N   UNL     1      -7.723  -9.729  15.627  0.00  0.00    -0.239 NA
ATOM     21  C   UNL     1      -7.097  -9.585  16.775  0.00  0.00    +0.121 A 
ATOM     23  C   UNL     1      -9.134  -8.839  17.162  0.00  0.00    +0.104 A 
ATOM     25  C   UNL     1      -8.993  -9.265  15.862  0.00  0.00    +0.130 A 
ATOM     29  H   UNL     1      -7.657  -8.845  18.690  0.00  0.00    +0.167 HD
ENDBRANCH  19  21
ENDBRANCH   4  19
BRANCH   4  20
ATOM     20  C   UNL     1      -5.466 -11.844  18.531  0.00  0.00    +0.159 C 
BRANCH  20  22
ATOM      7  N   UNL     1      -7.360 -13.483  18.592  0.00  0.00    -0.347 N 
ATOM      9  N   UNL     1      -7.660 -11.615  19.755  0.00  0.00    -0.239 NA
ATOM     22  C   UNL     1      -6.834 -12.282  18.980  0.00  0.00    +0.121 A 
ATOM     24  C   UNL     1      -8.600 -13.589  19.156  0.00  0.00    +0.104 A 
ATOM     26  C   UNL     1      -8.763 -12.424  19.869  0.00  0.00    +0.130 A 
ATOM     30  H   UNL     1      -6.916 -14.166  17.994  0.00  0.00    +0.167 HD
ENDBRANCH  20  22
ENDBRANCH   4  20
TORSDOF 9
ENDMDL
MODEL 10
REMARK VINA RESULT:      -6.0     26.227     28.791
REMARK  Name = 75536470
REMARK  9 active torsions:
REMARK  status: ('A' for Active; 'I' for Inactive)
REMARK    1  A    between atoms: O_2  and  C_11
REMARK    2  A    between atoms: N_4  and  C_10
REMARK    3  A    between atoms: N_4  and  C_19
REMARK    4  A    between atoms: N_4  and  C_20
REMARK    5  A    between atoms: N_5  and  C_17
REMARK    6  A    between atoms: C_12  and  C_18
REMARK    7  A    between atoms: C_13  and  C_17
REMARK    8  A    between atoms: C_19  and  C_21
REMARK    9  A    between atoms: C_20  and  C_22
REMARK                            x       y       z     vdW  Elec       q    Type
REMARK                         _______ _______ _______ _____ _____    ______ ____
ROOT
ATOM      4  N   UNL     1      -7.679 -10.962  17.972  0.00  0.00    -0.280 NA
ENDROOT
BRANCH   4  10
ATOM      1  O   UNL     1      -4.158 -11.794  18.341  0.00  0.00    -0.371 OA
ATOM     10  C   UNL     1      -6.444 -11.681  17.707  0.00  0.00    +0.114 C 
ATOM     11  C   UNL     1      -5.596 -11.054  16.616  0.00  0.00    +0.164 C 
ATOM     13  C   UNL     1      -4.235 -11.670  16.911  0.00  0.00    +0.165 C 
ATOM     16  C   UNL     1      -5.482 -11.660  18.884  0.00  0.00    +0.182 C 
BRANCH  11   2
ATOM      2  O   UNL     1      -6.051 -11.379  15.317  0.00  0.00    -0.388 OA
ATOM     28  H   UNL     1      -5.348 -11.158  14.683  0.00  0.00    +0.210 HD
ENDBRANCH  11   2
BRANCH  13  17
ATOM     17  C   UNL     1      -3.074 -10.832  16.405  0.00  0.00    +0.138 C 
BRANCH  17   5
ATOM      3  O   UNL     1      -1.038  -9.612  14.725  0.00  0.00    -0.276 OA
ATOM      5  N   UNL     1      -2.959 -10.908  14.978  0.00  0.00    -0.313 N 
ATOM     18  C   UNL     1      -1.947 -10.290  14.257  0.00  0.00    +0.216 C 
ATOM     27  H   UNL     1      -3.649 -11.459  14.477  0.00  0.00    +0.149 HD
BRANCH  18  12
ATOM     12  C   UNL     1      -2.020 -10.504  12.782  0.00  0.00    +0.075 C 
ATOM     14  C   UNL     1      -3.366 -10.600  12.143  0.00  0.00    +0.013 C 
ATOM     15  C   UNL     1      -2.507 -11.821  12.277  0.00  0.00    +0.013 C 
ENDBRANCH  18  12
ENDBRANCH  17   5
ENDBRANCH  13  17
ENDBRANCH   4  10
BRANCH   4  19
ATOM     19  C   UNL     1      -7.476  -9.516  17.848  0.00  0.00    +0.159 C 
BRANCH  19  21
ATOM      6  N   UNL     1      -9.381  -7.900  17.649  0.00  0.00    -0.347 N 
ATOM      8  N   UNL     1      -8.934  -9.096  15.831  0.00  0.00    -0.239 NA
ATOM     21  C   UNL     1      -8.590  -8.857  17.078  0.00  0.00    +0.121 A 
ATOM     23  C   UNL     1     -10.288  -7.503  16.708  0.00  0.00    +0.104 A 
ATOM     25  C   UNL     1      -9.992  -8.254  15.595  0.00  0.00    +0.130 A 
ATOM     29  H   UNL     1      -9.308  -7.547  18.593  0.00  0.00    +0.167 HD
ENDBRANCH  19  21
ENDBRANCH   4  19
BRANCH   4  20
ATOM     20  C   UNL     1      -8.195 -11.286  19.305  0.00  0.00    +0.159 C 
BRANCH  20  22
ATOM      7  N   UNL     1     -10.187 -10.212  20.381  0.00  0.00    -0.347 N 
ATOM      9  N   UNL     1     -10.617 -11.520  18.638  0.00  0.00    -0.239 NA
ATOM     22  C   UNL     1      -9.674 -11.028  19.411  0.00  0.00    +0.121 A 
ATOM     24  C   UNL     1     -11.543 -10.181  20.216  0.00  0.00    +0.104 A 
ATOM     26  C   UNL     1     -11.785 -10.996  19.134  0.00  0.00    +0.130 A 
ATOM     30  H   UNL     1      -9.661  -9.723  21.092  0.00  0.00    +0.167 HD
ENDBRANCH  20  22
ENDBRANCH   4  20
TORSDOF 9
ENDMDL
