MODEL 1
REMARK VINA RESULT:      -6.9      0.000      0.000
REMARK  Name = 7134432
REMARK  12 active torsions:
REMARK  status: ('A' for Active; 'I' for Inactive)
REMARK    1  A    between atoms: S_1  and  N_10
REMARK    2  A    between atoms: S_1  and  C_22
REMARK    3  A    between atoms: O_3  and  C_13
REMARK    4  A    between atoms: O_4  and  C_15
REMARK    5  A    between atoms: O_9  and  C_32
REMARK    6  A    between atoms: O_9  and  C_33
REMARK    7  A    between atoms: N_10  and  C_14
REMARK    8  A    between atoms: N_11  and  C_20
REMARK    9  A    between atoms: C_17  and  C_19
REMARK   10  A    between atoms: C_20  and  C_21
REMARK   11  A    between atoms: C_20  and  C_24
REMARK   12  A    between atoms: C_21  and  C_23
REMARK                            x       y       z     vdW  Elec       q    Type
REMARK                         _______ _______ _______ _____ _____    ______ ____
ROOT
ATOM     13  C   UNL     1     -17.180   1.544  26.217  0.00  0.00    +0.166 C 
ATOM     14  C   UNL     1     -16.601   2.969  26.312  0.00  0.00    +0.131 C 
ATOM     15  C   UNL     1     -17.772   1.091  27.557  0.00  0.00    +0.149 C 
ATOM     16  C   UNL     1     -16.748   1.175  28.701  0.00  0.00    +0.074 C 
ATOM     17  C   UNL     1     -15.856   2.381  28.617  0.00  0.00    +0.015 C 
ATOM     18  C   UNL     1     -15.786   3.199  27.556  0.00  0.00    +0.004 C 
ENDROOT
BRANCH  17  19
ATOM      5  O   UNL     1     -13.911   3.220  29.632  0.00  0.00    -0.271 OA
ATOM     11  N   UNL     1     -15.607   2.361  30.980  0.00  0.00    -0.300 N 
ATOM     19  C   UNL     1     -15.017   2.703  29.776  0.00  0.00    +0.241 C 
ATOM     37  H   UNL     1     -16.489   1.856  30.973  0.00  0.00    +0.150 HD
BRANCH  11  20
ATOM     20  C   UNL     1     -14.971   2.578  32.260  0.00  0.00    +0.163 C 
BRANCH  20  24
ATOM      8  O   UNL     1     -14.936   0.150  32.349  0.00  0.00    -0.274 OA
ATOM     12  N   UNL     1     -14.632   1.326  34.299  0.00  0.00    -0.328 N 
ATOM     24  C   UNL     1     -14.866   1.223  32.944  0.00  0.00    +0.231 C 
ATOM     38  H   UNL     1     -14.525   0.496  34.872  0.00  0.00    +0.145 HD
ATOM     39  H   UNL     1     -14.572   2.219  34.776  0.00  0.00    +0.145 HD
ENDBRANCH  20  24
BRANCH  20  21
ATOM     21  C   UNL     1     -15.757   3.559  33.138  0.00  0.00    +0.067 C 
BRANCH  21  23
ATOM     23  C   UNL     1     -14.968   4.800  33.478  0.00  0.00    -0.045 A 
ATOM     26  C   UNL     1     -14.484   4.985  34.773  0.00  0.00    +0.007 A 
ATOM     27  C   UNL     1     -14.723   5.762  32.498  0.00  0.00    +0.007 A 
ATOM     30  C   UNL     1     -13.755   6.132  35.089  0.00  0.00    +0.046 A 
ATOM     31  C   UNL     1     -13.995   6.910  32.813  0.00  0.00    +0.046 A 
ATOM     32  C   UNL     1     -13.511   7.094  34.109  0.00  0.00    +0.120 A 
BRANCH  32   9
ATOM      9  O   UNL     1     -12.801   8.213  34.416  0.00  0.00    -0.495 OA
ATOM     33  C   UNL     1     -12.780   8.614  35.785  0.00  0.00    +0.277 C 
ENDBRANCH  32   9
ENDBRANCH  21  23
ENDBRANCH  20  21
ENDBRANCH  11  20
ENDBRANCH  17  19
BRANCH  13   3
ATOM      3  O   UNL     1     -16.150   0.628  25.838  0.00  0.00    -0.387 OA
ATOM     35  H   UNL     1     -15.598   0.469  26.623  0.00  0.00    +0.210 HD
ENDBRANCH  13   3
BRANCH  15   4
ATOM      4  O   UNL     1     -18.924   1.871  27.874  0.00  0.00    -0.389 OA
ATOM     36  H   UNL     1     -18.616   2.739  28.185  0.00  0.00    +0.210 HD
ENDBRANCH  15   4
BRANCH  14  10
ATOM     10  N   UNL     1     -15.766   3.252  25.119  0.00  0.00    -0.180 NA
ATOM     34  H   UNL     1     -14.873   2.746  25.077  0.00  0.00    +0.149 HD
BRANCH  10   1
ATOM      1  S   UNL     1     -16.570   3.595  23.650  0.00  0.00    +0.065 S 
ATOM      6  O   UNL     1     -17.775   4.355  23.924  0.00  0.00    -0.153 OA
ATOM      7  O   UNL     1     -16.607   2.389  22.846  0.00  0.00    -0.153 OA
BRANCH   1  22
ATOM      2  S   UNL     1     -16.303   5.552  21.455  0.00  0.00    -0.077 S 
ATOM     22  C   UNL     1     -15.514   4.697  22.711  0.00  0.00    +0.142 A 
ATOM     25  C   UNL     1     -14.174   5.009  22.786  0.00  0.00    +0.036 A 
ATOM     28  C   UNL     1     -13.791   5.963  21.800  0.00  0.00    +0.010 A 
ATOM     29  C   UNL     1     -14.852   6.343  21.009  0.00  0.00    +0.047 A 
ENDBRANCH   1  22
ENDBRANCH  10   1
ENDBRANCH  14  10
TORSDOF 11
ENDMDL
MODEL 2
REMARK VINA RESULT:      -6.9     32.910     36.727
REMARK  Name = 7134432
REMARK  12 active torsions:
REMARK  status: ('A' for Active; 'I' for Inactive)
REMARK    1  A    between atoms: S_1  and  N_10
REMARK    2  A    between atoms: S_1  and  C_22
REMARK    3  A    between atoms: O_3  and  C_13
REMARK    4  A    between atoms: O_4  and  C_15
REMARK    5  A    between atoms: O_9  and  C_32
REMARK    6  A    between atoms: O_9  and  C_33
REMARK    7  A    between atoms: N_10  and  C_14
REMARK    8  A    between atoms: N_11  and  C_20
REMARK    9  A    between atoms: C_17  and  C_19
REMARK   10  A    between atoms: C_20  and  C_21
REMARK   11  A    between atoms: C_20  and  C_24
REMARK   12  A    between atoms: C_21  and  C_23
REMARK                            x       y       z     vdW  Elec       q    Type
REMARK                         _______ _______ _______ _____ _____    ______ ____
ROOT
ATOM     13  C   UNL     1      13.437   7.029   2.522  0.00  0.00    +0.166 C 
ATOM     14  C   UNL     1      12.425   5.968   2.994  0.00  0.00    +0.131 C 
ATOM     15  C   UNL     1      14.463   7.348   3.616  0.00  0.00    +0.149 C 
ATOM     16  C   UNL     1      13.793   7.798   4.925  0.00  0.00    +0.074 C 
ATOM     17  C   UNL     1      12.534   7.041   5.241  0.00  0.00    +0.015 C 
ATOM     18  C   UNL     1      11.914   6.211   4.388  0.00  0.00    +0.004 C 
ENDROOT
BRANCH  17  19
ATOM      5  O   UNL     1      12.270   8.141   7.300  0.00  0.00    -0.271 OA
ATOM     11  N   UNL     1      11.040   6.205   6.889  0.00  0.00    -0.300 N 
ATOM     19  C   UNL     1      11.948   7.201   6.576  0.00  0.00    +0.241 C 
ATOM     37  H   UNL     1      10.917   5.427   6.247  0.00  0.00    +0.150 HD
BRANCH  11  20
ATOM     20  C   UNL     1      10.334   6.148   8.149  0.00  0.00    +0.163 C 
BRANCH  20  24
ATOM      8  O   UNL     1       9.843   4.253   9.590  0.00  0.00    -0.274 OA
ATOM     12  N   UNL     1      10.173   3.873   7.349  0.00  0.00    -0.328 N 
ATOM     24  C   UNL     1      10.105   4.677   8.467  0.00  0.00    +0.231 C 
ATOM     38  H   UNL     1      10.024   2.872   7.419  0.00  0.00    +0.145 HD
ATOM     39  H   UNL     1      10.386   4.237   6.426  0.00  0.00    +0.145 HD
ENDBRANCH  20  24
BRANCH  20  21
ATOM     21  C   UNL     1       8.998   6.896   8.100  0.00  0.00    +0.067 C 
BRANCH  21  23
ATOM     23  C   UNL     1       8.679   7.434   6.726  0.00  0.00    -0.045 A 
ATOM     26  C   UNL     1       8.347   6.556   5.694  0.00  0.00    +0.007 A 
ATOM     27  C   UNL     1       8.718   8.808   6.488  0.00  0.00    +0.007 A 
ATOM     30  C   UNL     1       8.053   7.051   4.424  0.00  0.00    +0.046 A 
ATOM     31  C   UNL     1       8.425   9.304   5.217  0.00  0.00    +0.046 A 
ATOM     32  C   UNL     1       8.092   8.425   4.185  0.00  0.00    +0.120 A 
BRANCH  32   9
ATOM      9  O   UNL     1       7.806   8.909   2.947  0.00  0.00    -0.495 OA
ATOM     33  C   UNL     1       8.736   8.618   1.904  0.00  0.00    +0.277 C 
ENDBRANCH  32   9
ENDBRANCH  21  23
ENDBRANCH  20  21
ENDBRANCH  11  20
ENDBRANCH  17  19
BRANCH  13   3
ATOM      3  O   UNL     1      12.749   8.232   2.173  0.00  0.00    -0.387 OA
ATOM     35  H   UNL     1      12.384   8.113   1.281  0.00  0.00    +0.210 HD
ENDBRANCH  13   3
BRANCH  15   4
ATOM      4  O   UNL     1      15.295   6.214   3.856  0.00  0.00    -0.389 OA
ATOM     36  H   UNL     1      15.635   6.286   4.764  0.00  0.00    +0.210 HD
ENDBRANCH  15   4
BRANCH  14  10
ATOM     10  N   UNL     1      11.278   5.915   2.054  0.00  0.00    -0.180 NA
ATOM     34  H   UNL     1      11.121   6.768   1.504  0.00  0.00    +0.149 HD
BRANCH  10   1
ATOM      1  S   UNL     1      10.911   4.409   1.333  0.00  0.00    +0.065 S 
ATOM      6  O   UNL     1       9.627   4.494   0.662  0.00  0.00    -0.153 OA
ATOM      7  O   UNL     1      11.195   3.354   2.285  0.00  0.00    -0.153 OA
BRANCH   1  22
ATOM      2  S   UNL     1      11.441   3.821  -1.512  0.00  0.00    -0.077 S 
ATOM     22  C   UNL     1      12.113   4.138   0.030  0.00  0.00    +0.142 A 
ATOM     25  C   UNL     1      13.491   4.129   0.006  0.00  0.00    +0.036 A 
ATOM     28  C   UNL     1      14.000   3.860  -1.296  0.00  0.00    +0.010 A 
ATOM     29  C   UNL     1      12.994   3.672  -2.217  0.00  0.00    +0.047 A 
ENDBRANCH   1  22
ENDBRANCH  10   1
ENDBRANCH  14  10
TORSDOF 11
ENDMDL
MODEL 3
REMARK VINA RESULT:      -6.8      4.053     10.535
REMARK  Name = 7134432
REMARK  12 active torsions:
REMARK  status: ('A' for Active; 'I' for Inactive)
REMARK    1  A    between atoms: S_1  and  N_10
REMARK    2  A    between atoms: S_1  and  C_22
REMARK    3  A    between atoms: O_3  and  C_13
REMARK    4  A    between atoms: O_4  and  C_15
REMARK    5  A    between atoms: O_9  and  C_32
REMARK    6  A    between atoms: O_9  and  C_33
REMARK    7  A    between atoms: N_10  and  C_14
REMARK    8  A    between atoms: N_11  and  C_20
REMARK    9  A    between atoms: C_17  and  C_19
REMARK   10  A    between atoms: C_20  and  C_21
REMARK   11  A    between atoms: C_20  and  C_24
REMARK   12  A    between atoms: C_21  and  C_23
REMARK                            x       y       z     vdW  Elec       q    Type
REMARK                         _______ _______ _______ _____ _____    ______ ____
ROOT
ATOM     13  C   UNL     1     -17.640   2.737  24.781  0.00  0.00    +0.166 C 
ATOM     14  C   UNL     1     -16.182   2.777  25.274  0.00  0.00    +0.131 C 
ATOM     15  C   UNL     1     -17.711   2.727  23.249  0.00  0.00    +0.149 C 
ATOM     16  C   UNL     1     -16.971   3.922  22.626  0.00  0.00    +0.074 C 
ATOM     17  C   UNL     1     -15.696   4.272  23.340  0.00  0.00    +0.015 C 
ATOM     18  C   UNL     1     -15.325   3.760  24.524  0.00  0.00    +0.004 C 
ENDROOT
BRANCH  17  19
ATOM      5  O   UNL     1     -13.812   4.828  22.052  0.00  0.00    -0.271 OA
ATOM     11  N   UNL     1     -15.138   6.541  22.909  0.00  0.00    -0.300 N 
ATOM     19  C   UNL     1     -14.782   5.221  22.697  0.00  0.00    +0.241 C 
ATOM     37  H   UNL     1     -15.911   6.751  23.534  0.00  0.00    +0.150 HD
BRANCH  11  20
ATOM     20  C   UNL     1     -14.388   7.657  22.377  0.00  0.00    +0.163 C 
BRANCH  20  24
ATOM      8  O   UNL     1     -14.045   9.915  23.207  0.00  0.00    -0.274 OA
ATOM     12  N   UNL     1     -15.642   8.606  24.212  0.00  0.00    -0.328 N 
ATOM     24  C   UNL     1     -14.639   8.843  23.296  0.00  0.00    +0.231 C 
ATOM     38  H   UNL     1     -15.920   9.321  24.875  0.00  0.00    +0.145 HD
ATOM     39  H   UNL     1     -16.128   7.717  24.273  0.00  0.00    +0.145 HD
ENDBRANCH  20  24
BRANCH  20  21
ATOM     21  C   UNL     1     -14.799   7.999  20.941  0.00  0.00    +0.067 C 
BRANCH  21  23
ATOM     23  C   UNL     1     -13.647   7.921  19.969  0.00  0.00    -0.045 A 
ATOM     26  C   UNL     1     -12.378   7.557  20.421  0.00  0.00    +0.007 A 
ATOM     27  C   UNL     1     -13.850   8.215  18.620  0.00  0.00    +0.007 A 
ATOM     30  C   UNL     1     -11.312   7.486  19.524  0.00  0.00    +0.046 A 
ATOM     31  C   UNL     1     -12.784   8.144  17.723  0.00  0.00    +0.046 A 
ATOM     32  C   UNL     1     -11.515   7.779  18.175  0.00  0.00    +0.120 A 
BRANCH  32   9
ATOM      9  O   UNL     1     -10.476   7.709  17.300  0.00  0.00    -0.495 OA
ATOM     33  C   UNL     1     -10.591   8.464  16.094  0.00  0.00    +0.277 C 
ENDBRANCH  32   9
ENDBRANCH  21  23
ENDBRANCH  20  21
ENDBRANCH  11  20
ENDBRANCH  17  19
BRANCH  13   3
ATOM      3  O   UNL     1     -18.346   3.882  25.264  0.00  0.00    -0.387 OA
ATOM     35  H   UNL     1     -17.937   4.668  24.864  0.00  0.00    +0.210 HD
ENDBRANCH  13   3
BRANCH  15   4
ATOM      4  O   UNL     1     -17.180   1.504  22.740  0.00  0.00    -0.389 OA
ATOM     36  H   UNL     1     -16.778   1.695  21.876  0.00  0.00    +0.210 HD
ENDBRANCH  15   4
BRANCH  14  10
ATOM     10  N   UNL     1     -16.151   3.104  26.721  0.00  0.00    -0.180 NA
ATOM     34  H   UNL     1     -16.384   4.076  26.958  0.00  0.00    +0.149 HD
BRANCH  10   1
ATOM      1  S   UNL     1     -16.596   1.876  27.823  0.00  0.00    +0.065 S 
ATOM      6  O   UNL     1     -16.488   0.582  27.175  0.00  0.00    -0.153 OA
ATOM      7  O   UNL     1     -17.812   2.278  28.504  0.00  0.00    -0.153 OA
BRANCH   1  22
ATOM      2  S   UNL     1     -14.921   3.407  29.712  0.00  0.00    -0.077 S 
ATOM     22  C   UNL     1     -15.367   1.861  29.128  0.00  0.00    +0.142 A 
ATOM     25  C   UNL     1     -14.689   0.849  29.773  0.00  0.00    +0.036 A 
ATOM     28  C   UNL     1     -13.794   1.351  30.760  0.00  0.00    +0.010 A 
ATOM     29  C   UNL     1     -13.820   2.726  30.832  0.00  0.00    +0.047 A 
ENDBRANCH   1  22
ENDBRANCH  10   1
ENDBRANCH  14  10
TORSDOF 11
ENDMDL
MODEL 4
REMARK VINA RESULT:      -6.6     20.840     23.601
REMARK  Name = 7134432
REMARK  12 active torsions:
REMARK  status: ('A' for Active; 'I' for Inactive)
REMARK    1  A    between atoms: S_1  and  N_10
REMARK    2  A    between atoms: S_1  and  C_22
REMARK    3  A    between atoms: O_3  and  C_13
REMARK    4  A    between atoms: O_4  and  C_15
REMARK    5  A    between atoms: O_9  and  C_32
REMARK    6  A    between atoms: O_9  and  C_33
REMARK    7  A    between atoms: N_10  and  C_14
REMARK    8  A    between atoms: N_11  and  C_20
REMARK    9  A    between atoms: C_17  and  C_19
REMARK   10  A    between atoms: C_20  and  C_21
REMARK   11  A    between atoms: C_20  and  C_24
REMARK   12  A    between atoms: C_21  and  C_23
REMARK                            x       y       z     vdW  Elec       q    Type
REMARK                         _______ _______ _______ _____ _____    ______ ____
ROOT
ATOM     13  C   UNL     1      -4.954  -9.745   8.827  0.00  0.00    +0.166 C 
ATOM     14  C   UNL     1      -6.273  -9.609   9.609  0.00  0.00    +0.131 C 
ATOM     15  C   UNL     1      -4.085 -10.877   9.389  0.00  0.00    +0.149 C 
ATOM     16  C   UNL     1      -3.800 -10.697  10.890  0.00  0.00    +0.074 C 
ATOM     17  C   UNL     1      -4.974 -10.165  11.661  0.00  0.00    +0.015 C 
ATOM     18  C   UNL     1      -6.093  -9.681  11.100  0.00  0.00    +0.004 C 
ENDROOT
BRANCH  17  19
ATOM      5  O   UNL     1      -5.879  -9.871  13.809  0.00  0.00    -0.271 OA
ATOM     11  N   UNL     1      -3.674 -10.594  13.603  0.00  0.00    -0.300 N 
ATOM     19  C   UNL     1      -4.908 -10.190  13.126  0.00  0.00    +0.241 C 
ATOM     37  H   UNL     1      -2.915 -10.749  12.945  0.00  0.00    +0.150 HD
BRANCH  11  20
ATOM     20  C   UNL     1      -3.366 -10.695  15.012  0.00  0.00    +0.163 C 
BRANCH  20  24
ATOM      8  O   UNL     1      -1.230  -9.702  14.414  0.00  0.00    -0.274 OA
ATOM     12  N   UNL     1      -1.333 -11.052  16.270  0.00  0.00    -0.328 N 
ATOM     24  C   UNL     1      -1.876 -10.429  15.165  0.00  0.00    +0.231 C 
ATOM     38  H   UNL     1      -0.351 -10.944  16.497  0.00  0.00    +0.145 HD
ATOM     39  H   UNL     1      -1.879 -11.647  16.884  0.00  0.00    +0.145 HD
ENDBRANCH  20  24
BRANCH  20  21
ATOM     21  C   UNL     1      -3.724 -12.070  15.587  0.00  0.00    +0.067 C 
BRANCH  21  23
ATOM     23  C   UNL     1      -4.720 -11.989  16.718  0.00  0.00    -0.045 A 
ATOM     26  C   UNL     1      -4.593 -10.995  17.689  0.00  0.00    +0.007 A 
ATOM     27  C   UNL     1      -5.766 -12.910  16.795  0.00  0.00    +0.007 A 
ATOM     30  C   UNL     1      -5.512 -10.920  18.735  0.00  0.00    +0.046 A 
ATOM     31  C   UNL     1      -6.685 -12.836  17.842  0.00  0.00    +0.046 A 
ATOM     32  C   UNL     1      -6.558 -11.840  18.812  0.00  0.00    +0.120 A 
BRANCH  32   9
ATOM      9  O   UNL     1      -7.454 -11.768  19.832  0.00  0.00    -0.495 OA
ATOM     33  C   UNL     1      -8.218 -12.941  20.111  0.00  0.00    +0.277 C 
ENDBRANCH  32   9
ENDBRANCH  21  23
ENDBRANCH  20  21
ENDBRANCH  11  20
ENDBRANCH  17  19
BRANCH  13   3
ATOM      3  O   UNL     1      -4.217  -8.522   8.903  0.00  0.00    -0.387 OA
ATOM     35  H   UNL     1      -4.452  -7.990   8.125  0.00  0.00    +0.210 HD
ENDBRANCH  13   3
BRANCH  15   4
ATOM      4  O   UNL     1      -4.712 -12.138   9.158  0.00  0.00    -0.389 OA
ATOM     36  H   UNL     1      -4.415 -12.746   9.857  0.00  0.00    +0.210 HD
ENDBRANCH  15   4
BRANCH  14  10
ATOM     10  N   UNL     1      -6.935  -8.328   9.257  0.00  0.00    -0.180 NA
ATOM     34  H   UNL     1      -6.304  -7.526   9.133  0.00  0.00    +0.149 HD
BRANCH  10   1
ATOM      1  S   UNL     1      -8.346  -8.401   8.294  0.00  0.00    +0.065 S 
ATOM      6  O   UNL     1      -9.186  -9.493   8.750  0.00  0.00    -0.153 OA
ATOM      7  O   UNL     1      -7.968  -8.272   6.901  0.00  0.00    -0.153 OA
BRANCH   1  22
ATOM      2  S   UNL     1     -10.796  -7.163   9.382  0.00  0.00    -0.077 S 
ATOM     22  C   UNL     1      -9.286  -6.909   8.617  0.00  0.00    +0.142 A 
ATOM     25  C   UNL     1      -9.047  -5.573   8.375  0.00  0.00    +0.036 A 
ATOM     28  C   UNL     1     -10.118  -4.749   8.825  0.00  0.00    +0.010 A 
ATOM     29  C   UNL     1     -11.134  -5.485   9.393  0.00  0.00    +0.047 A 
ENDBRANCH   1  22
ENDBRANCH  10   1
ENDBRANCH  14  10
TORSDOF 11
ENDMDL
MODEL 5
REMARK VINA RESULT:      -6.6     17.952     21.233
REMARK  Name = 7134432
REMARK  12 active torsions:
REMARK  status: ('A' for Active; 'I' for Inactive)
REMARK    1  A    between atoms: S_1  and  N_10
REMARK    2  A    between atoms: S_1  and  C_22
REMARK    3  A    between atoms: O_3  and  C_13
REMARK    4  A    between atoms: O_4  and  C_15
REMARK    5  A    between atoms: O_9  and  C_32
REMARK    6  A    between atoms: O_9  and  C_33
REMARK    7  A    between atoms: N_10  and  C_14
REMARK    8  A    between atoms: N_11  and  C_20
REMARK    9  A    between atoms: C_17  and  C_19
REMARK   10  A    between atoms: C_20  and  C_21
REMARK   11  A    between atoms: C_20  and  C_24
REMARK   12  A    between atoms: C_21  and  C_23
REMARK                            x       y       z     vdW  Elec       q    Type
REMARK                         _______ _______ _______ _____ _____    ______ ____
ROOT
ATOM     13  C   UNL     1      -4.636 -12.099  17.683  0.00  0.00    +0.166 C 
ATOM     14  C   UNL     1      -5.031 -11.439  16.348  0.00  0.00    +0.131 C 
ATOM     15  C   UNL     1      -5.867 -12.631  18.427  0.00  0.00    +0.149 C 
ATOM     16  C   UNL     1      -6.920 -11.535  18.665  0.00  0.00    +0.074 C 
ATOM     17  C   UNL     1      -7.064 -10.586  17.509  0.00  0.00    +0.015 C 
ATOM     18  C   UNL     1      -6.229 -10.537  16.459  0.00  0.00    +0.004 C 
ENDROOT
BRANCH  17  19
ATOM      5  O   UNL     1      -8.119  -8.555  16.981  0.00  0.00    -0.271 OA
ATOM     11  N   UNL     1      -9.312 -10.174  18.158  0.00  0.00    -0.300 N 
ATOM     19  C   UNL     1      -8.202  -9.661  17.512  0.00  0.00    +0.241 C 
ATOM     37  H   UNL     1      -9.237 -11.067  18.638  0.00  0.00    +0.150 HD
BRANCH  11  20
ATOM     20  C   UNL     1     -10.554  -9.446  18.292  0.00  0.00    +0.163 C 
BRANCH  20  24
ATOM      8  O   UNL     1     -12.439 -10.124  19.669  0.00  0.00    -0.274 OA
ATOM     12  N   UNL     1     -10.329 -10.217  20.572  0.00  0.00    -0.328 N 
ATOM     24  C   UNL     1     -11.228  -9.942  19.563  0.00  0.00    +0.231 C 
ATOM     38  H   UNL     1     -10.646 -10.570  21.469  0.00  0.00    +0.145 HD
ATOM     39  H   UNL     1      -9.330 -10.067  20.470  0.00  0.00    +0.145 HD
ENDBRANCH  20  24
BRANCH  20  21
ATOM     21  C   UNL     1     -11.477  -9.647  17.086  0.00  0.00    +0.067 C 
BRANCH  21  23
ATOM     23  C   UNL     1     -11.623  -8.400  16.247  0.00  0.00    -0.045 A 
ATOM     26  C   UNL     1     -11.207  -7.168  16.752  0.00  0.00    +0.007 A 
ATOM     27  C   UNL     1     -12.173  -8.480  14.968  0.00  0.00    +0.007 A 
ATOM     30  C   UNL     1     -11.342  -6.015  15.979  0.00  0.00    +0.046 A 
ATOM     31  C   UNL     1     -12.309  -7.327  14.194  0.00  0.00    +0.046 A 
ATOM     32  C   UNL     1     -11.893  -6.095  14.699  0.00  0.00    +0.120 A 
BRANCH  32   9
ATOM      9  O   UNL     1     -12.024  -4.971  13.944  0.00  0.00    -0.495 OA
ATOM     33  C   UNL     1     -12.444  -5.143  12.591  0.00  0.00    +0.277 C 
ENDBRANCH  32   9
ENDBRANCH  21  23
ENDBRANCH  20  21
ENDBRANCH  11  20
ENDBRANCH  17  19
BRANCH  13   3
ATOM      3  O   UNL     1      -3.974 -11.145  18.516  0.00  0.00    -0.387 OA
ATOM     35  H   UNL     1      -3.632 -10.441  17.940  0.00  0.00    +0.210 HD
ENDBRANCH  13   3
BRANCH  15   4
ATOM      4  O   UNL     1      -6.446 -13.717  17.707  0.00  0.00    -0.389 OA
ATOM     36  H   UNL     1      -5.722 -14.300  17.420  0.00  0.00    +0.210 HD
ENDBRANCH  15   4
BRANCH  14  10
ATOM     10  N   UNL     1      -3.883 -10.665  15.813  0.00  0.00    -0.180 NA
ATOM     34  H   UNL     1      -3.537  -9.914  16.421  0.00  0.00    +0.149 HD
BRANCH  10   1
ATOM      1  S   UNL     1      -2.754 -11.494  14.831  0.00  0.00    +0.065 S 
ATOM      6  O   UNL     1      -3.164 -12.879  14.688  0.00  0.00    -0.153 OA
ATOM      7  O   UNL     1      -1.416 -11.145  15.264  0.00  0.00    -0.153 OA
BRANCH   1  22
ATOM      2  S   UNL     1      -4.455 -10.444  12.658  0.00  0.00    -0.077 S 
ATOM     22  C   UNL     1      -2.864 -10.790  13.186  0.00  0.00    +0.142 A 
ATOM     25  C   UNL     1      -1.921 -10.463  12.236  0.00  0.00    +0.036 A 
ATOM     28  C   UNL     1      -2.513  -9.919  11.061  0.00  0.00    +0.010 A 
ATOM     29  C   UNL     1      -3.885  -9.853  11.155  0.00  0.00    +0.047 A 
ENDBRANCH   1  22
ENDBRANCH  10   1
ENDBRANCH  14  10
TORSDOF 11
ENDMDL
MODEL 6
REMARK VINA RESULT:      -6.5     17.475     19.616
REMARK  Name = 7134432
REMARK  12 active torsions:
REMARK  status: ('A' for Active; 'I' for Inactive)
REMARK    1  A    between atoms: S_1  and  N_10
REMARK    2  A    between atoms: S_1  and  C_22
REMARK    3  A    between atoms: O_3  and  C_13
REMARK    4  A    between atoms: O_4  and  C_15
REMARK    5  A    between atoms: O_9  and  C_32
REMARK    6  A    between atoms: O_9  and  C_33
REMARK    7  A    between atoms: N_10  and  C_14
REMARK    8  A    between atoms: N_11  and  C_20
REMARK    9  A    between atoms: C_17  and  C_19
REMARK   10  A    between atoms: C_20  and  C_21
REMARK   11  A    between atoms: C_20  and  C_24
REMARK   12  A    between atoms: C_21  and  C_23
REMARK                            x       y       z     vdW  Elec       q    Type
REMARK                         _______ _______ _______ _____ _____    ______ ____
ROOT
ATOM     13  C   UNL     1     -12.083  -6.506  15.289  0.00  0.00    +0.166 C 
ATOM     14  C   UNL     1     -11.744  -7.639  14.302  0.00  0.00    +0.131 C 
ATOM     15  C   UNL     1     -10.907  -6.215  16.230  0.00  0.00    +0.149 C 
ATOM     16  C   UNL     1     -10.453  -7.470  16.994  0.00  0.00    +0.074 C 
ATOM     17  C   UNL     1     -10.488  -8.721  16.163  0.00  0.00    +0.015 C 
ATOM     18  C   UNL     1     -11.057  -8.809  14.951  0.00  0.00    +0.004 C 
ENDROOT
BRANCH  17  19
ATOM      5  O   UNL     1      -9.814 -10.968  16.047  0.00  0.00    -0.271 OA
ATOM     11  N   UNL     1      -9.313  -9.736  17.961  0.00  0.00    -0.300 N 
ATOM     19  C   UNL     1      -9.844  -9.925  16.698  0.00  0.00    +0.241 C 
ATOM     37  H   UNL     1      -9.475  -8.855  18.440  0.00  0.00    +0.150 HD
BRANCH  11  20
ATOM     20  C   UNL     1      -8.631 -10.779  18.694  0.00  0.00    +0.163 C 
BRANCH  20  24
ATOM      8  O   UNL     1      -9.680 -12.386  20.185  0.00  0.00    -0.274 OA
ATOM     12  N   UNL     1     -10.225 -10.165  20.404  0.00  0.00    -0.328 N 
ATOM     24  C   UNL     1      -9.562 -11.221  19.814  0.00  0.00    +0.231 C 
ATOM     38  H   UNL     1     -10.865 -10.320  21.175  0.00  0.00    +0.145 HD
ATOM     39  H   UNL     1     -10.114  -9.206  20.090  0.00  0.00    +0.145 HD
ENDBRANCH  20  24
BRANCH  20  21
ATOM     21  C   UNL     1      -7.293 -10.303  19.271  0.00  0.00    +0.067 C 
BRANCH  21  23
ATOM     23  C   UNL     1      -6.131 -10.561  18.342  0.00  0.00    -0.045 A 
ATOM     26  C   UNL     1      -6.134 -10.022  17.055  0.00  0.00    +0.007 A 
ATOM     27  C   UNL     1      -5.056 -11.340  18.770  0.00  0.00    +0.007 A 
ATOM     30  C   UNL     1      -5.062 -10.261  16.196  0.00  0.00    +0.046 A 
ATOM     31  C   UNL     1      -3.983 -11.580  17.910  0.00  0.00    +0.046 A 
ATOM     32  C   UNL     1      -3.986 -11.039  16.624  0.00  0.00    +0.120 A 
BRANCH  32   9
ATOM      9  O   UNL     1      -2.940 -11.273  15.786  0.00  0.00    -0.495 OA
ATOM     33  C   UNL     1      -1.696 -10.654  16.112  0.00  0.00    +0.277 C 
ENDBRANCH  32   9
ENDBRANCH  21  23
ENDBRANCH  20  21
ENDBRANCH  11  20
ENDBRANCH  17  19
BRANCH  13   3
ATOM      3  O   UNL     1     -13.218  -6.872  16.076  0.00  0.00    -0.387 OA
ATOM     35  H   UNL     1     -14.003  -6.484  15.654  0.00  0.00    +0.210 HD
ENDBRANCH  13   3
BRANCH  15   4
ATOM      4  O   UNL     1      -9.813  -5.667  15.495  0.00  0.00    -0.389 OA
ATOM     36  H   UNL     1      -8.993  -5.974  15.917  0.00  0.00    +0.210 HD
ENDBRANCH  15   4
BRANCH  14  10
ATOM     10  N   UNL     1     -12.983  -8.108  13.633  0.00  0.00    -0.180 NA
ATOM     34  H   UNL     1     -13.789  -8.256  14.252  0.00  0.00    +0.149 HD
BRANCH  10   1
ATOM      1  S   UNL     1     -13.280  -7.563  12.039  0.00  0.00    +0.065 S 
ATOM      6  O   UNL     1     -14.636  -7.907  11.656  0.00  0.00    -0.153 OA
ATOM      7  O   UNL     1     -12.148  -7.920  11.207  0.00  0.00    -0.153 OA
BRANCH   1  22
ATOM      2  S   UNL     1     -14.643  -5.028  12.694  0.00  0.00    -0.077 S 
ATOM     22  C   UNL     1     -13.232  -5.772  12.073  0.00  0.00    +0.142 A 
ATOM     25  C   UNL     1     -12.283  -4.847  11.697  0.00  0.00    +0.036 A 
ATOM     28  C   UNL     1     -12.720  -3.510  11.923  0.00  0.00    +0.010 A 
ATOM     29  C   UNL     1     -13.986  -3.464  12.462  0.00  0.00    +0.047 A 
ENDBRANCH   1  22
ENDBRANCH  10   1
ENDBRANCH  14  10
TORSDOF 11
ENDMDL
MODEL 7
REMARK VINA RESULT:      -6.5     33.385     37.746
REMARK  Name = 7134432
REMARK  12 active torsions:
REMARK  status: ('A' for Active; 'I' for Inactive)
REMARK    1  A    between atoms: S_1  and  N_10
REMARK    2  A    between atoms: S_1  and  C_22
REMARK    3  A    between atoms: O_3  and  C_13
REMARK    4  A    between atoms: O_4  and  C_15
REMARK    5  A    between atoms: O_9  and  C_32
REMARK    6  A    between atoms: O_9  and  C_33
REMARK    7  A    between atoms: N_10  and  C_14
REMARK    8  A    between atoms: N_11  and  C_20
REMARK    9  A    between atoms: C_17  and  C_19
REMARK   10  A    between atoms: C_20  and  C_21
REMARK   11  A    between atoms: C_20  and  C_24
REMARK   12  A    between atoms: C_21  and  C_23
REMARK                            x       y       z     vdW  Elec       q    Type
REMARK                         _______ _______ _______ _____ _____    ______ ____
ROOT
ATOM     13  C   UNL     1      14.312   7.322   2.947  0.00  0.00    +0.166 C 
ATOM     14  C   UNL     1      15.004   7.878   4.205  0.00  0.00    +0.131 C 
ATOM     15  C   UNL     1      12.790   7.492   3.026  0.00  0.00    +0.149 C 
ATOM     16  C   UNL     1      12.199   6.843   4.289  0.00  0.00    +0.074 C 
ATOM     17  C   UNL     1      13.062   7.015   5.507  0.00  0.00    +0.015 C 
ATOM     18  C   UNL     1      14.319   7.485   5.485  0.00  0.00    +0.004 C 
ENDROOT
BRANCH  17  19
ATOM      5  O   UNL     1      13.217   6.467   7.786  0.00  0.00    -0.271 OA
ATOM     11  N   UNL     1      11.112   6.591   6.796  0.00  0.00    -0.300 N 
ATOM     19  C   UNL     1      12.493   6.666   6.813  0.00  0.00    +0.241 C 
ATOM     37  H   UNL     1      10.621   6.688   5.912  0.00  0.00    +0.150 HD
BRANCH  11  20
ATOM     20  C   UNL     1      10.325   6.260   7.963  0.00  0.00    +0.163 C 
BRANCH  20  24
ATOM      8  O   UNL     1       9.960   4.076   8.966  0.00  0.00    -0.274 OA
ATOM     12  N   UNL     1      10.084   4.228   6.677  0.00  0.00    -0.328 N 
ATOM     24  C   UNL     1      10.121   4.753   7.952  0.00  0.00    +0.231 C 
ATOM     38  H   UNL     1       9.938   3.236   6.527  0.00  0.00    +0.145 HD
ATOM     39  H   UNL     1      10.213   4.799   5.848  0.00  0.00    +0.145 HD
ENDBRANCH  20  24
BRANCH  20  21
ATOM     21  C   UNL     1       8.972   6.981   7.974  0.00  0.00    +0.067 C 
BRANCH  21  23
ATOM     23  C   UNL     1       8.708   7.747   6.700  0.00  0.00    -0.045 A 
ATOM     26  C   UNL     1       8.924   9.124   6.657  0.00  0.00    +0.007 A 
ATOM     27  C   UNL     1       8.247   7.077   5.566  0.00  0.00    +0.007 A 
ATOM     30  C   UNL     1       8.679   9.833   5.481  0.00  0.00    +0.046 A 
ATOM     31  C   UNL     1       8.001   7.785   4.390  0.00  0.00    +0.046 A 
ATOM     32  C   UNL     1       8.218   9.163   4.347  0.00  0.00    +0.120 A 
BRANCH  32   9
ATOM      9  O   UNL     1       7.979   9.854   3.200  0.00  0.00    -0.495 OA
ATOM     33  C   UNL     1       8.135   9.145   1.970  0.00  0.00    +0.277 C 
ENDBRANCH  32   9
ENDBRANCH  21  23
ENDBRANCH  20  21
ENDBRANCH  11  20
ENDBRANCH  17  19
BRANCH  13   3
ATOM      3  O   UNL     1      14.610   5.931   2.804  0.00  0.00    -0.387 OA
ATOM     35  H   UNL     1      15.360   5.732   3.390  0.00  0.00    +0.210 HD
ENDBRANCH  13   3
BRANCH  15   4
ATOM      4  O   UNL     1      12.446   8.876   2.980  0.00  0.00    -0.389 OA
ATOM     36  H   UNL     1      11.787   9.039   3.676  0.00  0.00    +0.210 HD
ENDBRANCH  15   4
BRANCH  14  10
ATOM     10  N   UNL     1      16.415   7.420   4.245  0.00  0.00    -0.180 NA
ATOM     34  H   UNL     1      16.568   6.442   3.971  0.00  0.00    +0.149 HD
BRANCH  10   1
ATOM      1  S   UNL     1      17.632   8.562   3.873  0.00  0.00    +0.065 S 
ATOM      6  O   UNL     1      17.130   9.901   4.123  0.00  0.00    -0.153 OA
ATOM      7  O   UNL     1      18.232   8.207   2.602  0.00  0.00    -0.153 OA
BRANCH   1  22
ATOM      2  S   UNL     1      20.327   7.495   4.434  0.00  0.00    -0.077 S 
ATOM     22  C   UNL     1      18.962   8.323   5.051  0.00  0.00    +0.142 A 
ATOM     25  C   UNL     1      19.123   8.671   6.375  0.00  0.00    +0.036 A 
ATOM     28  C   UNL     1      20.384   8.252   6.887  0.00  0.00    +0.010 A 
ATOM     29  C   UNL     1      21.138   7.600   5.938  0.00  0.00    +0.047 A 
ENDBRANCH   1  22
ENDBRANCH  10   1
ENDBRANCH  14  10
TORSDOF 11
ENDMDL
MODEL 8
REMARK VINA RESULT:      -6.5      3.604      5.683
REMARK  Name = 7134432
REMARK  12 active torsions:
REMARK  status: ('A' for Active; 'I' for Inactive)
REMARK    1  A    between atoms: S_1  and  N_10
REMARK    2  A    between atoms: S_1  and  C_22
REMARK    3  A    between atoms: O_3  and  C_13
REMARK    4  A    between atoms: O_4  and  C_15
REMARK    5  A    between atoms: O_9  and  C_32
REMARK    6  A    between atoms: O_9  and  C_33
REMARK    7  A    between atoms: N_10  and  C_14
REMARK    8  A    between atoms: N_11  and  C_20
REMARK    9  A    between atoms: C_17  and  C_19
REMARK   10  A    between atoms: C_20  and  C_21
REMARK   11  A    between atoms: C_20  and  C_24
REMARK   12  A    between atoms: C_21  and  C_23
REMARK                            x       y       z     vdW  Elec       q    Type
REMARK                         _______ _______ _______ _____ _____    ______ ____
ROOT
ATOM     13  C   UNL     1     -15.133   4.600  23.178  0.00  0.00    +0.166 C 
ATOM     14  C   UNL     1     -16.037   5.793  23.541  0.00  0.00    +0.131 C 
ATOM     15  C   UNL     1     -15.786   3.267  23.563  0.00  0.00    +0.149 C 
ATOM     16  C   UNL     1     -16.163   3.216  25.054  0.00  0.00    +0.074 C 
ATOM     17  C   UNL     1     -16.693   4.519  25.580  0.00  0.00    +0.015 C 
ATOM     18  C   UNL     1     -16.651   5.681  24.910  0.00  0.00    +0.004 C 
ENDROOT
BRANCH  17  19
ATOM      5  O   UNL     1     -18.492   4.194  27.056  0.00  0.00    -0.271 OA
ATOM     11  N   UNL     1     -16.454   4.938  27.907  0.00  0.00    -0.300 N 
ATOM     19  C   UNL     1     -17.317   4.526  26.907  0.00  0.00    +0.241 C 
ATOM     37  H   UNL     1     -15.529   5.274  27.654  0.00  0.00    +0.150 HD
BRANCH  11  20
ATOM     20  C   UNL     1     -16.842   5.029  29.296  0.00  0.00    +0.163 C 
BRANCH  20  24
ATOM      8  O   UNL     1     -16.904   7.415  28.837  0.00  0.00    -0.274 OA
ATOM     12  N   UNL     1     -18.050   6.616  30.662  0.00  0.00    -0.328 N 
ATOM     24  C   UNL     1     -17.235   6.475  29.557  0.00  0.00    +0.231 C 
ATOM     38  H   UNL     1     -18.398   7.528  30.938  0.00  0.00    +0.145 HD
ATOM     39  H   UNL     1     -18.319   5.831  31.245  0.00  0.00    +0.145 HD
ENDBRANCH  20  24
BRANCH  20  21
ATOM     21  C   UNL     1     -15.712   4.606  30.242  0.00  0.00    +0.067 C 
BRANCH  21  23
ATOM     23  C   UNL     1     -15.371   3.140  30.126  0.00  0.00    -0.045 A 
ATOM     26  C   UNL     1     -14.084   2.697  30.432  0.00  0.00    +0.007 A 
ATOM     27  C   UNL     1     -16.342   2.228  29.710  0.00  0.00    +0.007 A 
ATOM     30  C   UNL     1     -13.768   1.343  30.323  0.00  0.00    +0.046 A 
ATOM     31  C   UNL     1     -16.027   0.874  29.601  0.00  0.00    +0.046 A 
ATOM     32  C   UNL     1     -14.739   0.431  29.908  0.00  0.00    +0.120 A 
BRANCH  32   9
ATOM      9  O   UNL     1     -14.431  -0.889  29.802  0.00  0.00    -0.495 OA
ATOM     33  C   UNL     1     -13.223  -1.222  29.118  0.00  0.00    +0.277 C 
ENDBRANCH  32   9
ENDBRANCH  21  23
ENDBRANCH  20  21
ENDBRANCH  11  20
ENDBRANCH  17  19
BRANCH  13   3
ATOM      3  O   UNL     1     -13.884   4.713  23.863  0.00  0.00    -0.387 OA
ATOM     35  H   UNL     1     -13.415   3.868  23.757  0.00  0.00    +0.210 HD
ENDBRANCH  13   3
BRANCH  15   4
ATOM      4  O   UNL     1     -16.941   3.035  22.759  0.00  0.00    -0.389 OA
ATOM     36  H   UNL     1     -17.659   3.589  23.108  0.00  0.00    +0.210 HD
ENDBRANCH  15   4
BRANCH  14  10
ATOM     10  N   UNL     1     -15.261   7.055  23.454  0.00  0.00    -0.180 NA
ATOM     34  H   UNL     1     -14.399   7.081  24.012  0.00  0.00    +0.149 HD
BRANCH  10   1
ATOM      1  S   UNL     1     -15.287   7.903  21.970  0.00  0.00    +0.065 S 
ATOM      6  O   UNL     1     -15.522   9.313  22.223  0.00  0.00    -0.153 OA
ATOM      7  O   UNL     1     -16.098   7.162  21.024  0.00  0.00    -0.153 OA
BRANCH   1  22
ATOM      2  S   UNL     1     -13.005   9.303  20.726  0.00  0.00    -0.077 S 
ATOM     22  C   UNL     1     -13.637   7.811  21.276  0.00  0.00    +0.142 A 
ATOM     25  C   UNL     1     -12.751   6.772  21.087  0.00  0.00    +0.036 A 
ATOM     28  C   UNL     1     -11.537   7.209  20.483  0.00  0.00    +0.010 A 
ATOM     29  C   UNL     1     -11.541   8.563  20.233  0.00  0.00    +0.047 A 
ENDBRANCH   1  22
ENDBRANCH  10   1
ENDBRANCH  14  10
TORSDOF 11
ENDMDL
MODEL 9
REMARK VINA RESULT:      -6.4      2.183      3.190
REMARK  Name = 7134432
REMARK  12 active torsions:
REMARK  status: ('A' for Active; 'I' for Inactive)
REMARK    1  A    between atoms: S_1  and  N_10
REMARK    2  A    between atoms: S_1  and  C_22
REMARK    3  A    between atoms: O_3  and  C_13
REMARK    4  A    between atoms: O_4  and  C_15
REMARK    5  A    between atoms: O_9  and  C_32
REMARK    6  A    between atoms: O_9  and  C_33
REMARK    7  A    between atoms: N_10  and  C_14
REMARK    8  A    between atoms: N_11  and  C_20
REMARK    9  A    between atoms: C_17  and  C_19
REMARK   10  A    between atoms: C_20  and  C_21
REMARK   11  A    between atoms: C_20  and  C_24
REMARK   12  A    between atoms: C_21  and  C_23
REMARK                            x       y       z     vdW  Elec       q    Type
REMARK                         _______ _______ _______ _____ _____    ______ ____
ROOT
ATOM     13  C   UNL     1     -17.215   3.341  23.257  0.00  0.00    +0.166 C 
ATOM     14  C   UNL     1     -16.675   4.695  23.756  0.00  0.00    +0.131 C 
ATOM     15  C   UNL     1     -18.250   2.760  24.228  0.00  0.00    +0.149 C 
ATOM     16  C   UNL     1     -17.691   2.618  25.654  0.00  0.00    +0.074 C 
ATOM     17  C   UNL     1     -16.800   3.757  26.062  0.00  0.00    +0.015 C 
ATOM     18  C   UNL     1     -16.343   4.699  25.223  0.00  0.00    +0.004 C 
ENDROOT
BRANCH  17  19
ATOM      5  O   UNL     1     -16.693   4.861  28.132  0.00  0.00    -0.271 OA
ATOM     11  N   UNL     1     -15.731   2.749  27.929  0.00  0.00    -0.300 N 
ATOM     19  C   UNL     1     -16.414   3.862  27.473  0.00  0.00    +0.241 C 
ATOM     37  H   UNL     1     -15.479   2.018  27.270  0.00  0.00    +0.150 HD
BRANCH  11  20
ATOM     20  C   UNL     1     -15.246   2.621  29.285  0.00  0.00    +0.163 C 
BRANCH  20  24
ATOM      8  O   UNL     1     -15.224   0.200  29.070  0.00  0.00    -0.274 OA
ATOM     12  N   UNL     1     -13.363   1.245  29.920  0.00  0.00    -0.328 N 
ATOM     24  C   UNL     1     -14.647   1.228  29.416  0.00  0.00    +0.231 C 
ATOM     38  H   UNL     1     -12.842   0.383  30.043  0.00  0.00    +0.145 HD
ATOM     39  H   UNL     1     -12.897   2.102  30.198  0.00  0.00    +0.145 HD
ENDBRANCH  20  24
BRANCH  20  21
ATOM     21  C   UNL     1     -16.358   2.823  30.320  0.00  0.00    +0.067 C 
BRANCH  21  23
ATOM     23  C   UNL     1     -15.962   3.771  31.426  0.00  0.00    -0.045 A 
ATOM     26  C   UNL     1     -14.771   4.491  31.333  0.00  0.00    +0.007 A 
ATOM     27  C   UNL     1     -16.785   3.924  32.542  0.00  0.00    +0.007 A 
ATOM     30  C   UNL     1     -14.403   5.367  32.355  0.00  0.00    +0.046 A 
ATOM     31  C   UNL     1     -16.417   4.799  33.564  0.00  0.00    +0.046 A 
ATOM     32  C   UNL     1     -15.227   5.521  33.470  0.00  0.00    +0.120 A 
BRANCH  32   9
ATOM      9  O   UNL     1     -14.868   6.374  34.467  0.00  0.00    -0.495 OA
ATOM     33  C   UNL     1     -13.648   7.095  34.299  0.00  0.00    +0.277 C 
ENDBRANCH  32   9
ENDBRANCH  21  23
ENDBRANCH  20  21
ENDBRANCH  11  20
ENDBRANCH  17  19
BRANCH  13   3
ATOM      3  O   UNL     1     -16.139   2.410  23.125  0.00  0.00    -0.387 OA
ATOM     35  H   UNL     1     -15.330   2.853  23.431  0.00  0.00    +0.210 HD
ENDBRANCH  13   3
BRANCH  15   4
ATOM      4  O   UNL     1     -19.423   3.573  24.241  0.00  0.00    -0.389 OA
ATOM     36  H   UNL     1     -19.667   3.723  25.171  0.00  0.00    +0.210 HD
ENDBRANCH  15   4
BRANCH  14  10
ATOM     10  N   UNL     1     -15.468   5.070  22.979  0.00  0.00    -0.180 NA
ATOM     34  H   UNL     1     -14.683   4.411  23.040  0.00  0.00    +0.149 HD
BRANCH  10   1
ATOM      1  S   UNL     1     -15.700   5.917  21.511  0.00  0.00    +0.065 S 
ATOM      6  O   UNL     1     -16.522   7.087  21.754  0.00  0.00    -0.153 OA
ATOM      7  O   UNL     1     -16.033   4.964  20.471  0.00  0.00    -0.153 OA
BRANCH   1  22
ATOM      2  S   UNL     1     -14.161   7.792  19.829  0.00  0.00    -0.077 S 
ATOM     22  C   UNL     1     -14.101   6.552  21.007  0.00  0.00    +0.142 A 
ATOM     25  C   UNL     1     -12.808   6.248  21.374  0.00  0.00    +0.036 A 
ATOM     28  C   UNL     1     -11.855   7.045  20.678  0.00  0.00    +0.010 A 
ATOM     29  C   UNL     1     -12.454   7.927  19.807  0.00  0.00    +0.047 A 
ENDBRANCH   1  22
ENDBRANCH  10   1
ENDBRANCH  14  10
TORSDOF 11
ENDMDL
MODEL 10
REMARK VINA RESULT:      -6.4     20.839     24.071
REMARK  Name = 7134432
REMARK  12 active torsions:
REMARK  status: ('A' for Active; 'I' for Inactive)
REMARK    1  A    between atoms: S_1  and  N_10
REMARK    2  A    between atoms: S_1  and  C_22
REMARK    3  A    between atoms: O_3  and  C_13
REMARK    4  A    between atoms: O_4  and  C_15
REMARK    5  A    between atoms: O_9  and  C_32
REMARK    6  A    between atoms: O_9  and  C_33
REMARK    7  A    between atoms: N_10  and  C_14
REMARK    8  A    between atoms: N_11  and  C_20
REMARK    9  A    between atoms: C_17  and  C_19
REMARK   10  A    between atoms: C_20  and  C_21
REMARK   11  A    between atoms: C_20  and  C_24
REMARK   12  A    between atoms: C_21  and  C_23
REMARK                            x       y       z     vdW  Elec       q    Type
REMARK                         _______ _______ _______ _____ _____    ______ ____
ROOT
ATOM     13  C   UNL     1      -4.783  -9.758   8.781  0.00  0.00    +0.166 C 
ATOM     14  C   UNL     1      -6.069  -9.368   9.532  0.00  0.00    +0.131 C 
ATOM     15  C   UNL     1      -4.151 -11.023   9.374  0.00  0.00    +0.149 C 
ATOM     16  C   UNL     1      -3.866 -10.878  10.878  0.00  0.00    +0.074 C 
ATOM     17  C   UNL     1      -4.936 -10.127  11.618  0.00  0.00    +0.015 C 
ATOM     18  C   UNL     1      -5.934  -9.452  11.028  0.00  0.00    +0.004 C 
ENDROOT
BRANCH  17  19
ATOM      5  O   UNL     1      -5.885  -9.801  13.742  0.00  0.00    -0.271 OA
ATOM     11  N   UNL     1      -3.688 -10.566  13.593  0.00  0.00    -0.300 N 
ATOM     19  C   UNL     1      -4.904 -10.143  13.084  0.00  0.00    +0.241 C 
ATOM     37  H   UNL     1      -2.918 -10.738  12.953  0.00  0.00    +0.150 HD
BRANCH  11  20
ATOM     20  C   UNL     1      -3.416 -10.662  15.009  0.00  0.00    +0.163 C 
BRANCH  20  24
ATOM      8  O   UNL     1      -1.234  -9.750  14.446  0.00  0.00    -0.274 OA
ATOM     12  N   UNL     1      -1.425 -11.070  16.317  0.00  0.00    -0.328 N 
ATOM     24  C   UNL     1      -1.921 -10.445  15.192  0.00  0.00    +0.231 C 
ATOM     38  H   UNL     1      -0.444 -10.992  16.565  0.00  0.00    +0.145 HD
ATOM     39  H   UNL     1      -2.004 -11.637  16.927  0.00  0.00    +0.145 HD
ENDBRANCH  20  24
BRANCH  20  21
ATOM     21  C   UNL     1      -3.832 -12.019  15.588  0.00  0.00    +0.067 C 
BRANCH  21  23
ATOM     23  C   UNL     1      -4.806 -11.891  16.734  0.00  0.00    -0.045 A 
ATOM     26  C   UNL     1      -4.886 -10.696  17.451  0.00  0.00    +0.007 A 
ATOM     27  C   UNL     1      -5.626 -12.966  17.077  0.00  0.00    +0.007 A 
ATOM     30  C   UNL     1      -5.786 -10.577  18.510  0.00  0.00    +0.046 A 
ATOM     31  C   UNL     1      -6.525 -12.848  18.136  0.00  0.00    +0.046 A 
ATOM     32  C   UNL     1      -6.606 -11.653  18.853  0.00  0.00    +0.120 A 
BRANCH  32   9
ATOM      9  O   UNL     1      -7.483 -11.537  19.886  0.00  0.00    -0.495 OA
ATOM     33  C   UNL     1      -8.832 -11.205  19.559  0.00  0.00    +0.277 C 
ENDBRANCH  32   9
ENDBRANCH  21  23
ENDBRANCH  20  21
ENDBRANCH  11  20
ENDBRANCH  17  19
BRANCH  13   3
ATOM      3  O   UNL     1      -3.834  -8.692   8.861  0.00  0.00    -0.387 OA
ATOM     35  H   UNL     1      -3.043  -8.966   8.366  0.00  0.00    +0.210 HD
ENDBRANCH  13   3
BRANCH  15   4
ATOM      4  O   UNL     1      -4.995 -12.150   9.142  0.00  0.00    -0.389 OA
ATOM     36  H   UNL     1      -4.422 -12.920   8.988  0.00  0.00    +0.210 HD
ENDBRANCH  15   4
BRANCH  14  10
ATOM     10  N   UNL     1      -6.475  -7.993   9.153  0.00  0.00    -0.180 NA
ATOM     34  H   UNL     1      -5.726  -7.403   8.769  0.00  0.00    +0.149 HD
BRANCH  10   1
ATOM      1  S   UNL     1      -8.063  -7.767   8.562  0.00  0.00    +0.065 S 
ATOM      6  O   UNL     1      -8.165  -6.462   7.935  0.00  0.00    -0.153 OA
ATOM      7  O   UNL     1      -9.004  -8.188   9.581  0.00  0.00    -0.153 OA
BRANCH   1  22
ATOM      2  S   UNL     1      -7.495  -8.584   5.782  0.00  0.00    -0.077 S 
ATOM     22  C   UNL     1      -8.312  -8.953   7.241  0.00  0.00    +0.142 A 
ATOM     25  C   UNL     1      -9.035 -10.122   7.147  0.00  0.00    +0.036 A 
ATOM     28  C   UNL     1      -8.916 -10.722   5.861  0.00  0.00    +0.010 A 
ATOM     29  C   UNL     1      -8.108  -9.990   5.021  0.00  0.00    +0.047 A 
ENDBRANCH   1  22
ENDBRANCH  10   1
ENDBRANCH  14  10
TORSDOF 11
ENDMDL
