MODEL 1
REMARK VINA RESULT:      -6.8      0.000      0.000
REMARK  Name = 11865846
REMARK  10 active torsions:
REMARK  status: ('A' for Active; 'I' for Inactive)
REMARK    1  A    between atoms: S_1  and  C_25
REMARK    2  A    between atoms: S_1  and  C_29
REMARK    3  A    between atoms: N_7  and  C_11
REMARK    4  A    between atoms: N_8  and  C_15
REMARK    5  A    between atoms: N_9  and  C_24
REMARK    6  A    between atoms: C_12  and  C_20
REMARK    7  A    between atoms: C_22  and  C_25
REMARK    8  A    between atoms: C_24  and  C_26
REMARK    9  A    between atoms: C_24  and  C_27
REMARK   10  A    between atoms: C_26  and  C_28
REMARK                            x       y       z     vdW  Elec       q    Type
REMARK                         _______ _______ _______ _____ _____    ______ ____
ROOT
ATOM      3  O   UNL     1      -4.795  -8.419  11.026  0.00  0.00    -0.275 OA
ATOM      6  N   UNL     1      -6.562  -9.794  11.615  0.00  0.00    -0.287 N 
ATOM     11  C   UNL     1      -7.606 -10.317  13.679  0.00  0.00    +0.105 C 
ATOM     12  C   UNL     1      -6.327  -9.758  13.055  0.00  0.00    +0.182 C 
ATOM     13  C   UNL     1      -8.155 -11.246  12.592  0.00  0.00    +0.043 C 
ATOM     14  C   UNL     1      -7.765 -10.556  11.291  0.00  0.00    +0.110 C 
ATOM     22  C   UNL     1      -5.807  -9.052  10.719  0.00  0.00    +0.226 C 
ENDROOT
BRANCH  11   7
ATOM      4  O   UNL     1      -8.626  -9.622  16.274  0.00  0.00    -0.253 OA
ATOM      7  N   UNL     1      -8.538  -9.259  13.985  0.00  0.00    -0.294 N 
ATOM      8  N   UNL     1      -9.871  -7.924  15.298  0.00  0.00    -0.297 N 
ATOM     23  C   UNL     1      -8.979  -8.992  15.279  0.00  0.00    +0.300 C 
ATOM     35  H   UNL     1      -8.945  -8.731  13.218  0.00  0.00    +0.151 HD
ATOM     36  H   UNL     1     -10.036  -7.427  14.427  0.00  0.00    +0.151 HD
BRANCH   8  15
ATOM     15  C   UNL     1     -10.488  -7.429  16.509  0.00  0.00    +0.074 C 
ATOM     16  C   UNL     1     -11.063  -6.024  16.299  0.00  0.00    +0.022 C 
ATOM     17  C   UNL     1     -11.561  -8.398  17.016  0.00  0.00    +0.022 C 
ATOM     18  C   UNL     1     -12.314  -6.029  15.422  0.00  0.00    +0.002 C 
ATOM     19  C   UNL     1     -12.812  -8.400  16.137  0.00  0.00    +0.002 C 
ATOM     21  C   UNL     1     -13.371  -6.992  15.954  0.00  0.00    +0.000 C 
ENDBRANCH   8  15
ENDBRANCH  11   7
BRANCH  12  20
ATOM      2  O   UNL     1      -4.919 -11.638  12.625  0.00  0.00    -0.274 OA
ATOM      9  N   UNL     1      -4.414 -10.237  14.414  0.00  0.00    -0.302 N 
ATOM     20  C   UNL     1      -5.151 -10.651  13.318  0.00  0.00    +0.236 C 
ATOM     37  H   UNL     1      -4.655  -9.359  14.864  0.00  0.00    +0.150 HD
BRANCH   9  24
ATOM     24  C   UNL     1      -3.245 -10.939  14.891  0.00  0.00    +0.163 C 
BRANCH  24  27
ATOM      5  O   UNL     1      -1.802 -10.423  13.006  0.00  0.00    -0.274 OA
ATOM     10  N   UNL     1      -1.259  -9.572  15.070  0.00  0.00    -0.328 N 
ATOM     27  C   UNL     1      -2.037 -10.316  14.207  0.00  0.00    +0.231 C 
ATOM     38  H   UNL     1      -1.479  -9.474  16.056  0.00  0.00    +0.145 HD
ATOM     39  H   UNL     1      -0.429  -9.091  14.739  0.00  0.00    +0.145 HD
ENDBRANCH  24  27
BRANCH  24  26
ATOM     26  C   UNL     1      -3.099 -10.854  16.415  0.00  0.00    +0.067 C 
BRANCH  26  28
ATOM     28  C   UNL     1      -4.296 -11.406  17.148  0.00  0.00    -0.045 A 
ATOM     30  C   UNL     1      -4.975 -10.612  18.073  0.00  0.00    +0.004 A 
ATOM     31  C   UNL     1      -4.725 -12.710  16.902  0.00  0.00    +0.004 A 
ATOM     32  C   UNL     1      -6.083 -11.123  18.751  0.00  0.00    +0.000 A 
ATOM     33  C   UNL     1      -5.832 -13.221  17.579  0.00  0.00    +0.000 A 
ATOM     34  C   UNL     1      -6.511 -12.427  18.504  0.00  0.00    +0.000 A 
ENDBRANCH  26  28
ENDBRANCH  24  26
ENDBRANCH   9  24
ENDBRANCH  12  20
BRANCH  22  25
ATOM     25  C   UNL     1      -6.294  -9.063   9.292  0.00  0.00    +0.164 C 
BRANCH  25   1
ATOM      1  S   UNL     1      -5.034  -9.865   8.290  0.00  0.00    -0.155 S 
ATOM     29  C   UNL     1      -5.961 -10.017   6.743  0.00  0.00    +0.085 C 
ENDBRANCH  25   1
ENDBRANCH  22  25
TORSDOF 9
ENDMDL
MODEL 2
REMARK VINA RESULT:      -6.6     26.850     29.810
REMARK  Name = 11865846
REMARK  10 active torsions:
REMARK  status: ('A' for Active; 'I' for Inactive)
REMARK    1  A    between atoms: S_1  and  C_25
REMARK    2  A    between atoms: S_1  and  C_29
REMARK    3  A    between atoms: N_7  and  C_11
REMARK    4  A    between atoms: N_8  and  C_15
REMARK    5  A    between atoms: N_9  and  C_24
REMARK    6  A    between atoms: C_12  and  C_20
REMARK    7  A    between atoms: C_22  and  C_25
REMARK    8  A    between atoms: C_24  and  C_26
REMARK    9  A    between atoms: C_24  and  C_27
REMARK   10  A    between atoms: C_26  and  C_28
REMARK                            x       y       z     vdW  Elec       q    Type
REMARK                         _______ _______ _______ _____ _____    ______ ____
ROOT
ATOM      3  O   UNL     1      11.995  11.704  20.525  0.00  0.00    -0.275 OA
ATOM      6  N   UNL     1      13.758  12.442  19.218  0.00  0.00    -0.287 N 
ATOM     11  C   UNL     1      14.626  11.767  17.116  0.00  0.00    +0.105 C 
ATOM     12  C   UNL     1      13.763  11.313  18.293  0.00  0.00    +0.182 C 
ATOM     13  C   UNL     1      15.582  12.783  17.748  0.00  0.00    +0.043 C 
ATOM     14  C   UNL     1      14.742  13.449  18.831  0.00  0.00    +0.110 C 
ATOM     22  C   UNL     1      12.814  12.576  20.224  0.00  0.00    +0.226 C 
ENDROOT
BRANCH  11   7
ATOM      4  O   UNL     1      14.075  10.698  14.506  0.00  0.00    -0.253 OA
ATOM      7  N   UNL     1      13.819  12.376  16.086  0.00  0.00    -0.294 N 
ATOM      8  N   UNL     1      12.792  12.575  14.039  0.00  0.00    -0.297 N 
ATOM     23  C   UNL     1      13.604  11.783  14.845  0.00  0.00    +0.300 C 
ATOM     35  H   UNL     1      13.448  13.309  16.246  0.00  0.00    +0.151 HD
ATOM     36  H   UNL     1      12.397  13.418  14.447  0.00  0.00    +0.151 HD
BRANCH   8  15
ATOM     15  C   UNL     1      12.406  12.205  12.696  0.00  0.00    +0.074 C 
ATOM     16  C   UNL     1      10.921  11.830  12.635  0.00  0.00    +0.022 C 
ATOM     17  C   UNL     1      12.739  13.319  11.699  0.00  0.00    +0.022 C 
ATOM     18  C   UNL     1      10.005  13.045  12.781  0.00  0.00    +0.002 C 
ATOM     19  C   UNL     1      11.820  14.532  11.847  0.00  0.00    +0.002 C 
ATOM     21  C   UNL     1      10.349  14.135  11.771  0.00  0.00    +0.000 C 
ENDBRANCH   8  15
ENDBRANCH  11   7
BRANCH  12  20
ATOM      2  O   UNL     1      15.560  10.199  19.403  0.00  0.00    -0.274 OA
ATOM      9  N   UNL     1      13.517   9.103  19.185  0.00  0.00    -0.302 N 
ATOM     20  C   UNL     1      14.392  10.164  19.025  0.00  0.00    +0.236 C 
ATOM     37  H   UNL     1      12.549   9.218  18.901  0.00  0.00    +0.150 HD
BRANCH   9  24
ATOM     24  C   UNL     1      13.886   7.868  19.837  0.00  0.00    +0.163 C 
BRANCH  24  27
ATOM      5  O   UNL     1      11.499   7.420  19.747  0.00  0.00    -0.274 OA
ATOM     10  N   UNL     1      12.790   6.204  21.207  0.00  0.00    -0.328 N 
ATOM     27  C   UNL     1      12.595   7.175  20.247  0.00  0.00    +0.231 C 
ATOM     38  H   UNL     1      13.706   5.997  21.595  0.00  0.00    +0.145 HD
ATOM     39  H   UNL     1      12.012   5.655  21.559  0.00  0.00    +0.145 HD
ENDBRANCH  24  27
BRANCH  24  26
ATOM     26  C   UNL     1      14.716   6.956  18.926  0.00  0.00    +0.067 C 
BRANCH  26  28
ATOM     28  C   UNL     1      16.085   6.661  19.487  0.00  0.00    -0.045 A 
ATOM     30  C   UNL     1      16.960   5.828  18.788  0.00  0.00    +0.004 A 
ATOM     31  C   UNL     1      16.477   7.221  20.702  0.00  0.00    +0.004 A 
ATOM     32  C   UNL     1      18.227   5.555  19.306  0.00  0.00    +0.000 A 
ATOM     33  C   UNL     1      17.743   6.948  21.220  0.00  0.00    +0.000 A 
ATOM     34  C   UNL     1      18.618   6.116  20.522  0.00  0.00    +0.000 A 
ENDBRANCH  26  28
ENDBRANCH  24  26
ENDBRANCH   9  24
ENDBRANCH  12  20
BRANCH  22  25
ATOM     25  C   UNL     1      12.841  13.885  20.972  0.00  0.00    +0.164 C 
BRANCH  25   1
ATOM      1  S   UNL     1      11.487  14.895  20.355  0.00  0.00    -0.155 S 
ATOM     29  C   UNL     1      10.251  14.508  21.619  0.00  0.00    +0.085 C 
ENDBRANCH  25   1
ENDBRANCH  22  25
TORSDOF 9
ENDMDL
MODEL 3
REMARK VINA RESULT:      -6.4     26.233     29.865
REMARK  Name = 11865846
REMARK  10 active torsions:
REMARK  status: ('A' for Active; 'I' for Inactive)
REMARK    1  A    between atoms: S_1  and  C_25
REMARK    2  A    between atoms: S_1  and  C_29
REMARK    3  A    between atoms: N_7  and  C_11
REMARK    4  A    between atoms: N_8  and  C_15
REMARK    5  A    between atoms: N_9  and  C_24
REMARK    6  A    between atoms: C_12  and  C_20
REMARK    7  A    between atoms: C_22  and  C_25
REMARK    8  A    between atoms: C_24  and  C_26
REMARK    9  A    between atoms: C_24  and  C_27
REMARK   10  A    between atoms: C_26  and  C_28
REMARK                            x       y       z     vdW  Elec       q    Type
REMARK                         _______ _______ _______ _____ _____    ______ ____
ROOT
ATOM      3  O   UNL     1      14.566   3.666   1.600  0.00  0.00    -0.275 OA
ATOM      6  N   UNL     1      15.200   5.878   1.346  0.00  0.00    -0.287 N 
ATOM     11  C   UNL     1      15.292   7.730   2.823  0.00  0.00    +0.105 C 
ATOM     12  C   UNL     1      14.665   6.351   2.618  0.00  0.00    +0.182 C 
ATOM     13  C   UNL     1      15.555   8.218   1.396  0.00  0.00    +0.043 C 
ATOM     14  C   UNL     1      15.899   6.944   0.634  0.00  0.00    +0.110 C 
ATOM     22  C   UNL     1      15.167   4.542   0.975  0.00  0.00    +0.226 C 
ENDROOT
BRANCH  11   7
ATOM      4  O   UNL     1      16.492   9.796   4.422  0.00  0.00    -0.253 OA
ATOM      7  N   UNL     1      16.517   7.635   3.580  0.00  0.00    -0.294 N 
ATOM      8  N   UNL     1      18.216   8.337   4.961  0.00  0.00    -0.297 N 
ATOM     23  C   UNL     1      17.026   8.691   4.330  0.00  0.00    +0.300 C 
ATOM     35  H   UNL     1      17.070   6.785   3.506  0.00  0.00    +0.151 HD
ATOM     36  H   UNL     1      18.529   7.374   4.877  0.00  0.00    +0.151 HD
BRANCH   8  15
ATOM     15  C   UNL     1      18.964   9.241   5.805  0.00  0.00    +0.074 C 
ATOM     16  C   UNL     1      19.739   8.474   6.882  0.00  0.00    +0.022 C 
ATOM     17  C   UNL     1      19.897  10.127   4.974  0.00  0.00    +0.022 C 
ATOM     18  C   UNL     1      20.927   7.702   6.309  0.00  0.00    +0.002 C 
ATOM     19  C   UNL     1      21.086   9.352   4.403  0.00  0.00    +0.002 C 
ATOM     21  C   UNL     1      21.847   8.608   5.494  0.00  0.00    +0.000 C 
ENDBRANCH   8  15
ENDBRANCH  11   7
BRANCH  12  20
ATOM      2  O   UNL     1      12.650   7.387   1.865  0.00  0.00    -0.274 OA
ATOM      9  N   UNL     1      12.516   5.378   3.032  0.00  0.00    -0.302 N 
ATOM     20  C   UNL     1      13.178   6.444   2.448  0.00  0.00    +0.236 C 
ATOM     37  H   UNL     1      13.062   4.614   3.419  0.00  0.00    +0.150 HD
BRANCH   9  24
ATOM     24  C   UNL     1      11.078   5.242   3.028  0.00  0.00    +0.163 C 
BRANCH  24  27
ATOM      5  O   UNL     1       9.806   4.527   1.084  0.00  0.00    -0.274 OA
ATOM     10  N   UNL     1      11.559   3.220   1.792  0.00  0.00    -0.328 N 
ATOM     27  C   UNL     1      10.719   4.311   1.879  0.00  0.00    +0.231 C 
ATOM     38  H   UNL     1      12.323   3.067   2.443  0.00  0.00    +0.145 HD
ATOM     39  H   UNL     1      11.438   2.527   1.061  0.00  0.00    +0.145 HD
ENDBRANCH  24  27
BRANCH  24  26
ATOM     26  C   UNL     1      10.543   4.686   4.353  0.00  0.00    +0.067 C 
BRANCH  26  28
ATOM     28  C   UNL     1       9.752   5.705   5.136  0.00  0.00    -0.045 A 
ATOM     30  C   UNL     1       9.736   5.653   6.530  0.00  0.00    +0.004 A 
ATOM     31  C   UNL     1       9.039   6.699   4.468  0.00  0.00    +0.004 A 
ATOM     32  C   UNL     1       9.006   6.596   7.255  0.00  0.00    +0.000 A 
ATOM     33  C   UNL     1       8.308   7.641   5.192  0.00  0.00    +0.000 A 
ATOM     34  C   UNL     1       8.292   7.589   6.586  0.00  0.00    +0.000 A 
ENDBRANCH  26  28
ENDBRANCH  24  26
ENDBRANCH   9  24
ENDBRANCH  12  20
BRANCH  22  25
ATOM     25  C   UNL     1      15.922   4.197  -0.284  0.00  0.00    +0.164 C 
BRANCH  25   1
ATOM      1  S   UNL     1      14.774   4.329  -1.662  0.00  0.00    -0.155 S 
ATOM     29  C   UNL     1      15.884   5.079  -2.880  0.00  0.00    +0.085 C 
ENDBRANCH  25   1
ENDBRANCH  22  25
TORSDOF 9
ENDMDL
MODEL 4
REMARK VINA RESULT:      -6.4     26.275     29.762
REMARK  Name = 11865846
REMARK  10 active torsions:
REMARK  status: ('A' for Active; 'I' for Inactive)
REMARK    1  A    between atoms: S_1  and  C_25
REMARK    2  A    between atoms: S_1  and  C_29
REMARK    3  A    between atoms: N_7  and  C_11
REMARK    4  A    between atoms: N_8  and  C_15
REMARK    5  A    between atoms: N_9  and  C_24
REMARK    6  A    between atoms: C_12  and  C_20
REMARK    7  A    between atoms: C_22  and  C_25
REMARK    8  A    between atoms: C_24  and  C_26
REMARK    9  A    between atoms: C_24  and  C_27
REMARK   10  A    between atoms: C_26  and  C_28
REMARK                            x       y       z     vdW  Elec       q    Type
REMARK                         _______ _______ _______ _____ _____    ______ ____
ROOT
ATOM      3  O   UNL     1      14.803  -6.194  -3.559  0.00  0.00    -0.275 OA
ATOM      6  N   UNL     1      16.196  -7.994  -3.983  0.00  0.00    -0.287 N 
ATOM     11  C   UNL     1      17.902  -9.067  -2.734  0.00  0.00    +0.105 C 
ATOM     12  C   UNL     1      17.100  -7.772  -2.859  0.00  0.00    +0.182 C 
ATOM     13  C   UNL     1      17.902  -9.626  -4.160  0.00  0.00    +0.043 C 
ATOM     14  C   UNL     1      16.544  -9.209  -4.713  0.00  0.00    +0.110 C 
ATOM     22  C   UNL     1      15.068  -7.216  -4.195  0.00  0.00    +0.226 C 
ENDROOT
BRANCH  11   7
ATOM      4  O   UNL     1      19.170 -10.494  -0.584  0.00  0.00    -0.253 OA
ATOM      7  N   UNL     1      17.270  -9.981  -1.812  0.00  0.00    -0.294 N 
ATOM      8  N   UNL     1      17.123 -11.452  -0.052  0.00  0.00    -0.297 N 
ATOM     23  C   UNL     1      17.965 -10.630  -0.795  0.00  0.00    +0.300 C 
ATOM     35  H   UNL     1      16.291 -10.215  -1.953  0.00  0.00    +0.151 HD
ATOM     36  H   UNL     1      16.130 -11.432  -0.266  0.00  0.00    +0.151 HD
BRANCH   8  15
ATOM     15  C   UNL     1      17.578 -12.246   1.067  0.00  0.00    +0.074 C 
ATOM     16  C   UNL     1      17.562 -11.430   2.365  0.00  0.00    +0.022 C 
ATOM     17  C   UNL     1      16.749 -13.527   1.207  0.00  0.00    +0.022 C 
ATOM     18  C   UNL     1      16.145 -11.161   2.869  0.00  0.00    +0.002 C 
ATOM     19  C   UNL     1      15.332 -13.255   1.714  0.00  0.00    +0.002 C 
ATOM     21  C   UNL     1      15.343 -12.452   3.011  0.00  0.00    +0.000 C 
ENDBRANCH   8  15
ENDBRANCH  11   7
BRANCH  12  20
ATOM      2  O   UNL     1      18.877  -6.732  -4.069  0.00  0.00    -0.274 OA
ATOM      9  N   UNL     1      17.663  -5.465  -2.539  0.00  0.00    -0.302 N 
ATOM     20  C   UNL     1      17.979  -6.617  -3.239  0.00  0.00    +0.236 C 
ATOM     37  H   UNL     1      16.847  -5.467  -1.934  0.00  0.00    +0.150 HD
BRANCH   9  24
ATOM     24  C   UNL     1      18.375  -4.220  -2.705  0.00  0.00    +0.163 C 
BRANCH  24  27
ATOM      5  O   UNL     1      17.813  -2.314  -4.105  0.00  0.00    -0.274 OA
ATOM     10  N   UNL     1      16.104  -3.580  -3.235  0.00  0.00    -0.328 N 
ATOM     27  C   UNL     1      17.433  -3.256  -3.412  0.00  0.00    +0.231 C 
ATOM     38  H   UNL     1      15.806  -4.375  -2.678  0.00  0.00    +0.145 HD
ATOM     39  H   UNL     1      15.371  -3.025  -3.665  0.00  0.00    +0.145 HD
ENDBRANCH  24  27
BRANCH  24  26
ATOM     26  C   UNL     1      18.835  -3.631  -1.366  0.00  0.00    +0.067 C 
BRANCH  26  28
ATOM     28  C   UNL     1      19.872  -4.485  -0.679  0.00  0.00    -0.045 A 
ATOM     30  C   UNL     1      19.629  -4.980   0.603  0.00  0.00    +0.004 A 
ATOM     31  C   UNL     1      21.072  -4.781  -1.325  0.00  0.00    +0.004 A 
ATOM     32  C   UNL     1      20.588  -5.770   1.239  0.00  0.00    +0.000 A 
ATOM     33  C   UNL     1      22.030  -5.570  -0.690  0.00  0.00    +0.000 A 
ATOM     34  C   UNL     1      21.788  -6.065   0.592  0.00  0.00    +0.000 A 
ENDBRANCH  26  28
ENDBRANCH  24  26
ENDBRANCH   9  24
ENDBRANCH  12  20
BRANCH  22  25
ATOM     25  C   UNL     1      14.147  -7.690  -5.291  0.00  0.00    +0.164 C 
BRANCH  25   1
ATOM      1  S   UNL     1      13.610  -6.245  -6.217  0.00  0.00    -0.155 S 
ATOM     29  C   UNL     1      12.518  -7.064  -7.405  0.00  0.00    +0.085 C 
ENDBRANCH  25   1
ENDBRANCH  22  25
TORSDOF 9
ENDMDL
MODEL 5
REMARK VINA RESULT:      -6.4     25.799     29.486
REMARK  Name = 11865846
REMARK  10 active torsions:
REMARK  status: ('A' for Active; 'I' for Inactive)
REMARK    1  A    between atoms: S_1  and  C_25
REMARK    2  A    between atoms: S_1  and  C_29
REMARK    3  A    between atoms: N_7  and  C_11
REMARK    4  A    between atoms: N_8  and  C_15
REMARK    5  A    between atoms: N_9  and  C_24
REMARK    6  A    between atoms: C_12  and  C_20
REMARK    7  A    between atoms: C_22  and  C_25
REMARK    8  A    between atoms: C_24  and  C_26
REMARK    9  A    between atoms: C_24  and  C_27
REMARK   10  A    between atoms: C_26  and  C_28
REMARK                            x       y       z     vdW  Elec       q    Type
REMARK                         _______ _______ _______ _____ _____    ______ ____
ROOT
ATOM      3  O   UNL     1      12.932   4.719   1.967  0.00  0.00    -0.275 OA
ATOM      6  N   UNL     1      13.926   6.807   1.874  0.00  0.00    -0.287 N 
ATOM     11  C   UNL     1      15.051   8.152   3.471  0.00  0.00    +0.105 C 
ATOM     12  C   UNL     1      14.080   6.982   3.315  0.00  0.00    +0.182 C 
ATOM     13  C   UNL     1      14.828   8.972   2.197  0.00  0.00    +0.043 C 
ATOM     14  C   UNL     1      14.516   7.922   1.138  0.00  0.00    +0.110 C 
ATOM     22  C   UNL     1      13.424   5.642   1.315  0.00  0.00    +0.226 C 
ENDROOT
BRANCH  11   7
ATOM      4  O   UNL     1      17.360   9.714   4.171  0.00  0.00    -0.253 OA
ATOM      7  N   UNL     1      16.414   7.686   3.563  0.00  0.00    -0.294 N 
ATOM      8  N   UNL     1      18.680   7.820   3.927  0.00  0.00    -0.297 N 
ATOM     23  C   UNL     1      17.475   8.517   3.912  0.00  0.00    +0.300 C 
ATOM     35  H   UNL     1      16.620   6.728   3.293  0.00  0.00    +0.151 HD
ATOM     36  H   UNL     1      18.650   6.817   3.769  0.00  0.00    +0.151 HD
BRANCH   8  15
ATOM     15  C   UNL     1      19.946   8.435   4.256  0.00  0.00    +0.074 C 
ATOM     16  C   UNL     1      20.716   7.596   5.281  0.00  0.00    +0.022 C 
ATOM     17  C   UNL     1      20.784   8.679   2.996  0.00  0.00    +0.022 C 
ATOM     18  C   UNL     1      21.268   6.303   4.682  0.00  0.00    +0.002 C 
ATOM     19  C   UNL     1      21.336   7.384   2.400  0.00  0.00    +0.002 C 
ATOM     21  C   UNL     1      22.108   6.572   3.436  0.00  0.00    +0.000 C 
ENDBRANCH   8  15
ENDBRANCH  11   7
BRANCH  12  20
ATOM      2  O   UNL     1      12.387   8.479   4.085  0.00  0.00    -0.274 OA
ATOM      9  N   UNL     1      11.944   6.193   4.058  0.00  0.00    -0.302 N 
ATOM     20  C   UNL     1      12.721   7.320   3.852  0.00  0.00    +0.236 C 
ATOM     37  H   UNL     1      12.297   5.291   3.753  0.00  0.00    +0.150 HD
BRANCH   9  24
ATOM     24  C   UNL     1      10.602   6.246   4.590  0.00  0.00    +0.163 C 
BRANCH  24  27
ATOM      5  O   UNL     1       9.820   6.079   2.295  0.00  0.00    -0.274 OA
ATOM     10  N   UNL     1       8.602   7.339   3.781  0.00  0.00    -0.328 N 
ATOM     27  C   UNL     1       9.668   6.540   3.424  0.00  0.00    +0.231 C 
ATOM     38  H   UNL     1       8.478   7.693   4.724  0.00  0.00    +0.145 HD
ATOM     39  H   UNL     1       7.896   7.599   3.101  0.00  0.00    +0.145 HD
ENDBRANCH  24  27
BRANCH  24  26
ATOM     26  C   UNL     1      10.199   4.938   5.280  0.00  0.00    +0.067 C 
BRANCH  26  28
ATOM     28  C   UNL     1       9.816   5.135   6.726  0.00  0.00    -0.045 A 
ATOM     30  C   UNL     1       9.427   6.395   7.179  0.00  0.00    +0.004 A 
ATOM     31  C   UNL     1       9.850   4.056   7.610  0.00  0.00    +0.004 A 
ATOM     32  C   UNL     1       9.073   6.578   8.517  0.00  0.00    +0.000 A 
ATOM     33  C   UNL     1       9.496   4.238   8.947  0.00  0.00    +0.000 A 
ATOM     34  C   UNL     1       9.107   5.499   9.400  0.00  0.00    +0.000 A 
ENDBRANCH  26  28
ENDBRANCH  24  26
ENDBRANCH   9  24
ENDBRANCH  12  20
BRANCH  22  25
ATOM     25  C   UNL     1      13.500   5.557  -0.189  0.00  0.00    +0.164 C 
BRANCH  25   1
ATOM      1  S   UNL     1      14.163   3.939  -0.612  0.00  0.00    -0.155 S 
ATOM     29  C   UNL     1      12.645   3.166  -1.224  0.00  0.00    +0.085 C 
ENDBRANCH  25   1
ENDBRANCH  22  25
TORSDOF 9
ENDMDL
MODEL 6
REMARK VINA RESULT:      -6.3      3.519      5.951
REMARK  Name = 11865846
REMARK  10 active torsions:
REMARK  status: ('A' for Active; 'I' for Inactive)
REMARK    1  A    between atoms: S_1  and  C_25
REMARK    2  A    between atoms: S_1  and  C_29
REMARK    3  A    between atoms: N_7  and  C_11
REMARK    4  A    between atoms: N_8  and  C_15
REMARK    5  A    between atoms: N_9  and  C_24
REMARK    6  A    between atoms: C_12  and  C_20
REMARK    7  A    between atoms: C_22  and  C_25
REMARK    8  A    between atoms: C_24  and  C_26
REMARK    9  A    between atoms: C_24  and  C_27
REMARK   10  A    between atoms: C_26  and  C_28
REMARK                            x       y       z     vdW  Elec       q    Type
REMARK                         _______ _______ _______ _____ _____    ______ ____
ROOT
ATOM      3  O   UNL     1      -5.896 -13.657  15.137  0.00  0.00    -0.275 OA
ATOM      6  N   UNL     1      -5.570 -12.569  17.155  0.00  0.00    -0.287 N 
ATOM     11  C   UNL     1      -6.462 -10.589  18.105  0.00  0.00    +0.105 C 
ATOM     12  C   UNL     1      -6.243 -11.329  16.785  0.00  0.00    +0.182 C 
ATOM     13  C   UNL     1      -5.322 -11.097  18.992  0.00  0.00    +0.043 C 
ATOM     14  C   UNL     1      -5.133 -12.542  18.547  0.00  0.00    +0.110 C 
ATOM     22  C   UNL     1      -5.518 -13.668  16.310  0.00  0.00    +0.226 C 
ENDROOT
BRANCH  11   7
ATOM      4  O   UNL     1      -8.959  -9.277  17.550  0.00  0.00    -0.253 OA
ATOM      7  N   UNL     1      -7.751 -10.909  18.671  0.00  0.00    -0.294 N 
ATOM      8  N   UNL     1     -10.014 -10.726  19.025  0.00  0.00    -0.297 N 
ATOM     23  C   UNL     1      -8.914 -10.218  18.342  0.00  0.00    +0.300 C 
ATOM     35  H   UNL     1      -7.802 -11.623  19.392  0.00  0.00    +0.151 HD
ATOM     36  H   UNL     1      -9.876 -11.553  19.599  0.00  0.00    +0.151 HD
BRANCH   8  15
ATOM     15  C   UNL     1     -11.352 -10.197  18.876  0.00  0.00    +0.074 C 
ATOM     16  C   UNL     1     -12.124 -10.951  17.788  0.00  0.00    +0.022 C 
ATOM     17  C   UNL     1     -12.106 -10.222  20.210  0.00  0.00    +0.022 C 
ATOM     18  C   UNL     1     -12.511 -12.365  18.219  0.00  0.00    +0.002 C 
ATOM     19  C   UNL     1     -12.494 -11.638  20.637  0.00  0.00    +0.002 C 
ATOM     21  C   UNL     1     -13.270 -12.363  19.543  0.00  0.00    +0.000 C 
ENDBRANCH   8  15
ENDBRANCH  11   7
BRANCH  12  20
ATOM      2  O   UNL     1      -5.658  -9.592  15.254  0.00  0.00    -0.274 OA
ATOM      9  N   UNL     1      -4.042 -11.156  15.857  0.00  0.00    -0.302 N 
ATOM     20  C   UNL     1      -5.302 -10.583  15.887  0.00  0.00    +0.236 C 
ATOM     37  H   UNL     1      -3.839 -11.928  16.483  0.00  0.00    +0.150 HD
BRANCH   9  24
ATOM     24  C   UNL     1      -2.959 -10.641  15.051  0.00  0.00    +0.163 C 
BRANCH  24  27
ATOM      5  O   UNL     1      -0.604 -10.284  15.529  0.00  0.00    -0.274 OA
ATOM     10  N   UNL     1      -1.936 -11.177  17.175  0.00  0.00    -0.328 N 
ATOM     27  C   UNL     1      -1.702 -10.685  15.907  0.00  0.00    +0.231 C 
ATOM     38  H   UNL     1      -2.854 -11.483  17.480  0.00  0.00    +0.145 HD
ATOM     39  H   UNL     1      -1.184 -11.246  17.853  0.00  0.00    +0.145 HD
ENDBRANCH  24  27
BRANCH  24  26
ATOM     26  C   UNL     1      -2.757 -11.451  13.765  0.00  0.00    +0.067 C 
BRANCH  26  28
ATOM     28  C   UNL     1      -3.004 -10.638  12.518  0.00  0.00    -0.045 A 
ATOM     30  C   UNL     1      -1.930 -10.076  11.828  0.00  0.00    +0.004 A 
ATOM     31  C   UNL     1      -4.306 -10.449  12.055  0.00  0.00    +0.004 A 
ATOM     32  C   UNL     1      -2.159  -9.324  10.675  0.00  0.00    +0.000 A 
ATOM     33  C   UNL     1      -4.535  -9.698  10.902  0.00  0.00    +0.000 A 
ATOM     34  C   UNL     1      -3.461  -9.135  10.212  0.00  0.00    +0.000 A 
ENDBRANCH  26  28
ENDBRANCH  24  26
ENDBRANCH   9  24
ENDBRANCH  12  20
BRANCH  22  25
ATOM     25  C   UNL     1      -4.944 -14.926  16.912  0.00  0.00    +0.164 C 
BRANCH  25   1
ATOM      1  S   UNL     1      -4.895 -16.177  15.622  0.00  0.00    -0.155 S 
ATOM     29  C   UNL     1      -3.175 -15.971  15.097  0.00  0.00    +0.085 C 
ENDBRANCH  25   1
ENDBRANCH  22  25
TORSDOF 9
ENDMDL
MODEL 7
REMARK VINA RESULT:      -6.2     25.026     28.048
REMARK  Name = 11865846
REMARK  10 active torsions:
REMARK  status: ('A' for Active; 'I' for Inactive)
REMARK    1  A    between atoms: S_1  and  C_25
REMARK    2  A    between atoms: S_1  and  C_29
REMARK    3  A    between atoms: N_7  and  C_11
REMARK    4  A    between atoms: N_8  and  C_15
REMARK    5  A    between atoms: N_9  and  C_24
REMARK    6  A    between atoms: C_12  and  C_20
REMARK    7  A    between atoms: C_22  and  C_25
REMARK    8  A    between atoms: C_24  and  C_26
REMARK    9  A    between atoms: C_24  and  C_27
REMARK   10  A    between atoms: C_26  and  C_28
REMARK                            x       y       z     vdW  Elec       q    Type
REMARK                         _______ _______ _______ _____ _____    ______ ____
ROOT
ATOM      3  O   UNL     1      15.232   7.537   6.556  0.00  0.00    -0.275 OA
ATOM      6  N   UNL     1      13.598   9.142   6.223  0.00  0.00    -0.287 N 
ATOM     11  C   UNL     1      11.669   9.785   7.443  0.00  0.00    +0.105 C 
ATOM     12  C   UNL     1      12.674   8.651   7.240  0.00  0.00    +0.182 C 
ATOM     13  C   UNL     1      11.666  10.505   6.091  0.00  0.00    +0.043 C 
ATOM     14  C   UNL     1      13.104  10.369   5.605  0.00  0.00    +0.110 C 
ATOM     22  C   UNL     1      14.847   8.576   6.017  0.00  0.00    +0.226 C 
ENDROOT
BRANCH  11   7
ATOM      4  O   UNL     1       9.997  10.964   9.462  0.00  0.00    -0.253 OA
ATOM      7  N   UNL     1      12.089  10.666   8.506  0.00  0.00    -0.294 N 
ATOM      8  N   UNL     1      11.865  12.009  10.358  0.00  0.00    -0.297 N 
ATOM     23  C   UNL     1      11.206  11.192   9.445  0.00  0.00    +0.300 C 
ATOM     35  H   UNL     1      13.057  10.973   8.530  0.00  0.00    +0.151 HD
ATOM     36  H   UNL     1      12.878  12.069  10.296  0.00  0.00    +0.151 HD
BRANCH   8  15
ATOM     15  C   UNL     1      11.193  12.688  11.444  0.00  0.00    +0.074 C 
ATOM     16  C   UNL     1      11.623  12.116  12.800  0.00  0.00    +0.022 C 
ATOM     17  C   UNL     1      11.429  14.200  11.379  0.00  0.00    +0.022 C 
ATOM     18  C   UNL     1      13.053  12.505  13.172  0.00  0.00    +0.002 C 
ATOM     19  C   UNL     1      12.861  14.586  11.753  0.00  0.00    +0.002 C 
ATOM     21  C   UNL     1      13.260  14.016  13.111  0.00  0.00    +0.000 C 
ENDBRANCH   8  15
ENDBRANCH  11   7
BRANCH  12  20
ATOM      2  O   UNL     1      12.497   6.823   5.715  0.00  0.00    -0.274 OA
ATOM      9  N   UNL     1      10.837   7.116   7.320  0.00  0.00    -0.302 N 
ATOM     20  C   UNL     1      12.017   7.431   6.668  0.00  0.00    +0.236 C 
ATOM     37  H   UNL     1      10.578   7.644   8.148  0.00  0.00    +0.150 HD
BRANCH   9  24
ATOM     24  C   UNL     1      10.002   5.998   6.946  0.00  0.00    +0.163 C 
BRANCH  24  27
ATOM      5  O   UNL     1       9.081   5.513   9.142  0.00  0.00    -0.274 OA
ATOM     10  N   UNL     1      10.424   3.939   8.142  0.00  0.00    -0.328 N 
ATOM     27  C   UNL     1       9.786   5.161   8.198  0.00  0.00    +0.231 C 
ATOM     38  H   UNL     1      10.984   3.653   7.345  0.00  0.00    +0.145 HD
ATOM     39  H   UNL     1      10.350   3.277   8.908  0.00  0.00    +0.145 HD
ENDBRANCH  24  27
BRANCH  24  26
ATOM     26  C   UNL     1       8.656   6.448   6.366  0.00  0.00    +0.067 C 
BRANCH  26  28
ATOM     28  C   UNL     1       8.771   6.954   4.949  0.00  0.00    -0.045 A 
ATOM     30  C   UNL     1       8.062   8.087   4.553  0.00  0.00    +0.004 A 
ATOM     31  C   UNL     1       9.588   6.288   4.035  0.00  0.00    +0.004 A 
ATOM     32  C   UNL     1       8.168   8.555   3.242  0.00  0.00    +0.000 A 
ATOM     33  C   UNL     1       9.695   6.755   2.725  0.00  0.00    +0.000 A 
ATOM     34  C   UNL     1       8.985   7.889   2.329  0.00  0.00    +0.000 A 
ENDBRANCH  26  28
ENDBRANCH  24  26
ENDBRANCH   9  24
ENDBRANCH  12  20
BRANCH  22  25
ATOM     25  C   UNL     1      15.744   9.314   5.055  0.00  0.00    +0.164 C 
BRANCH  25   1
ATOM      1  S   UNL     1      16.953  10.225   6.026  0.00  0.00    -0.155 S 
ATOM     29  C   UNL     1      18.312   9.031   5.974  0.00  0.00    +0.085 C 
ENDBRANCH  25   1
ENDBRANCH  22  25
TORSDOF 9
ENDMDL
MODEL 8
REMARK VINA RESULT:      -6.1     27.259     30.223
REMARK  Name = 11865846
REMARK  10 active torsions:
REMARK  status: ('A' for Active; 'I' for Inactive)
REMARK    1  A    between atoms: S_1  and  C_25
REMARK    2  A    between atoms: S_1  and  C_29
REMARK    3  A    between atoms: N_7  and  C_11
REMARK    4  A    between atoms: N_8  and  C_15
REMARK    5  A    between atoms: N_9  and  C_24
REMARK    6  A    between atoms: C_12  and  C_20
REMARK    7  A    between atoms: C_22  and  C_25
REMARK    8  A    between atoms: C_24  and  C_26
REMARK    9  A    between atoms: C_24  and  C_27
REMARK   10  A    between atoms: C_26  and  C_28
REMARK                            x       y       z     vdW  Elec       q    Type
REMARK                         _______ _______ _______ _____ _____    ______ ____
ROOT
ATOM      3  O   UNL     1      14.270  13.224  20.352  0.00  0.00    -0.275 OA
ATOM      6  N   UNL     1      15.199  12.639  18.314  0.00  0.00    -0.287 N 
ATOM     11  C   UNL     1      14.432  11.346  16.481  0.00  0.00    +0.105 C 
ATOM     12  C   UNL     1      14.214  11.620  17.969  0.00  0.00    +0.182 C 
ATOM     13  C   UNL     1      15.912  11.681  16.270  0.00  0.00    +0.043 C 
ATOM     14  C   UNL     1      16.165  12.832  17.236  0.00  0.00    +0.110 C 
ATOM     22  C   UNL     1      15.098  13.414  19.459  0.00  0.00    +0.226 C 
ENDROOT
BRANCH  11   7
ATOM      4  O   UNL     1      14.171  11.273  13.619  0.00  0.00    -0.253 OA
ATOM      7  N   UNL     1      13.583  12.185  15.669  0.00  0.00    -0.294 N 
ATOM      8  N   UNL     1      12.626  13.001  13.745  0.00  0.00    -0.297 N 
ATOM     23  C   UNL     1      13.519  12.079  14.282  0.00  0.00    +0.300 C 
ATOM     35  H   UNL     1      13.062  12.932  16.121  0.00  0.00    +0.151 HD
ATOM     36  H   UNL     1      12.085  13.569  14.391  0.00  0.00    +0.151 HD
BRANCH   8  15
ATOM     15  C   UNL     1      12.362  13.115  12.328  0.00  0.00    +0.074 C 
ATOM     16  C   UNL     1      11.312  12.091  11.881  0.00  0.00    +0.022 C 
ATOM     17  C   UNL     1      11.940  14.540  11.959  0.00  0.00    +0.022 C 
ATOM     18  C   UNL     1       9.909  12.437  12.378  0.00  0.00    +0.002 C 
ATOM     19  C   UNL     1      10.535  14.883  12.456  0.00  0.00    +0.002 C 
ATOM     21  C   UNL     1       9.507  13.857  11.988  0.00  0.00    +0.000 C 
ENDBRANCH   8  15
ENDBRANCH  11   7
BRANCH  12  20
ATOM      2  O   UNL     1      15.544  10.362  19.503  0.00  0.00    -0.274 OA
ATOM      9  N   UNL     1      13.594   9.411  18.658  0.00  0.00    -0.302 N 
ATOM     20  C   UNL     1      14.536  10.415  18.802  0.00  0.00    +0.236 C 
ATOM     37  H   UNL     1      12.759   9.597  18.112  0.00  0.00    +0.150 HD
BRANCH   9  24
ATOM     24  C   UNL     1      13.685   8.139  19.337  0.00  0.00    +0.163 C 
BRANCH  24  27
ATOM      5  O   UNL     1      11.261   8.305  19.378  0.00  0.00    -0.274 OA
ATOM     10  N   UNL     1      12.227   6.245  19.699  0.00  0.00    -0.328 N 
ATOM     27  C   UNL     1      12.267   7.607  19.484  0.00  0.00    +0.231 C 
ATOM     38  H   UNL     1      13.067   5.678  19.762  0.00  0.00    +0.145 HD
ATOM     39  H   UNL     1      11.342   5.760  19.801  0.00  0.00    +0.145 HD
ENDBRANCH  24  27
BRANCH  24  26
ATOM     26  C   UNL     1      14.556   7.135  18.572  0.00  0.00    +0.067 C 
BRANCH  26  28
ATOM     28  C   UNL     1      15.841   6.810  19.293  0.00  0.00    -0.045 A 
ATOM     30  C   UNL     1      16.797   5.997  18.682  0.00  0.00    +0.004 A 
ATOM     31  C   UNL     1      16.074   7.322  20.569  0.00  0.00    +0.004 A 
ATOM     32  C   UNL     1      17.985   5.696  19.348  0.00  0.00    +0.000 A 
ATOM     33  C   UNL     1      17.262   7.021  21.235  0.00  0.00    +0.000 A 
ATOM     34  C   UNL     1      18.218   6.209  20.624  0.00  0.00    +0.000 A 
ENDBRANCH  26  28
ENDBRANCH  24  26
ENDBRANCH   9  24
ENDBRANCH  12  20
BRANCH  22  25
ATOM     25  C   UNL     1      16.096  14.540  19.574  0.00  0.00    +0.164 C 
BRANCH  25   1
ATOM      1  S   UNL     1      17.383  14.015  20.715  0.00  0.00    -0.155 S 
ATOM     29  C   UNL     1      16.850  14.934  22.180  0.00  0.00    +0.085 C 
ENDBRANCH  25   1
ENDBRANCH  22  25
TORSDOF 9
ENDMDL
MODEL 9
REMARK VINA RESULT:      -6.1     25.584     29.242
REMARK  Name = 11865846
REMARK  10 active torsions:
REMARK  status: ('A' for Active; 'I' for Inactive)
REMARK    1  A    between atoms: S_1  and  C_25
REMARK    2  A    between atoms: S_1  and  C_29
REMARK    3  A    between atoms: N_7  and  C_11
REMARK    4  A    between atoms: N_8  and  C_15
REMARK    5  A    between atoms: N_9  and  C_24
REMARK    6  A    between atoms: C_12  and  C_20
REMARK    7  A    between atoms: C_22  and  C_25
REMARK    8  A    between atoms: C_24  and  C_26
REMARK    9  A    between atoms: C_24  and  C_27
REMARK   10  A    between atoms: C_26  and  C_28
REMARK                            x       y       z     vdW  Elec       q    Type
REMARK                         _______ _______ _______ _____ _____    ______ ____
ROOT
ATOM      3  O   UNL     1      11.762  10.804   4.829  0.00  0.00    -0.275 OA
ATOM      6  N   UNL     1      12.650   8.991   5.964  0.00  0.00    -0.287 N 
ATOM     11  C   UNL     1      14.213   7.306   5.381  0.00  0.00    +0.105 C 
ATOM     12  C   UNL     1      13.257   8.350   4.802  0.00  0.00    +0.182 C 
ATOM     13  C   UNL     1      13.583   6.955   6.731  0.00  0.00    +0.043 C 
ATOM     14  C   UNL     1      12.958   8.267   7.193  0.00  0.00    +0.110 C 
ATOM     22  C   UNL     1      12.007  10.218   5.885  0.00  0.00    +0.226 C 
ENDROOT
BRANCH  11   7
ATOM      4  O   UNL     1      16.220   7.601   3.344  0.00  0.00    -0.253 OA
ATOM      7  N   UNL     1      15.539   7.854   5.547  0.00  0.00    -0.294 N 
ATOM      8  N   UNL     1      17.649   8.520   4.926  0.00  0.00    -0.297 N 
ATOM     23  C   UNL     1      16.449   7.959   4.499  0.00  0.00    +0.300 C 
ATOM     35  H   UNL     1      15.847   8.108   6.481  0.00  0.00    +0.151 HD
ATOM     36  H   UNL     1      17.704   8.848   5.886  0.00  0.00    +0.151 HD
BRANCH   8  15
ATOM     15  C   UNL     1      18.775   8.747   4.048  0.00  0.00    +0.074 C 
ATOM     16  C   UNL     1      19.446  10.091   4.349  0.00  0.00    +0.022 C 
ATOM     17  C   UNL     1      19.780   7.594   4.130  0.00  0.00    +0.022 C 
ATOM     18  C   UNL     1      20.218  10.077   5.668  0.00  0.00    +0.002 C 
ATOM     19  C   UNL     1      20.552   7.582   5.450  0.00  0.00    +0.002 C 
ATOM     21  C   UNL     1      21.220   8.927   5.721  0.00  0.00    +0.000 C 
ENDBRANCH   8  15
ENDBRANCH  11   7
BRANCH  12  20
ATOM      2  O   UNL     1      11.397   8.355   3.305  0.00  0.00    -0.274 OA
ATOM      9  N   UNL     1      12.055   6.346   4.278  0.00  0.00    -0.302 N 
ATOM     20  C   UNL     1      12.140   7.706   4.036  0.00  0.00    +0.236 C 
ATOM     37  H   UNL     1      12.774   5.902   4.841  0.00  0.00    +0.150 HD
BRANCH   9  24
ATOM     24  C   UNL     1      11.049   5.498   3.679  0.00  0.00    +0.163 C 
BRANCH  24  27
ATOM      5  O   UNL     1      11.307   3.450   2.398  0.00  0.00    -0.274 OA
ATOM     10  N   UNL     1      12.986   5.016   2.314  0.00  0.00    -0.328 N 
ATOM     27  C   UNL     1      11.772   4.531   2.754  0.00  0.00    +0.231 C 
ATOM     38  H   UNL     1      13.346   5.921   2.599  0.00  0.00    +0.145 HD
ATOM     39  H   UNL     1      13.564   4.475   1.679  0.00  0.00    +0.145 HD
ENDBRANCH  24  27
BRANCH  24  26
ATOM     26  C   UNL     1      10.239   4.729   4.729  0.00  0.00    +0.067 C 
BRANCH  26  28
ATOM     28  C   UNL     1       9.709   5.620   5.826  0.00  0.00    -0.045 A 
ATOM     30  C   UNL     1      10.186   5.481   7.129  0.00  0.00    +0.004 A 
ATOM     31  C   UNL     1       8.743   6.583   5.536  0.00  0.00    +0.004 A 
ATOM     32  C   UNL     1       9.696   6.305   8.143  0.00  0.00    +0.000 A 
ATOM     33  C   UNL     1       8.253   7.407   6.548  0.00  0.00    +0.000 A 
ATOM     34  C   UNL     1       8.729   7.268   7.852  0.00  0.00    +0.000 A 
ENDBRANCH  26  28
ENDBRANCH  24  26
ENDBRANCH   9  24
ENDBRANCH  12  20
BRANCH  22  25
ATOM     25  C   UNL     1      11.596  10.822   7.204  0.00  0.00    +0.164 C 
BRANCH  25   1
ATOM      1  S   UNL     1       9.799  10.881   7.242  0.00  0.00    -0.155 S 
ATOM     29  C   UNL     1       9.554  10.809   9.034  0.00  0.00    +0.085 C 
ENDBRANCH  25   1
ENDBRANCH  22  25
TORSDOF 9
ENDMDL
MODEL 10
REMARK VINA RESULT:      -6.0     24.910     28.416
REMARK  Name = 11865846
REMARK  10 active torsions:
REMARK  status: ('A' for Active; 'I' for Inactive)
REMARK    1  A    between atoms: S_1  and  C_25
REMARK    2  A    between atoms: S_1  and  C_29
REMARK    3  A    between atoms: N_7  and  C_11
REMARK    4  A    between atoms: N_8  and  C_15
REMARK    5  A    between atoms: N_9  and  C_24
REMARK    6  A    between atoms: C_12  and  C_20
REMARK    7  A    between atoms: C_22  and  C_25
REMARK    8  A    between atoms: C_24  and  C_26
REMARK    9  A    between atoms: C_24  and  C_27
REMARK   10  A    between atoms: C_26  and  C_28
REMARK                            x       y       z     vdW  Elec       q    Type
REMARK                         _______ _______ _______ _____ _____    ______ ____
ROOT
ATOM      3  O   UNL     1      12.998  11.702   4.797  0.00  0.00    -0.275 OA
ATOM      6  N   UNL     1      13.424   9.666   5.814  0.00  0.00    -0.287 N 
ATOM     11  C   UNL     1      12.604   7.467   5.472  0.00  0.00    +0.105 C 
ATOM     12  C   UNL     1      12.306   8.944   5.215  0.00  0.00    +0.182 C 
ATOM     13  C   UNL     1      13.448   7.491   6.749  0.00  0.00    +0.043 C 
ATOM     14  C   UNL     1      14.250   8.782   6.631  0.00  0.00    +0.110 C 
ATOM     22  C   UNL     1      13.719  10.982   5.491  0.00  0.00    +0.226 C 
ENDROOT
BRANCH  11   7
ATOM      4  O   UNL     1      11.503   5.987   3.268  0.00  0.00    -0.253 OA
ATOM      7  N   UNL     1      13.335   6.887   4.371  0.00  0.00    -0.294 N 
ATOM      8  N   UNL     1      13.645   5.730   2.409  0.00  0.00    -0.297 N 
ATOM     23  C   UNL     1      12.716   6.183   3.341  0.00  0.00    +0.300 C 
ATOM     35  H   UNL     1      14.350   6.932   4.382  0.00  0.00    +0.151 HD
ATOM     36  H   UNL     1      14.613   6.013   2.528  0.00  0.00    +0.151 HD
BRANCH   8  15
ATOM     15  C   UNL     1      13.281   4.970   1.234  0.00  0.00    +0.074 C 
ATOM     16  C   UNL     1      13.701   5.701  -0.047  0.00  0.00    +0.022 C 
ATOM     17  C   UNL     1      13.873   3.558   1.287  0.00  0.00    +0.022 C 
ATOM     18  C   UNL     1      15.214   5.689  -0.258  0.00  0.00    +0.002 C 
ATOM     19  C   UNL     1      15.388   3.549   1.074  0.00  0.00    +0.002 C 
ATOM     21  C   UNL     1      15.778   4.271  -0.212  0.00  0.00    +0.000 C 
ENDBRANCH   8  15
ENDBRANCH  11   7
BRANCH  12  20
ATOM      2  O   UNL     1      11.131  10.006   7.003  0.00  0.00    -0.274 OA
ATOM      9  N   UNL     1       9.912   9.008   5.289  0.00  0.00    -0.302 N 
ATOM     20  C   UNL     1      11.072   9.390   5.941  0.00  0.00    +0.236 C 
ATOM     37  H   UNL     1       9.985   8.570   4.376  0.00  0.00    +0.150 HD
BRANCH   9  24
ATOM     24  C   UNL     1       8.590   9.295   5.794  0.00  0.00    +0.163 C 
BRANCH  24  27
ATOM      5  O   UNL     1       8.347  11.276   4.407  0.00  0.00    -0.274 OA
ATOM     10  N   UNL     1       6.754   9.627   4.256  0.00  0.00    -0.328 N 
ATOM     27  C   UNL     1       7.904  10.189   4.771  0.00  0.00    +0.231 C 
ATOM     38  H   UNL     1       6.413   8.717   4.550  0.00  0.00    +0.145 HD
ATOM     39  H   UNL     1       6.207  10.113   3.553  0.00  0.00    +0.145 HD
ENDBRANCH  24  27
BRANCH  24  26
ATOM     26  C   UNL     1       7.768   8.022   6.028  0.00  0.00    +0.067 C 
BRANCH  26  28
ATOM     28  C   UNL     1       8.578   6.911   6.649  0.00  0.00    -0.045 A 
ATOM     30  C   UNL     1       8.994   5.831   5.870  0.00  0.00    +0.004 A 
ATOM     31  C   UNL     1       8.911   6.963   8.002  0.00  0.00    +0.004 A 
ATOM     32  C   UNL     1       9.743   4.803   6.444  0.00  0.00    +0.000 A 
ATOM     33  C   UNL     1       9.660   5.936   8.577  0.00  0.00    +0.000 A 
ATOM     34  C   UNL     1      10.076   4.856   7.798  0.00  0.00    +0.000 A 
ENDBRANCH  26  28
ENDBRANCH  24  26
ENDBRANCH   9  24
ENDBRANCH  12  20
BRANCH  22  25
ATOM     25  C   UNL     1      15.009  11.518   6.060  0.00  0.00    +0.164 C 
BRANCH  25   1
ATOM      1  S   UNL     1      16.140  11.788   4.688  0.00  0.00    -0.155 S 
ATOM     29  C   UNL     1      17.215  10.352   4.925  0.00  0.00    +0.085 C 
ENDBRANCH  25   1
ENDBRANCH  22  25
TORSDOF 9
ENDMDL
