MODEL 1
REMARK VINA RESULT:      -8.8      0.000      0.000
REMARK  Name = 9424937
REMARK  5 active torsions:
REMARK  status: ('A' for Active; 'I' for Inactive)
REMARK    1  A    between atoms: N_4  and  C_14
REMARK    2  A    between atoms: N_7  and  C_21
REMARK    3  A    between atoms: N_8  and  C_28
REMARK    4  A    between atoms: C_25  and  C_26
REMARK    5  A    between atoms: C_33  and  C_34
REMARK                            x       y       z     vdW  Elec       q    Type
REMARK                         _______ _______ _______ _____ _____    ______ ____
ROOT
ATOM      1  O   UNL     1      10.980   8.101  17.211  0.00  0.00    -0.268 OA
ATOM      4  N   UNL     1      12.203  10.452  21.473  0.00  0.00    -0.298 NA
ATOM      5  N   UNL     1      12.153   8.173  19.238  0.00  0.00    -0.310 N 
ATOM      9  C   UNL     1      10.959   8.275  21.504  0.00  0.00    +0.024 C 
ATOM     10  C   UNL     1      13.404   8.265  21.416  0.00  0.00    +0.052 C 
ATOM     11  C   UNL     1      12.194   7.552  22.015  0.00  0.00    +0.017 C 
ATOM     12  C   UNL     1      10.993   9.758  21.930  0.00  0.00    +0.090 C 
ATOM     13  C   UNL     1      13.419   9.738  21.886  0.00  0.00    +0.094 C 
ATOM     15  C   UNL     1      10.890   8.098  19.984  0.00  0.00    +0.130 C 
ATOM     16  C   UNL     1      13.399   8.194  19.890  0.00  0.00    +0.047 A 
ATOM     21  C   UNL     1      14.538   8.177  19.161  0.00  0.00    +0.055 A 
ATOM     22  C   UNL     1      12.042   8.136  17.836  0.00  0.00    +0.252 A 
ATOM     23  C   UNL     1      14.477   8.136  17.719  0.00  0.00    +0.030 A 
ATOM     24  C   UNL     1      13.312   8.125  17.070  0.00  0.00    +0.072 A 
ENDROOT
BRANCH   4  14
ATOM      2  O   UNL     1      13.292  14.359  26.077  0.00  0.00    -0.276 OA
ATOM      6  N   UNL     1      12.209  13.753  24.113  0.00  0.00    -0.302 N 
ATOM     14  C   UNL     1      12.223  11.836  21.944  0.00  0.00    +0.060 C 
ATOM     17  C   UNL     1      10.946  12.137  22.740  0.00  0.00    +0.038 C 
ATOM     18  C   UNL     1      13.465  12.079  22.810  0.00  0.00    +0.038 C 
ATOM     19  C   UNL     1      10.987  13.550  23.324  0.00  0.00    +0.109 C 
ATOM     20  C   UNL     1      13.456  13.492  23.392  0.00  0.00    +0.109 C 
ATOM     25  C   UNL     1      12.251  14.197  25.435  0.00  0.00    +0.212 C 
ATOM     26  C   UNL     1      10.926  14.486  26.093  0.00  0.00    +0.109 C 
ENDBRANCH   4  14
BRANCH  21   7
ATOM      3  O   UNL     1      16.226   5.945  19.666  0.00  0.00    -0.252 OA
ATOM      7  N   UNL     1      15.791   8.222  19.709  0.00  0.00    -0.268 N 
ATOM      8  N   UNL     1      17.803   7.468  20.505  0.00  0.00    -0.269 N 
ATOM     27  C   UNL     1      16.581   7.090  19.936  0.00  0.00    +0.308 C 
ATOM     35  H   UNL     1      16.271   9.114  19.741  0.00  0.00    +0.156 HD
ATOM     36  H   UNL     1      17.941   8.462  20.669  0.00  0.00    +0.156 HD
BRANCH   8  28
ATOM     28  C   UNL     1      18.879   6.634  20.886  0.00  0.00    +0.035 A 
ATOM     29  C   UNL     1      19.255   5.590  20.056  0.00  0.00    +0.023 A 
ATOM     30  C   UNL     1      19.536   6.877  22.082  0.00  0.00    +0.023 A 
ATOM     31  C   UNL     1      20.317   4.767  20.432  0.00  0.00    +0.005 A 
ATOM     32  C   UNL     1      20.598   6.054  22.457  0.00  0.00    +0.005 A 
ATOM     33  C   UNL     1      20.988   4.999  21.633  0.00  0.00    -0.050 A 
ATOM     34  C   UNL     1      22.124   4.119  22.034  0.00  0.00    +0.044 C 
ENDBRANCH   8  28
ENDBRANCH  21   7
TORSDOF 3
ENDMDL
MODEL 2
REMARK VINA RESULT:      -8.0      3.411      8.122
REMARK  Name = 9424937
REMARK  5 active torsions:
REMARK  status: ('A' for Active; 'I' for Inactive)
REMARK    1  A    between atoms: N_4  and  C_14
REMARK    2  A    between atoms: N_7  and  C_21
REMARK    3  A    between atoms: N_8  and  C_28
REMARK    4  A    between atoms: C_25  and  C_26
REMARK    5  A    between atoms: C_33  and  C_34
REMARK                            x       y       z     vdW  Elec       q    Type
REMARK                         _______ _______ _______ _____ _____    ______ ____
ROOT
ATOM      1  O   UNL     1      16.871   6.135  19.309  0.00  0.00    -0.268 OA
ATOM      4  N   UNL     1      14.022   9.991  17.826  0.00  0.00    -0.298 NA
ATOM      5  N   UNL     1      14.793   7.212  19.196  0.00  0.00    -0.310 N 
ATOM      9  C   UNL     1      13.612   7.670  16.967  0.00  0.00    +0.024 C 
ATOM     10  C   UNL     1      12.572   8.381  19.065  0.00  0.00    +0.052 C 
ATOM     11  C   UNL     1      12.341   7.566  17.795  0.00  0.00    +0.017 C 
ATOM     12  C   UNL     1      13.910   9.147  16.630  0.00  0.00    +0.090 C 
ATOM     13  C   UNL     1      12.840   9.856  18.689  0.00  0.00    +0.094 C 
ATOM     15  C   UNL     1      14.750   7.000  17.743  0.00  0.00    +0.130 C 
ATOM     16  C   UNL     1      13.731   7.823  19.888  0.00  0.00    +0.047 A 
ATOM     21  C   UNL     1      13.778   7.920  21.236  0.00  0.00    +0.055 A 
ATOM     22  C   UNL     1      15.920   6.692  19.860  0.00  0.00    +0.252 A 
ATOM     23  C   UNL     1      14.910   7.399  21.964  0.00  0.00    +0.030 A 
ATOM     24  C   UNL     1      15.937   6.823  21.337  0.00  0.00    +0.072 A 
ENDROOT
BRANCH   4  14
ATOM      2  O   UNL     1      16.867  14.014  14.170  0.00  0.00    -0.276 OA
ATOM      6  N   UNL     1      15.858  13.423  16.177  0.00  0.00    -0.302 N 
ATOM     14  C   UNL     1      14.247  11.388  17.461  0.00  0.00    +0.060 C 
ATOM     17  C   UNL     1      15.556  11.889  18.086  0.00  0.00    +0.038 C 
ATOM     18  C   UNL     1      14.292  11.533  15.935  0.00  0.00    +0.038 C 
ATOM     19  C   UNL     1      15.862  13.319  17.642  0.00  0.00    +0.109 C 
ATOM     20  C   UNL     1      14.622  12.970  15.533  0.00  0.00    +0.109 C 
ATOM     25  C   UNL     1      16.896  13.938  15.401  0.00  0.00    +0.212 C 
ATOM     26  C   UNL     1      18.115  14.424  16.142  0.00  0.00    +0.109 C 
ENDBRANCH   4  14
BRANCH  21   7
ATOM      3  O   UNL     1      13.674  10.670  21.952  0.00  0.00    -0.252 OA
ATOM      7  N   UNL     1      12.805   8.520  21.987  0.00  0.00    -0.268 N 
ATOM      8  N   UNL     1      11.678  10.184  23.088  0.00  0.00    -0.269 N 
ATOM     27  C   UNL     1      12.802   9.881  22.311  0.00  0.00    +0.308 C 
ATOM     35  H   UNL     1      11.929   8.028  22.125  0.00  0.00    +0.156 HD
ATOM     36  H   UNL     1      11.051   9.413  23.302  0.00  0.00    +0.156 HD
BRANCH   8  28
ATOM     28  C   UNL     1      11.302  11.439  23.621  0.00  0.00    +0.035 A 
ATOM     29  C   UNL     1      10.949  12.464  22.757  0.00  0.00    +0.023 A 
ATOM     30  C   UNL     1      11.294  11.618  24.995  0.00  0.00    +0.023 A 
ATOM     31  C   UNL     1      10.578  13.702  23.283  0.00  0.00    +0.005 A 
ATOM     32  C   UNL     1      10.923  12.857  25.520  0.00  0.00    +0.005 A 
ATOM     33  C   UNL     1      10.565  13.898  24.664  0.00  0.00    -0.050 A 
ATOM     34  C   UNL     1      10.168  15.222  25.225  0.00  0.00    +0.044 C 
ENDBRANCH   8  28
ENDBRANCH  21   7
TORSDOF 3
ENDMDL
MODEL 3
REMARK VINA RESULT:      -8.0     15.117     18.222
REMARK  Name = 9424937
REMARK  5 active torsions:
REMARK  status: ('A' for Active; 'I' for Inactive)
REMARK    1  A    between atoms: N_4  and  C_14
REMARK    2  A    between atoms: N_7  and  C_21
REMARK    3  A    between atoms: N_8  and  C_28
REMARK    4  A    between atoms: C_25  and  C_26
REMARK    5  A    between atoms: C_33  and  C_34
REMARK                            x       y       z     vdW  Elec       q    Type
REMARK                         _______ _______ _______ _____ _____    ______ ____
ROOT
ATOM      1  O   UNL     1       7.187   9.785   4.759  0.00  0.00    -0.268 OA
ATOM      4  N   UNL     1      11.381   7.709   6.572  0.00  0.00    -0.298 NA
ATOM      5  N   UNL     1       8.540   7.909   5.128  0.00  0.00    -0.310 N 
ATOM      9  C   UNL     1       9.128   7.091   7.485  0.00  0.00    +0.024 C 
ATOM     10  C   UNL     1      10.004   5.905   5.532  0.00  0.00    +0.052 C 
ATOM     11  C   UNL     1       9.212   5.725   6.824  0.00  0.00    +0.017 C 
ATOM     12  C   UNL     1      10.545   7.631   7.776  0.00  0.00    +0.090 C 
ATOM     13  C   UNL     1      11.423   6.421   5.865  0.00  0.00    +0.094 C 
ATOM     15  C   UNL     1       8.317   8.018   6.576  0.00  0.00    +0.130 C 
ATOM     16  C   UNL     1       9.302   6.864   4.572  0.00  0.00    +0.047 A 
ATOM     21  C   UNL     1       9.410   6.754   3.229  0.00  0.00    +0.055 A 
ATOM     22  C   UNL     1       7.878   8.860   4.330  0.00  0.00    +0.252 A 
ATOM     23  C   UNL     1       8.747   7.703   2.367  0.00  0.00    +0.030 A 
ATOM     24  C   UNL     1       8.025   8.710   2.862  0.00  0.00    +0.072 A 
ENDROOT
BRANCH   4  14
ATOM      2  O   UNL     1      16.452  10.646   4.756  0.00  0.00    -0.276 OA
ATOM      6  N   UNL     1      15.348   9.075   6.064  0.00  0.00    -0.302 N 
ATOM     14  C   UNL     1      12.728   8.171   6.900  0.00  0.00    +0.060 C 
ATOM     17  C   UNL     1      13.769   7.198   6.332  0.00  0.00    +0.038 C 
ATOM     18  C   UNL     1      12.951   9.582   6.340  0.00  0.00    +0.038 C 
ATOM     19  C   UNL     1      15.189   7.710   6.580  0.00  0.00    +0.109 C 
ATOM     20  C   UNL     1      14.385  10.046   6.589  0.00  0.00    +0.109 C 
ATOM     25  C   UNL     1      16.340   9.491   5.176  0.00  0.00    +0.212 C 
ATOM     26  C   UNL     1      17.319   8.441   4.717  0.00  0.00    +0.109 C 
ENDBRANCH   4  14
BRANCH  21   7
ATOM      3  O   UNL     1      12.042   7.066   2.200  0.00  0.00    -0.252 OA
ATOM      7  N   UNL     1      10.150   5.788   2.603  0.00  0.00    -0.268 N 
ATOM      8  N   UNL     1      11.927   4.819   1.530  0.00  0.00    -0.269 N 
ATOM     27  C   UNL     1      11.444   5.995   2.114  0.00  0.00    +0.308 C 
ATOM     35  H   UNL     1       9.858   4.822   2.695  0.00  0.00    +0.156 HD
ATOM     36  H   UNL     1      11.302   4.016   1.538  0.00  0.00    +0.156 HD
BRANCH   8  28
ATOM     28  C   UNL     1      13.185   4.604   0.922  0.00  0.00    +0.035 A 
ATOM     29  C   UNL     1      14.151   3.878   1.601  0.00  0.00    +0.023 A 
ATOM     30  C   UNL     1      13.426   5.121  -0.340  0.00  0.00    +0.023 A 
ATOM     31  C   UNL     1      15.393   3.666   1.000  0.00  0.00    +0.005 A 
ATOM     32  C   UNL     1      14.668   4.909  -0.940  0.00  0.00    +0.005 A 
ATOM     33  C   UNL     1      15.651   4.181  -0.270  0.00  0.00    -0.050 A 
ATOM     34  C   UNL     1      16.978   3.953  -0.911  0.00  0.00    +0.044 C 
ENDBRANCH   8  28
ENDBRANCH  21   7
TORSDOF 3
ENDMDL
MODEL 4
REMARK VINA RESULT:      -7.9     17.223     22.227
REMARK  Name = 9424937
REMARK  5 active torsions:
REMARK  status: ('A' for Active; 'I' for Inactive)
REMARK    1  A    between atoms: N_4  and  C_14
REMARK    2  A    between atoms: N_7  and  C_21
REMARK    3  A    between atoms: N_8  and  C_28
REMARK    4  A    between atoms: C_25  and  C_26
REMARK    5  A    between atoms: C_33  and  C_34
REMARK                            x       y       z     vdW  Elec       q    Type
REMARK                         _______ _______ _______ _____ _____    ______ ____
ROOT
ATOM      1  O   UNL     1      14.793   7.990  -0.353  0.00  0.00    -0.268 OA
ATOM      4  N   UNL     1      11.590   4.147  -0.751  0.00  0.00    -0.298 NA
ATOM      5  N   UNL     1      13.580   6.237   0.617  0.00  0.00    -0.310 N 
ATOM      9  C   UNL     1      13.965   3.787  -0.031  0.00  0.00    +0.024 C 
ATOM     10  C   UNL     1      12.271   4.351   1.642  0.00  0.00    +0.052 C 
ATOM     11  C   UNL     1      13.512   3.499   1.391  0.00  0.00    +0.017 C 
ATOM     12  C   UNL     1      12.842   3.435  -1.030  0.00  0.00    +0.090 C 
ATOM     13  C   UNL     1      11.162   3.952   0.642  0.00  0.00    +0.094 C 
ATOM     15  C   UNL     1      14.392   5.255  -0.114  0.00  0.00    +0.130 C 
ATOM     16  C   UNL     1      12.580   5.842   1.526  0.00  0.00    +0.047 A 
ATOM     21  C   UNL     1      11.916   6.779   2.240  0.00  0.00    +0.055 A 
ATOM     22  C   UNL     1      13.919   7.588   0.416  0.00  0.00    +0.252 A 
ATOM     23  C   UNL     1      12.230   8.178   2.072  0.00  0.00    +0.030 A 
ATOM     24  C   UNL     1      13.165   8.586   1.212  0.00  0.00    +0.072 A 
ENDROOT
BRANCH   4  14
ATOM      2  O   UNL     1      10.064   2.454  -6.447  0.00  0.00    -0.276 OA
ATOM      6  N   UNL     1       9.571   3.416  -4.392  0.00  0.00    -0.302 N 
ATOM     14  C   UNL     1      10.539   3.744  -1.683  0.00  0.00    +0.060 C 
ATOM     17  C   UNL     1      10.098   4.946  -2.529  0.00  0.00    +0.038 C 
ATOM     18  C   UNL     1      11.042   2.609  -2.584  0.00  0.00    +0.038 C 
ATOM     19  C   UNL     1       9.066   4.528  -3.576  0.00  0.00    +0.109 C 
ATOM     20  C   UNL     1       9.991   2.238  -3.630  0.00  0.00    +0.109 C 
ATOM     25  C   UNL     1       9.635   3.401  -5.785  0.00  0.00    +0.212 C 
ATOM     26  C   UNL     1       9.142   4.635  -6.497  0.00  0.00    +0.109 C 
ENDBRANCH   4  14
BRANCH  21   7
ATOM      3  O   UNL     1      12.238   6.218   5.009  0.00  0.00    -0.252 OA
ATOM      7  N   UNL     1      10.914   6.490   3.125  0.00  0.00    -0.268 N 
ATOM      8  N   UNL     1       9.906   5.963   5.113  0.00  0.00    -0.269 N 
ATOM     27  C   UNL     1      11.127   6.221   4.481  0.00  0.00    +0.308 C 
ATOM     35  H   UNL     1       9.959   6.702   2.858  0.00  0.00    +0.156 HD
ATOM     36  H   UNL     1       9.074   6.001   4.531  0.00  0.00    +0.156 HD
BRANCH   8  28
ATOM     28  C   UNL     1       9.682   5.649   6.474  0.00  0.00    +0.035 A 
ATOM     29  C   UNL     1       9.264   6.647   7.340  0.00  0.00    +0.023 A 
ATOM     30  C   UNL     1       9.883   4.350   6.913  0.00  0.00    +0.023 A 
ATOM     31  C   UNL     1       9.043   6.337   8.683  0.00  0.00    +0.005 A 
ATOM     32  C   UNL     1       9.662   4.041   8.256  0.00  0.00    +0.005 A 
ATOM     33  C   UNL     1       9.242   5.034   9.140  0.00  0.00    -0.050 A 
ATOM     34  C   UNL     1       9.004   4.704  10.575  0.00  0.00    +0.044 C 
ENDBRANCH   8  28
ENDBRANCH  21   7
TORSDOF 3
ENDMDL
MODEL 5
REMARK VINA RESULT:      -7.8     28.248     31.508
REMARK  Name = 9424937
REMARK  5 active torsions:
REMARK  status: ('A' for Active; 'I' for Inactive)
REMARK    1  A    between atoms: N_4  and  C_14
REMARK    2  A    between atoms: N_7  and  C_21
REMARK    3  A    between atoms: N_8  and  C_28
REMARK    4  A    between atoms: C_25  and  C_26
REMARK    5  A    between atoms: C_33  and  C_34
REMARK                            x       y       z     vdW  Elec       q    Type
REMARK                         _______ _______ _______ _____ _____    ______ ____
ROOT
ATOM      1  O   UNL     1     -10.292  -8.745   3.388  0.00  0.00    -0.268 OA
ATOM      4  N   UNL     1     -11.479  -6.789   7.855  0.00  0.00    -0.298 NA
ATOM      5  N   UNL     1     -10.072  -8.702   5.720  0.00  0.00    -0.310 N 
ATOM      9  C   UNL     1     -12.046  -9.165   7.287  0.00  0.00    +0.024 C 
ATOM     10  C   UNL     1      -9.847  -8.641   8.223  0.00  0.00    +0.052 C 
ATOM     11  C   UNL     1     -10.974  -9.670   8.239  0.00  0.00    +0.017 C 
ATOM     12  C   UNL     1     -12.555  -7.781   7.743  0.00  0.00    +0.090 C 
ATOM     13  C   UNL     1     -10.387  -7.277   8.709  0.00  0.00    +0.094 C 
ATOM     15  C   UNL     1     -11.464  -9.145   5.871  0.00  0.00    +0.130 C 
ATOM     16  C   UNL     1      -9.232  -8.504   6.831  0.00  0.00    +0.047 A 
ATOM     21  C   UNL     1      -7.933  -8.179   6.641  0.00  0.00    +0.055 A 
ATOM     22  C   UNL     1      -9.608  -8.570   4.398  0.00  0.00    +0.252 A 
ATOM     23  C   UNL     1      -7.409  -8.035   5.304  0.00  0.00    +0.030 A 
ATOM     24  C   UNL     1      -8.181  -8.206   4.229  0.00  0.00    +0.072 A 
ENDROOT
BRANCH   4  14
ATOM      2  O   UNL     1     -12.271  -2.970  12.590  0.00  0.00    -0.276 OA
ATOM      6  N   UNL     1     -12.884  -3.824  10.520  0.00  0.00    -0.302 N 
ATOM     14  C   UNL     1     -11.993  -5.511   8.341  0.00  0.00    +0.060 C 
ATOM     17  C   UNL     1     -13.361  -5.714   9.006  0.00  0.00    +0.038 C 
ATOM     18  C   UNL     1     -11.002  -4.888   9.333  0.00  0.00    +0.038 C 
ATOM     19  C   UNL     1     -13.877  -4.406   9.607  0.00  0.00    +0.109 C 
ATOM     20  C   UNL     1     -11.565  -3.597   9.926  0.00  0.00    +0.109 C 
ATOM     25  C   UNL     1     -13.123  -3.456  11.843  0.00  0.00    +0.212 C 
ATOM     26  C   UNL     1     -14.519  -3.682  12.366  0.00  0.00    +0.109 C 
ENDBRANCH   4  14
BRANCH  21   7
ATOM      3  O   UNL     1      -6.456 -10.146   8.067  0.00  0.00    -0.252 OA
ATOM      7  N   UNL     1      -7.052  -7.942   7.661  0.00  0.00    -0.268 N 
ATOM      8  N   UNL     1      -5.534  -8.386   9.318  0.00  0.00    -0.269 N 
ATOM     27  C   UNL     1      -6.350  -8.950   8.330  0.00  0.00    +0.308 C 
ATOM     35  H   UNL     1      -6.709  -6.997   7.792  0.00  0.00    +0.156 HD
ATOM     36  H   UNL     1      -5.564  -7.374   9.411  0.00  0.00    +0.156 HD
BRANCH   8  28
ATOM     28  C   UNL     1      -4.667  -9.054  10.213  0.00  0.00    +0.035 A 
ATOM     29  C   UNL     1      -3.314  -9.127   9.921  0.00  0.00    +0.023 A 
ATOM     30  C   UNL     1      -5.187  -9.619  11.367  0.00  0.00    +0.023 A 
ATOM     31  C   UNL     1      -2.459  -9.786  10.805  0.00  0.00    +0.005 A 
ATOM     32  C   UNL     1      -4.331 -10.278  12.250  0.00  0.00    +0.005 A 
ATOM     33  C   UNL     1      -2.968 -10.361  11.969  0.00  0.00    -0.050 A 
ATOM     34  C   UNL     1      -2.053 -11.064  12.914  0.00  0.00    +0.044 C 
ENDBRANCH   8  28
ENDBRANCH  21   7
TORSDOF 3
ENDMDL
MODEL 6
REMARK VINA RESULT:      -7.7     28.636     30.886
REMARK  Name = 9424937
REMARK  5 active torsions:
REMARK  status: ('A' for Active; 'I' for Inactive)
REMARK    1  A    between atoms: N_4  and  C_14
REMARK    2  A    between atoms: N_7  and  C_21
REMARK    3  A    between atoms: N_8  and  C_28
REMARK    4  A    between atoms: C_25  and  C_26
REMARK    5  A    between atoms: C_33  and  C_34
REMARK                            x       y       z     vdW  Elec       q    Type
REMARK                         _______ _______ _______ _____ _____    ______ ____
ROOT
ATOM      1  O   UNL     1      -3.643 -12.172  19.665  0.00  0.00    -0.268 OA
ATOM      4  N   UNL     1      -5.158 -11.440  14.937  0.00  0.00    -0.298 NA
ATOM      5  N   UNL     1      -5.279 -12.341  17.998  0.00  0.00    -0.310 N 
ATOM      9  C   UNL     1      -4.937 -13.751  15.885  0.00  0.00    +0.024 C 
ATOM     10  C   UNL     1      -7.025 -12.515  16.197  0.00  0.00    +0.052 C 
ATOM     11  C   UNL     1      -6.449 -13.902  15.925  0.00  0.00    +0.017 C 
ATOM     12  C   UNL     1      -4.529 -12.757  14.777  0.00  0.00    +0.090 C 
ATOM     13  C   UNL     1      -6.618 -11.556  15.056  0.00  0.00    +0.094 C 
ATOM     15  C   UNL     1      -4.457 -13.320  17.274  0.00  0.00    +0.130 C 
ATOM     16  C   UNL     1      -6.558 -11.967  17.544  0.00  0.00    +0.047 A 
ATOM     21  C   UNL     1      -7.314 -11.128  18.288  0.00  0.00    +0.055 A 
ATOM     22  C   UNL     1      -4.747 -11.868  19.211  0.00  0.00    +0.252 A 
ATOM     23  C   UNL     1      -6.814 -10.617  19.542  0.00  0.00    +0.030 A 
ATOM     24  C   UNL     1      -5.603 -10.945  19.995  0.00  0.00    +0.072 A 
ENDROOT
BRANCH   4  14
ATOM      2  O   UNL     1      -6.374  -9.373   9.290  0.00  0.00    -0.276 OA
ATOM      6  N   UNL     1      -4.914  -9.824  11.039  0.00  0.00    -0.302 N 
ATOM     14  C   UNL     1      -4.790 -10.548  13.839  0.00  0.00    +0.060 C 
ATOM     17  C   UNL     1      -4.002 -11.322  12.775  0.00  0.00    +0.038 C 
ATOM     18  C   UNL     1      -6.049  -9.922  13.226  0.00  0.00    +0.038 C 
ATOM     19  C   UNL     1      -3.688 -10.432  11.572  0.00  0.00    +0.109 C 
ATOM     20  C   UNL     1      -5.694  -9.060  12.015  0.00  0.00    +0.109 C 
ATOM     25  C   UNL     1      -5.339  -9.893   9.713  0.00  0.00    +0.212 C 
ATOM     26  C   UNL     1      -4.457 -10.661   8.761  0.00  0.00    +0.109 C 
ENDBRANCH   4  14
BRANCH  21   7
ATOM      3  O   UNL     1      -7.877  -8.797  16.760  0.00  0.00    -0.252 OA
ATOM      7  N   UNL     1      -8.555 -10.691  17.913  0.00  0.00    -0.268 N 
ATOM      8  N   UNL     1     -10.148  -9.360  16.943  0.00  0.00    -0.269 N 
ATOM     27  C   UNL     1      -8.777  -9.533  17.159  0.00  0.00    +0.308 C 
ATOM     35  H   UNL     1      -9.333 -11.337  17.975  0.00  0.00    +0.156 HD
ATOM     36  H   UNL     1     -10.765 -10.061  17.345  0.00  0.00    +0.156 HD
BRANCH   8  28
ATOM     28  C   UNL     1     -10.791  -8.321  16.231  0.00  0.00    +0.035 A 
ATOM     29  C   UNL     1     -10.832  -7.048  16.778  0.00  0.00    +0.023 A 
ATOM     30  C   UNL     1     -11.366  -8.596  15.001  0.00  0.00    +0.023 A 
ATOM     31  C   UNL     1     -11.466  -6.023  16.075  0.00  0.00    +0.005 A 
ATOM     32  C   UNL     1     -12.000  -7.570  14.298  0.00  0.00    +0.005 A 
ATOM     33  C   UNL     1     -12.050  -6.285  14.836  0.00  0.00    -0.050 A 
ATOM     34  C   UNL     1     -12.727  -5.188  14.085  0.00  0.00    +0.044 C 
ENDBRANCH   8  28
ENDBRANCH  21   7
TORSDOF 3
ENDMDL
MODEL 7
REMARK VINA RESULT:      -7.7     28.415     30.722
REMARK  Name = 9424937
REMARK  5 active torsions:
REMARK  status: ('A' for Active; 'I' for Inactive)
REMARK    1  A    between atoms: N_4  and  C_14
REMARK    2  A    between atoms: N_7  and  C_21
REMARK    3  A    between atoms: N_8  and  C_28
REMARK    4  A    between atoms: C_25  and  C_26
REMARK    5  A    between atoms: C_33  and  C_34
REMARK                            x       y       z     vdW  Elec       q    Type
REMARK                         _______ _______ _______ _____ _____    ______ ____
ROOT
ATOM      1  O   UNL     1      -4.836  -9.958   7.344  0.00  0.00    -0.268 OA
ATOM      4  N   UNL     1      -9.444  -9.058   9.117  0.00  0.00    -0.298 NA
ATOM      5  N   UNL     1      -6.475 -10.225   8.997  0.00  0.00    -0.310 N 
ATOM      9  C   UNL     1      -8.713 -11.383   8.527  0.00  0.00    +0.024 C 
ATOM     10  C   UNL     1      -8.244 -10.502  10.761  0.00  0.00    +0.052 C 
ATOM     11  C   UNL     1      -8.653 -11.759   9.999  0.00  0.00    +0.017 C 
ATOM     12  C   UNL     1      -9.736 -10.247   8.309  0.00  0.00    +0.090 C 
ATOM     13  C   UNL     1      -9.304  -9.398  10.540  0.00  0.00    +0.094 C 
ATOM     15  C   UNL     1      -7.302 -11.005   8.067  0.00  0.00    +0.130 C 
ATOM     16  C   UNL     1      -6.864 -10.008  10.332  0.00  0.00    +0.047 A 
ATOM     21  C   UNL     1      -6.031  -9.357  11.175  0.00  0.00    +0.055 A 
ATOM     22  C   UNL     1      -5.236  -9.784   8.497  0.00  0.00    +0.252 A 
ATOM     23  C   UNL     1      -4.748  -8.888  10.711  0.00  0.00    +0.030 A 
ATOM     24  C   UNL     1      -4.353  -9.069   9.449  0.00  0.00    +0.072 A 
ENDROOT
BRANCH   4  14
ATOM      2  O   UNL     1     -11.015  -3.144   9.563  0.00  0.00    -0.276 OA
ATOM      6  N   UNL     1     -11.536  -5.407   9.517  0.00  0.00    -0.302 N 
ATOM     14  C   UNL     1     -10.465  -8.030   8.923  0.00  0.00    +0.060 C 
ATOM     17  C   UNL     1     -11.171  -7.734  10.252  0.00  0.00    +0.038 C 
ATOM     18  C   UNL     1      -9.827  -6.754   8.358  0.00  0.00    +0.038 C 
ATOM     19  C   UNL     1     -12.179  -6.594  10.094  0.00  0.00    +0.109 C 
ATOM     20  C   UNL     1     -10.860  -5.636   8.238  0.00  0.00    +0.109 C 
ATOM     25  C   UNL     1     -11.564  -4.126  10.068  0.00  0.00    +0.212 C 
ATOM     26  C   UNL     1     -12.318  -3.965  11.364  0.00  0.00    +0.109 C 
ENDBRANCH   4  14
BRANCH  21   7
ATOM      3  O   UNL     1      -5.342 -10.944  13.432  0.00  0.00    -0.252 OA
ATOM      7  N   UNL     1      -6.337  -9.079  12.480  0.00  0.00    -0.268 N 
ATOM      8  N   UNL     1      -6.433  -9.339  14.754  0.00  0.00    -0.269 N 
ATOM     27  C   UNL     1      -5.973  -9.896  13.555  0.00  0.00    +0.308 C 
ATOM     35  H   UNL     1      -6.633  -8.138  12.715  0.00  0.00    +0.156 HD
ATOM     36  H   UNL     1      -6.944  -8.463  14.683  0.00  0.00    +0.156 HD
BRANCH   8  28
ATOM     28  C   UNL     1      -6.275  -9.847  16.064  0.00  0.00    +0.035 A 
ATOM     29  C   UNL     1      -5.003 -10.135  16.532  0.00  0.00    +0.023 A 
ATOM     30  C   UNL     1      -7.396 -10.045  16.854  0.00  0.00    +0.023 A 
ATOM     31  C   UNL     1      -4.849 -10.636  17.825  0.00  0.00    +0.005 A 
ATOM     32  C   UNL     1      -7.241 -10.546  18.147  0.00  0.00    +0.005 A 
ATOM     33  C   UNL     1      -5.967 -10.841  18.632  0.00  0.00    -0.050 A 
ATOM     34  C   UNL     1      -5.801 -11.376  20.015  0.00  0.00    +0.044 C 
ENDBRANCH   8  28
ENDBRANCH  21   7
TORSDOF 3
ENDMDL
MODEL 8
REMARK VINA RESULT:      -7.4     17.712     22.396
REMARK  Name = 9424937
REMARK  5 active torsions:
REMARK  status: ('A' for Active; 'I' for Inactive)
REMARK    1  A    between atoms: N_4  and  C_14
REMARK    2  A    between atoms: N_7  and  C_21
REMARK    3  A    between atoms: N_8  and  C_28
REMARK    4  A    between atoms: C_25  and  C_26
REMARK    5  A    between atoms: C_33  and  C_34
REMARK                            x       y       z     vdW  Elec       q    Type
REMARK                         _______ _______ _______ _____ _____    ______ ____
ROOT
ATOM      1  O   UNL     1      14.924   3.578   0.340  0.00  0.00    -0.268 OA
ATOM      4  N   UNL     1      11.266   6.225   2.531  0.00  0.00    -0.298 NA
ATOM      5  N   UNL     1      13.510   5.444   0.397  0.00  0.00    -0.310 N 
ATOM      9  C   UNL     1      13.583   7.157   2.303  0.00  0.00    +0.024 C 
ATOM     10  C   UNL     1      11.984   7.441   0.472  0.00  0.00    +0.052 C 
ATOM     11  C   UNL     1      13.108   8.133   1.239  0.00  0.00    +0.017 C 
ATOM     12  C   UNL     1      12.418   6.787   3.246  0.00  0.00    +0.090 C 
ATOM     13  C   UNL     1      10.827   7.110   1.443  0.00  0.00    +0.094 C 
ATOM     15  C   UNL     1      14.188   5.937   1.603  0.00  0.00    +0.130 C 
ATOM     16  C   UNL     1      12.476   6.172  -0.221  0.00  0.00    +0.047 A 
ATOM     21  C   UNL     1      11.938   5.722  -1.377  0.00  0.00    +0.055 A 
ATOM     22  C   UNL     1      14.013   4.248  -0.147  0.00  0.00    +0.252 A 
ATOM     23  C   UNL     1      12.422   4.502  -1.977  0.00  0.00    +0.030 A 
ATOM     24  C   UNL     1      13.394   3.784  -1.412  0.00  0.00    +0.072 A 
ENDROOT
BRANCH   4  14
ATOM      2  O   UNL     1       8.293   7.703   7.690  0.00  0.00    -0.276 OA
ATOM      6  N   UNL     1       8.955   6.176   6.070  0.00  0.00    -0.302 N 
ATOM     14  C   UNL     1      10.167   5.940   3.451  0.00  0.00    +0.060 C 
ATOM     17  C   UNL     1      10.680   5.131   4.648  0.00  0.00    +0.038 C 
ATOM     18  C   UNL     1       9.525   7.251   3.924  0.00  0.00    +0.038 C 
ATOM     19  C   UNL     1       9.567   4.902   5.672  0.00  0.00    +0.109 C 
ATOM     20  C   UNL     1       8.435   6.980   4.961  0.00  0.00    +0.109 C 
ATOM     25  C   UNL     1       8.811   6.627   7.382  0.00  0.00    +0.212 C 
ATOM     26  C   UNL     1       9.332   5.721   8.468  0.00  0.00    +0.109 C 
ENDBRANCH   4  14
BRANCH  21   7
ATOM      3  O   UNL     1       9.296   4.721  -1.700  0.00  0.00    -0.252 OA
ATOM      7  N   UNL     1      10.913   6.349  -2.032  0.00  0.00    -0.268 N 
ATOM      8  N   UNL     1       8.814   6.690  -2.883  0.00  0.00    -0.269 N 
ATOM     27  C   UNL     1       9.629   5.810  -2.162  0.00  0.00    +0.308 C 
ATOM     35  H   UNL     1      11.003   7.338  -2.234  0.00  0.00    +0.156 HD
ATOM     36  H   UNL     1       9.245   7.555  -3.200  0.00  0.00    +0.156 HD
BRANCH   8  28
ATOM     28  C   UNL     1       7.454   6.525  -3.233  0.00  0.00    +0.035 A 
ATOM     29  C   UNL     1       6.478   7.150  -2.472  0.00  0.00    +0.023 A 
ATOM     30  C   UNL     1       7.124   5.744  -4.329  0.00  0.00    +0.023 A 
ATOM     31  C   UNL     1       5.135   6.987  -2.818  0.00  0.00    +0.005 A 
ATOM     32  C   UNL     1       5.781   5.582  -4.673  0.00  0.00    +0.005 A 
ATOM     33  C   UNL     1       4.788   6.204  -3.917  0.00  0.00    -0.050 A 
ATOM     34  C   UNL     1       3.353   6.031  -4.286  0.00  0.00    +0.044 C 
ENDBRANCH   8  28
ENDBRANCH  21   7
TORSDOF 3
ENDMDL
MODEL 9
REMARK VINA RESULT:      -7.3     28.462     31.490
REMARK  Name = 9424937
REMARK  5 active torsions:
REMARK  status: ('A' for Active; 'I' for Inactive)
REMARK    1  A    between atoms: N_4  and  C_14
REMARK    2  A    between atoms: N_7  and  C_21
REMARK    3  A    between atoms: N_8  and  C_28
REMARK    4  A    between atoms: C_25  and  C_26
REMARK    5  A    between atoms: C_33  and  C_34
REMARK                            x       y       z     vdW  Elec       q    Type
REMARK                         _______ _______ _______ _____ _____    ______ ____
ROOT
ATOM      1  O   UNL     1      -3.545 -12.301  19.305  0.00  0.00    -0.268 OA
ATOM      4  N   UNL     1      -5.554 -11.033  14.884  0.00  0.00    -0.298 NA
ATOM      5  N   UNL     1      -5.397 -12.120  17.882  0.00  0.00    -0.310 N 
ATOM      9  C   UNL     1      -5.555 -13.413  15.674  0.00  0.00    +0.024 C 
ATOM     10  C   UNL     1      -7.375 -11.920  16.343  0.00  0.00    +0.052 C 
ATOM     11  C   UNL     1      -7.053 -13.352  15.922  0.00  0.00    +0.017 C 
ATOM     12  C   UNL     1      -5.155 -12.410  14.571  0.00  0.00    +0.090 C 
ATOM     13  C   UNL     1      -6.986 -10.949  15.204  0.00  0.00    +0.094 C 
ATOM     15  C   UNL     1      -4.835 -13.152  17.000  0.00  0.00    +0.130 C 
ATOM     16  C   UNL     1      -6.655 -11.539  17.635  0.00  0.00    +0.047 A 
ATOM     21  C   UNL     1      -7.170 -10.657  18.520  0.00  0.00    +0.055 A 
ATOM     22  C   UNL     1      -4.642 -11.813  19.029  0.00  0.00    +0.252 A 
ATOM     23  C   UNL     1      -6.436 -10.311  19.714  0.00  0.00    +0.030 A 
ATOM     24  C   UNL     1      -5.238 -10.836  19.973  0.00  0.00    +0.072 A 
ENDROOT
BRANCH   4  14
ATOM      2  O   UNL     1      -6.550  -9.248   9.099  0.00  0.00    -0.276 OA
ATOM      6  N   UNL     1      -5.192  -9.482  10.969  0.00  0.00    -0.302 N 
ATOM     14  C   UNL     1      -5.208 -10.126  13.791  0.00  0.00    +0.060 C 
ATOM     17  C   UNL     1      -4.251 -10.822  12.815  0.00  0.00    +0.038 C 
ATOM     18  C   UNL     1      -6.479  -9.670  13.064  0.00  0.00    +0.038 C 
ATOM     19  C   UNL     1      -3.949  -9.926  11.613  0.00  0.00    +0.109 C 
ATOM     20  C   UNL     1      -6.133  -8.797  11.858  0.00  0.00    +0.109 C 
ATOM     25  C   UNL     1      -5.497  -9.630   9.616  0.00  0.00    +0.212 C 
ATOM     26  C   UNL     1      -4.457 -10.306   8.759  0.00  0.00    +0.109 C 
ENDBRANCH   4  14
BRANCH  21   7
ATOM      3  O   UNL     1      -9.614 -11.324  19.813  0.00  0.00    -0.252 OA
ATOM      7  N   UNL     1      -8.371 -10.024  18.349  0.00  0.00    -0.268 N 
ATOM      8  N   UNL     1     -10.597  -9.556  18.622  0.00  0.00    -0.269 N 
ATOM     27  C   UNL     1      -9.547 -10.393  19.012  0.00  0.00    +0.308 C 
ATOM     35  H   UNL     1      -8.377  -9.110  17.910  0.00  0.00    +0.156 HD
ATOM     36  H   UNL     1     -10.375  -8.831  17.943  0.00  0.00    +0.156 HD
BRANCH   8  28
ATOM     28  C   UNL     1     -11.943  -9.591  19.055  0.00  0.00    +0.035 A 
ATOM     29  C   UNL     1     -12.217  -9.667  20.411  0.00  0.00    +0.023 A 
ATOM     30  C   UNL     1     -12.960  -9.547  18.115  0.00  0.00    +0.023 A 
ATOM     31  C   UNL     1     -13.545  -9.701  20.839  0.00  0.00    +0.005 A 
ATOM     32  C   UNL     1     -14.288  -9.582  18.543  0.00  0.00    +0.005 A 
ATOM     33  C   UNL     1     -14.579  -9.659  19.904  0.00  0.00    -0.050 A 
ATOM     34  C   UNL     1     -15.999  -9.695  20.362  0.00  0.00    +0.044 C 
ENDBRANCH   8  28
ENDBRANCH  21   7
TORSDOF 3
ENDMDL
MODEL 10
REMARK VINA RESULT:      -7.3     28.224     31.595
REMARK  Name = 9424937
REMARK  5 active torsions:
REMARK  status: ('A' for Active; 'I' for Inactive)
REMARK    1  A    between atoms: N_4  and  C_14
REMARK    2  A    between atoms: N_7  and  C_21
REMARK    3  A    between atoms: N_8  and  C_28
REMARK    4  A    between atoms: C_25  and  C_26
REMARK    5  A    between atoms: C_33  and  C_34
REMARK                            x       y       z     vdW  Elec       q    Type
REMARK                         _______ _______ _______ _____ _____    ______ ____
ROOT
ATOM      1  O   UNL     1     -15.395  -9.717  17.546  0.00  0.00    -0.268 OA
ATOM      4  N   UNL     1     -11.949  -8.557  14.087  0.00  0.00    -0.298 NA
ATOM      5  N   UNL     1     -13.464  -8.561  16.898  0.00  0.00    -0.310 N 
ATOM      9  C   UNL     1     -13.482  -6.809  15.027  0.00  0.00    +0.024 C 
ATOM     10  C   UNL     1     -11.391  -7.328  16.188  0.00  0.00    +0.052 C 
ATOM     11  C   UNL     1     -12.332  -6.189  15.805  0.00  0.00    +0.017 C 
ATOM     12  C   UNL     1     -12.948  -7.530  13.771  0.00  0.00    +0.090 C 
ATOM     13  C   UNL     1     -10.858  -8.008  14.905  0.00  0.00    +0.094 C 
ATOM     15  C   UNL     1     -14.251  -7.744  15.965  0.00  0.00    +0.130 C 
ATOM     16  C   UNL     1     -12.084  -8.353  17.083  0.00  0.00    +0.047 A 
ATOM     21  C   UNL     1     -11.417  -9.071  18.015  0.00  0.00    +0.055 A 
ATOM     22  C   UNL     1     -14.187  -9.502  17.653  0.00  0.00    +0.252 A 
ATOM     23  C   UNL     1     -12.115 -10.047  18.818  0.00  0.00    +0.030 A 
ATOM     24  C   UNL     1     -13.420 -10.275  18.660  0.00  0.00    +0.072 A 
ENDROOT
BRANCH   4  14
ATOM      2  O   UNL     1      -7.307  -9.116  10.115  0.00  0.00    -0.276 OA
ATOM      6  N   UNL     1      -9.565  -9.188  10.654  0.00  0.00    -0.302 N 
ATOM     14  C   UNL     1     -11.430  -9.175  12.869  0.00  0.00    +0.060 C 
ATOM     17  C   UNL     1     -11.583  -8.211  11.685  0.00  0.00    +0.038 C 
ATOM     18  C   UNL     1      -9.957  -9.560  13.061  0.00  0.00    +0.038 C 
ATOM     19  C   UNL     1     -10.961  -8.799  10.418  0.00  0.00    +0.109 C 
ATOM     20  C   UNL     1      -9.368 -10.121  11.767  0.00  0.00    +0.109 C 
ATOM     25  C   UNL     1      -8.471  -8.774   9.894  0.00  0.00    +0.212 C 
ATOM     26  C   UNL     1      -8.763  -7.850   8.740  0.00  0.00    +0.109 C 
ENDBRANCH   4  14
BRANCH  21   7
ATOM      3  O   UNL     1      -9.361 -10.526  16.695  0.00  0.00    -0.252 OA
ATOM      7  N   UNL     1     -10.073  -8.954  18.245  0.00  0.00    -0.268 N 
ATOM      8  N   UNL     1      -7.827  -9.348  18.027  0.00  0.00    -0.269 N 
ATOM     27  C   UNL     1      -9.101  -9.696  17.565  0.00  0.00    +0.308 C 
ATOM     35  H   UNL     1      -9.739  -8.143  18.753  0.00  0.00    +0.156 HD
ATOM     36  H   UNL     1      -7.784  -8.643  18.758  0.00  0.00    +0.156 HD
BRANCH   8  28
ATOM     28  C   UNL     1      -6.579  -9.862  17.604  0.00  0.00    +0.035 A 
ATOM     29  C   UNL     1      -5.853 -10.672  18.462  0.00  0.00    +0.023 A 
ATOM     30  C   UNL     1      -6.110  -9.547  16.339  0.00  0.00    +0.023 A 
ATOM     31  C   UNL     1      -4.622 -11.179  18.043  0.00  0.00    +0.005 A 
ATOM     32  C   UNL     1      -4.879 -10.054  15.921  0.00  0.00    +0.005 A 
ATOM     33  C   UNL     1      -4.136 -10.870  16.773  0.00  0.00    -0.050 A 
ATOM     34  C   UNL     1      -2.820 -11.413  16.326  0.00  0.00    +0.044 C 
ENDBRANCH   8  28
ENDBRANCH  21   7
TORSDOF 3
ENDMDL
