MODEL 1
REMARK VINA RESULT:      -6.2      0.000      0.000
REMARK  Name = 75367111
REMARK  10 active torsions:
REMARK  status: ('A' for Active; 'I' for Inactive)
REMARK    1  A    between atoms: O_2  and  C_8
REMARK    2  A    between atoms: N_4  and  C_7
REMARK    3  A    between atoms: N_4  and  C_12
REMARK    4  A    between atoms: N_5  and  C_13
REMARK    5  A    between atoms: C_9  and  C_13
REMARK    6  A    between atoms: C_11  and  C_12
REMARK    7  A    between atoms: C_11  and  C_14
REMARK    8  A    between atoms: C_11  and  C_15
REMARK    9  A    between atoms: C_11  and  C_16
REMARK   10  A    between atoms: C_17  and  C_18
REMARK                            x       y       z     vdW  Elec       q    Type
REMARK                         _______ _______ _______ _____ _____    ______ ____
ROOT
ATOM      1  O   UNL     1      13.086   8.125  21.983  0.00  0.00    -0.371 OA
ATOM      7  C   UNL     1      11.228   9.365  22.791  0.00  0.00    +0.111 C 
ATOM      8  C   UNL     1      10.724   8.231  21.919  0.00  0.00    +0.164 C 
ATOM      9  C   UNL     1      11.919   7.287  21.945  0.00  0.00    +0.165 C 
ATOM     10  C   UNL     1      12.683   9.453  22.358  0.00  0.00    +0.181 C 
ENDROOT
BRANCH   8   2
ATOM      2  O   UNL     1       9.559   7.620  22.438  0.00  0.00    -0.388 OA
ATOM     24  H   UNL     1       8.885   8.309  22.569  0.00  0.00    +0.210 HD
ENDBRANCH   8   2
BRANCH   7   4
ATOM      4  N   UNL     1      10.505  10.612  22.601  0.00  0.00    -0.308 NA
ATOM     23  H   UNL     1      10.271  11.001  23.514  0.00  0.00    +0.122 HD
BRANCH   4  12
ATOM     12  C   UNL     1      11.306  11.576  21.857  0.00  0.00    +0.087 C 
BRANCH  12  11
ATOM     11  C   UNL     1      11.326  12.996  22.478  0.00  0.00    -0.025 C 
ATOM     14  C   UNL     1      10.641  14.019  21.555  0.00  0.00    +0.012 C 
ATOM     15  C   UNL     1      12.769  13.452  22.758  0.00  0.00    +0.012 C 
ATOM     16  C   UNL     1      10.557  12.950  23.813  0.00  0.00    +0.012 C 
ENDBRANCH  12  11
ENDBRANCH   4  12
ENDBRANCH   7   4
BRANCH   9  13
ATOM     13  C   UNL     1      11.986   6.368  20.740  0.00  0.00    +0.138 C 
BRANCH  13   5
ATOM      3  O   UNL     1      14.191   7.058  19.036  0.00  0.00    -0.270 OA
ATOM      5  N   UNL     1      11.921   7.109  19.513  0.00  0.00    -0.309 N 
ATOM     17  C   UNL     1      13.047   7.400  18.748  0.00  0.00    +0.244 C 
ATOM     25  H   UNL     1      11.014   7.481  19.252  0.00  0.00    +0.149 HD
BRANCH  17  18
ATOM      6  N   UNL     1      12.384   9.700  15.199  0.00  0.00    -0.263 NA
ATOM     18  C   UNL     1      12.817   8.200  17.518  0.00  0.00    +0.040 A 
ATOM     19  C   UNL     1      11.521   8.487  17.104  0.00  0.00    +0.033 A 
ATOM     20  C   UNL     1      13.896   8.662  16.773  0.00  0.00    +0.033 A 
ATOM     21  C   UNL     1      11.359   9.234  15.949  0.00  0.00    +0.111 A 
ATOM     22  C   UNL     1      13.629   9.401  15.632  0.00  0.00    +0.111 A 
ENDBRANCH  17  18
ENDBRANCH  13   5
ENDBRANCH   9  13
TORSDOF 7
ENDMDL
MODEL 2
REMARK VINA RESULT:      -5.8      3.094      4.878
REMARK  Name = 75367111
REMARK  10 active torsions:
REMARK  status: ('A' for Active; 'I' for Inactive)
REMARK    1  A    between atoms: O_2  and  C_8
REMARK    2  A    between atoms: N_4  and  C_7
REMARK    3  A    between atoms: N_4  and  C_12
REMARK    4  A    between atoms: N_5  and  C_13
REMARK    5  A    between atoms: C_9  and  C_13
REMARK    6  A    between atoms: C_11  and  C_12
REMARK    7  A    between atoms: C_11  and  C_14
REMARK    8  A    between atoms: C_11  and  C_15
REMARK    9  A    between atoms: C_11  and  C_16
REMARK   10  A    between atoms: C_17  and  C_18
REMARK                            x       y       z     vdW  Elec       q    Type
REMARK                         _______ _______ _______ _____ _____    ______ ____
ROOT
ATOM      1  O   UNL     1      11.687   6.995  19.825  0.00  0.00    -0.371 OA
ATOM      7  C   UNL     1      12.839   8.254  21.477  0.00  0.00    +0.111 C 
ATOM      8  C   UNL     1      12.788   9.056  20.191  0.00  0.00    +0.164 C 
ATOM      9  C   UNL     1      11.623   8.388  19.474  0.00  0.00    +0.165 C 
ATOM     10  C   UNL     1      12.545   6.851  20.969  0.00  0.00    +0.181 C 
ENDROOT
BRANCH   8   2
ATOM      2  O   UNL     1      12.551  10.432  20.414  0.00  0.00    -0.388 OA
ATOM     24  H   UNL     1      12.659  10.902  19.569  0.00  0.00    +0.210 HD
ENDBRANCH   8   2
BRANCH   7   4
ATOM      4  N   UNL     1      14.112   8.349  22.174  0.00  0.00    -0.308 NA
ATOM     23  H   UNL     1      13.943   8.305  23.178  0.00  0.00    +0.122 HD
BRANCH   4  12
ATOM     12  C   UNL     1      15.004   7.263  21.787  0.00  0.00    +0.087 C 
BRANCH  12  11
ATOM     11  C   UNL     1      16.196   7.709  20.903  0.00  0.00    -0.025 C 
ATOM     14  C   UNL     1      17.497   6.999  21.320  0.00  0.00    +0.012 C 
ATOM     15  C   UNL     1      16.402   9.232  20.985  0.00  0.00    +0.012 C 
ATOM     16  C   UNL     1      15.881   7.333  19.442  0.00  0.00    +0.012 C 
ENDBRANCH  12  11
ENDBRANCH   4  12
ENDBRANCH   7   4
BRANCH   9  13
ATOM     13  C   UNL     1      11.679   8.540  17.965  0.00  0.00    +0.138 C 
BRANCH  13   5
ATOM      3  O   UNL     1      12.619   8.999  15.291  0.00  0.00    -0.270 OA
ATOM      5  N   UNL     1      12.733   9.428  17.568  0.00  0.00    -0.309 N 
ATOM     17  C   UNL     1      13.125   9.588  16.242  0.00  0.00    +0.244 C 
ATOM     25  H   UNL     1      13.239   9.896  18.312  0.00  0.00    +0.149 HD
BRANCH  17  18
ATOM      6  N   UNL     1      16.364  12.296  15.533  0.00  0.00    -0.263 NA
ATOM     18  C   UNL     1      14.251  10.526  15.997  0.00  0.00    +0.040 A 
ATOM     19  C   UNL     1      14.456  11.607  16.848  0.00  0.00    +0.033 A 
ATOM     20  C   UNL     1      15.102  10.330  14.915  0.00  0.00    +0.033 A 
ATOM     21  C   UNL     1      15.516  12.455  16.575  0.00  0.00    +0.111 A 
ATOM     22  C   UNL     1      16.134  11.235  14.729  0.00  0.00    +0.111 A 
ENDBRANCH  17  18
ENDBRANCH  13   5
ENDBRANCH   9  13
TORSDOF 7
ENDMDL
MODEL 3
REMARK VINA RESULT:      -5.7     28.429     29.740
REMARK  Name = 75367111
REMARK  10 active torsions:
REMARK  status: ('A' for Active; 'I' for Inactive)
REMARK    1  A    between atoms: O_2  and  C_8
REMARK    2  A    between atoms: N_4  and  C_7
REMARK    3  A    between atoms: N_4  and  C_12
REMARK    4  A    between atoms: N_5  and  C_13
REMARK    5  A    between atoms: C_9  and  C_13
REMARK    6  A    between atoms: C_11  and  C_12
REMARK    7  A    between atoms: C_11  and  C_14
REMARK    8  A    between atoms: C_11  and  C_15
REMARK    9  A    between atoms: C_11  and  C_16
REMARK   10  A    between atoms: C_17  and  C_18
REMARK                            x       y       z     vdW  Elec       q    Type
REMARK                         _______ _______ _______ _____ _____    ______ ____
ROOT
ATOM      1  O   UNL     1     -13.767   1.663  30.248  0.00  0.00    -0.371 OA
ATOM      7  C   UNL     1     -13.601   2.623  32.414  0.00  0.00    +0.111 C 
ATOM      8  C   UNL     1     -14.758   1.642  32.396  0.00  0.00    +0.164 C 
ATOM      9  C   UNL     1     -14.393   0.780  31.195  0.00  0.00    +0.165 C 
ATOM     10  C   UNL     1     -13.395   2.873  30.929  0.00  0.00    +0.181 C 
ENDROOT
BRANCH   8   2
ATOM      2  O   UNL     1     -14.847   0.880  33.583  0.00  0.00    -0.388 OA
ATOM     24  H   UNL     1     -14.313   0.075  33.471  0.00  0.00    +0.210 HD
ENDBRANCH   8   2
BRANCH   7   4
ATOM      4  N   UNL     1     -13.880   3.840  33.160  0.00  0.00    -0.308 NA
ATOM     23  H   UNL     1     -13.094   4.037  33.778  0.00  0.00    +0.122 HD
BRANCH   4  12
ATOM     12  C   UNL     1     -14.083   4.971  32.263  0.00  0.00    +0.087 C 
BRANCH  12  11
ATOM     11  C   UNL     1     -14.221   6.335  32.985  0.00  0.00    -0.025 C 
ATOM     14  C   UNL     1     -13.070   7.285  32.609  0.00  0.00    +0.012 C 
ATOM     15  C   UNL     1     -14.246   6.147  34.512  0.00  0.00    +0.012 C 
ATOM     16  C   UNL     1     -15.550   6.981  32.547  0.00  0.00    +0.012 C 
ENDBRANCH  12  11
ENDBRANCH   4  12
ENDBRANCH   7   4
BRANCH   9  13
ATOM     13  C   UNL     1     -15.592   0.105  30.553  0.00  0.00    +0.138 C 
BRANCH  13   5
ATOM      3  O   UNL     1     -17.163   2.270  29.508  0.00  0.00    -0.270 OA
ATOM      5  N   UNL     1     -15.725   0.479  29.174  0.00  0.00    -0.309 N 
ATOM     17  C   UNL     1     -16.514   1.548  28.756  0.00  0.00    +0.244 C 
ATOM     25  H   UNL     1     -15.269  -0.118  28.494  0.00  0.00    +0.149 HD
BRANCH  17  18
ATOM      6  N   UNL     1     -16.666   2.243  24.535  0.00  0.00    -0.263 NA
ATOM     18  C   UNL     1     -16.569   1.790  27.292  0.00  0.00    +0.040 A 
ATOM     19  C   UNL     1     -17.129   0.838  26.447  0.00  0.00    +0.033 A 
ATOM     20  C   UNL     1     -16.057   2.968  26.759  0.00  0.00    +0.033 A 
ATOM     21  C   UNL     1     -17.154   1.110  25.089  0.00  0.00    +0.111 A 
ATOM     22  C   UNL     1     -16.129   3.145  25.387  0.00  0.00    +0.111 A 
ENDBRANCH  17  18
ENDBRANCH  13   5
ENDBRANCH   9  13
TORSDOF 7
ENDMDL
MODEL 4
REMARK VINA RESULT:      -5.6     26.042     28.252
REMARK  Name = 75367111
REMARK  10 active torsions:
REMARK  status: ('A' for Active; 'I' for Inactive)
REMARK    1  A    between atoms: O_2  and  C_8
REMARK    2  A    between atoms: N_4  and  C_7
REMARK    3  A    between atoms: N_4  and  C_12
REMARK    4  A    between atoms: N_5  and  C_13
REMARK    5  A    between atoms: C_9  and  C_13
REMARK    6  A    between atoms: C_11  and  C_12
REMARK    7  A    between atoms: C_11  and  C_14
REMARK    8  A    between atoms: C_11  and  C_15
REMARK    9  A    between atoms: C_11  and  C_16
REMARK   10  A    between atoms: C_17  and  C_18
REMARK                            x       y       z     vdW  Elec       q    Type
REMARK                         _______ _______ _______ _____ _____    ______ ____
ROOT
ATOM      1  O   UNL     1     -16.301   4.871  22.296  0.00  0.00    -0.371 OA
ATOM      7  C   UNL     1     -13.960   5.091  21.955  0.00  0.00    +0.111 C 
ATOM      8  C   UNL     1     -14.237   5.010  23.444  0.00  0.00    +0.164 C 
ATOM      9  C   UNL     1     -15.615   4.361  23.452  0.00  0.00    +0.165 C 
ATOM     10  C   UNL     1     -15.332   5.461  21.413  0.00  0.00    +0.181 C 
ENDROOT
BRANCH   8   2
ATOM      2  O   UNL     1     -13.283   4.230  24.136  0.00  0.00    -0.388 OA
ATOM     24  H   UNL     1     -12.658   4.832  24.577  0.00  0.00    +0.210 HD
ENDBRANCH   8   2
BRANCH   7   4
ATOM      4  N   UNL     1     -12.932   6.057  21.604  0.00  0.00    -0.308 NA
ATOM     23  H   UNL     1     -12.434   5.726  20.779  0.00  0.00    +0.122 HD
BRANCH   4  12
ATOM     12  C   UNL     1     -13.515   7.364  21.322  0.00  0.00    +0.087 C 
BRANCH  12  11
ATOM     11  C   UNL     1     -12.653   8.253  20.391  0.00  0.00    -0.025 C 
ATOM     14  C   UNL     1     -11.279   7.613  20.123  0.00  0.00    +0.012 C 
ATOM     15  C   UNL     1     -12.449   9.651  21.002  0.00  0.00    +0.012 C 
ATOM     16  C   UNL     1     -13.392   8.406  19.048  0.00  0.00    +0.012 C 
ENDBRANCH  12  11
ENDBRANCH   4  12
ENDBRANCH   7   4
BRANCH   9  13
ATOM     13  C   UNL     1     -16.417   4.670  24.703  0.00  0.00    +0.138 C 
BRANCH  13   5
ATOM      3  O   UNL     1     -17.249   4.914  27.440  0.00  0.00    -0.270 OA
ATOM      5  N   UNL     1     -16.029   3.824  25.795  0.00  0.00    -0.309 N 
ATOM     17  C   UNL     1     -16.483   4.018  27.096  0.00  0.00    +0.244 C 
ATOM     25  H   UNL     1     -15.344   3.105  25.593  0.00  0.00    +0.149 HD
BRANCH  17  18
ATOM      6  N   UNL     1     -14.992   1.291  30.041  0.00  0.00    -0.263 NA
ATOM     18  C   UNL     1     -15.967   3.072  28.120  0.00  0.00    +0.040 A 
ATOM     19  C   UNL     1     -15.178   3.537  29.166  0.00  0.00    +0.033 A 
ATOM     20  C   UNL     1     -16.270   1.718  28.033  0.00  0.00    +0.033 A 
ATOM     21  C   UNL     1     -14.720   2.614  30.091  0.00  0.00    +0.111 A 
ATOM     22  C   UNL     1     -15.762   0.876  29.010  0.00  0.00    +0.111 A 
ENDBRANCH  17  18
ENDBRANCH  13   5
ENDBRANCH   9  13
TORSDOF 7
ENDMDL
MODEL 5
REMARK VINA RESULT:      -5.6     27.447     29.687
REMARK  Name = 75367111
REMARK  10 active torsions:
REMARK  status: ('A' for Active; 'I' for Inactive)
REMARK    1  A    between atoms: O_2  and  C_8
REMARK    2  A    between atoms: N_4  and  C_7
REMARK    3  A    between atoms: N_4  and  C_12
REMARK    4  A    between atoms: N_5  and  C_13
REMARK    5  A    between atoms: C_9  and  C_13
REMARK    6  A    between atoms: C_11  and  C_12
REMARK    7  A    between atoms: C_11  and  C_14
REMARK    8  A    between atoms: C_11  and  C_15
REMARK    9  A    between atoms: C_11  and  C_16
REMARK   10  A    between atoms: C_17  and  C_18
REMARK                            x       y       z     vdW  Elec       q    Type
REMARK                         _______ _______ _______ _____ _____    ______ ____
ROOT
ATOM      1  O   UNL     1     -17.823   3.730  26.000  0.00  0.00    -0.371 OA
ATOM      7  C   UNL     1     -16.441   4.753  24.361  0.00  0.00    +0.111 C 
ATOM      8  C   UNL     1     -16.175   3.259  24.371  0.00  0.00    +0.164 C 
ATOM      9  C   UNL     1     -17.444   2.739  25.030  0.00  0.00    +0.165 C 
ATOM     10  C   UNL     1     -17.114   4.947  25.710  0.00  0.00    +0.181 C 
ENDROOT
BRANCH   8   2
ATOM      2  O   UNL     1     -15.999   2.727  23.072  0.00  0.00    -0.388 OA
ATOM     24  H   UNL     1     -15.832   3.465  22.460  0.00  0.00    +0.210 HD
ENDBRANCH   8   2
BRANCH   7   4
ATOM      4  N   UNL     1     -15.241   5.559  24.205  0.00  0.00    -0.308 NA
ATOM     23  H   UNL     1     -14.462   4.948  23.962  0.00  0.00    +0.122 HD
BRANCH   4  12
ATOM     12  C   UNL     1     -15.413   6.560  23.160  0.00  0.00    +0.087 C 
BRANCH  12  11
ATOM     11  C   UNL     1     -14.701   6.214  21.828  0.00  0.00    -0.025 C 
ATOM     14  C   UNL     1     -15.693   5.648  20.796  0.00  0.00    +0.012 C 
ATOM     15  C   UNL     1     -13.572   5.194  22.058  0.00  0.00    +0.012 C 
ATOM     16  C   UNL     1     -14.087   7.507  21.258  0.00  0.00    +0.012 C 
ENDBRANCH  12  11
ENDBRANCH   4  12
ENDBRANCH   7   4
BRANCH   9  13
ATOM     13  C   UNL     1     -17.259   1.397  25.714  0.00  0.00    +0.138 C 
BRANCH  13   5
ATOM      3  O   UNL     1     -17.793   0.310  28.318  0.00  0.00    -0.270 OA
ATOM      5  N   UNL     1     -16.429   1.513  26.878  0.00  0.00    -0.309 N 
ATOM     17  C   UNL     1     -16.768   0.953  28.106  0.00  0.00    +0.244 C 
ATOM     25  H   UNL     1     -15.599   2.090  26.789  0.00  0.00    +0.149 HD
BRANCH  17  18
ATOM      6  N   UNL     1     -14.024   1.627  31.322  0.00  0.00    -0.263 NA
ATOM     18  C   UNL     1     -15.814   1.185  29.221  0.00  0.00    +0.040 A 
ATOM     19  C   UNL     1     -15.658   0.228  30.218  0.00  0.00    +0.033 A 
ATOM     20  C   UNL     1     -15.076   2.363  29.274  0.00  0.00    +0.033 A 
ATOM     21  C   UNL     1     -14.759   0.495  31.237  0.00  0.00    +0.111 A 
ATOM     22  C   UNL     1     -14.203   2.533  30.335  0.00  0.00    +0.111 A 
ENDBRANCH  17  18
ENDBRANCH  13   5
ENDBRANCH   9  13
TORSDOF 7
ENDMDL
MODEL 6
REMARK VINA RESULT:      -5.5     26.875     29.141
REMARK  Name = 75367111
REMARK  10 active torsions:
REMARK  status: ('A' for Active; 'I' for Inactive)
REMARK    1  A    between atoms: O_2  and  C_8
REMARK    2  A    between atoms: N_4  and  C_7
REMARK    3  A    between atoms: N_4  and  C_12
REMARK    4  A    between atoms: N_5  and  C_13
REMARK    5  A    between atoms: C_9  and  C_13
REMARK    6  A    between atoms: C_11  and  C_12
REMARK    7  A    between atoms: C_11  and  C_14
REMARK    8  A    between atoms: C_11  and  C_15
REMARK    9  A    between atoms: C_11  and  C_16
REMARK   10  A    between atoms: C_17  and  C_18
REMARK                            x       y       z     vdW  Elec       q    Type
REMARK                         _______ _______ _______ _____ _____    ______ ____
ROOT
ATOM      1  O   UNL     1     -17.832   5.261  24.476  0.00  0.00    -0.371 OA
ATOM      7  C   UNL     1     -16.334   4.212  22.961  0.00  0.00    +0.111 C 
ATOM      8  C   UNL     1     -15.831   4.004  24.377  0.00  0.00    +0.164 C 
ATOM      9  C   UNL     1     -17.105   4.239  25.178  0.00  0.00    +0.165 C 
ATOM     10  C   UNL     1     -17.290   5.379  23.149  0.00  0.00    +0.181 C 
ENDROOT
BRANCH   8   2
ATOM      2  O   UNL     1     -15.310   2.706  24.586  0.00  0.00    -0.388 OA
ATOM     24  H   UNL     1     -15.025   2.637  25.513  0.00  0.00    +0.210 HD
ENDBRANCH   8   2
BRANCH   7   4
ATOM      4  N   UNL     1     -15.277   4.495  22.003  0.00  0.00    -0.308 NA
ATOM     23  H   UNL     1     -15.694   4.863  21.149  0.00  0.00    +0.122 HD
BRANCH   4  12
ATOM     12  C   UNL     1     -14.333   5.469  22.536  0.00  0.00    +0.087 C 
BRANCH  12  11
ATOM     11  C   UNL     1     -14.137   6.718  21.638  0.00  0.00    -0.025 C 
ATOM     14  C   UNL     1     -14.395   8.016  22.424  0.00  0.00    +0.012 C 
ATOM     15  C   UNL     1     -15.074   6.669  20.419  0.00  0.00    +0.012 C 
ATOM     16  C   UNL     1     -12.679   6.730  21.139  0.00  0.00    +0.012 C 
ENDBRANCH  12  11
ENDBRANCH   4  12
ENDBRANCH   7   4
BRANCH   9  13
ATOM     13  C   UNL     1     -16.843   4.683  26.605  0.00  0.00    +0.138 C 
BRANCH  13   5
ATOM      3  O   UNL     1     -16.220   4.748  29.407  0.00  0.00    -0.270 OA
ATOM      5  N   UNL     1     -16.191   3.654  27.362  0.00  0.00    -0.309 N 
ATOM     17  C   UNL     1     -15.926   3.772  28.723  0.00  0.00    +0.244 C 
ATOM     25  H   UNL     1     -15.861   2.847  26.843  0.00  0.00    +0.149 HD
BRANCH  17  18
ATOM      6  N   UNL     1     -13.894   0.478  30.554  0.00  0.00    -0.263 NA
ATOM     18  C   UNL     1     -15.219   2.629  29.357  0.00  0.00    +0.040 A 
ATOM     19  C   UNL     1     -15.607   1.324  29.072  0.00  0.00    +0.033 A 
ATOM     20  C   UNL     1     -14.170   2.859  30.239  0.00  0.00    +0.033 A 
ATOM     21  C   UNL     1     -14.918   0.294  29.691  0.00  0.00    +0.111 A 
ATOM     22  C   UNL     1     -13.546   1.760  30.806  0.00  0.00    +0.111 A 
ENDBRANCH  17  18
ENDBRANCH  13   5
ENDBRANCH   9  13
TORSDOF 7
ENDMDL
MODEL 7
REMARK VINA RESULT:      -5.5      5.432      8.482
REMARK  Name = 75367111
REMARK  10 active torsions:
REMARK  status: ('A' for Active; 'I' for Inactive)
REMARK    1  A    between atoms: O_2  and  C_8
REMARK    2  A    between atoms: N_4  and  C_7
REMARK    3  A    between atoms: N_4  and  C_12
REMARK    4  A    between atoms: N_5  and  C_13
REMARK    5  A    between atoms: C_9  and  C_13
REMARK    6  A    between atoms: C_11  and  C_12
REMARK    7  A    between atoms: C_11  and  C_14
REMARK    8  A    between atoms: C_11  and  C_15
REMARK    9  A    between atoms: C_11  and  C_16
REMARK   10  A    between atoms: C_17  and  C_18
REMARK                            x       y       z     vdW  Elec       q    Type
REMARK                         _______ _______ _______ _____ _____    ______ ____
ROOT
ATOM      1  O   UNL     1      16.862   7.754  20.720  0.00  0.00    -0.371 OA
ATOM      7  C   UNL     1      18.505   6.330  19.766  0.00  0.00    +0.111 C 
ATOM      8  C   UNL     1      17.128   5.775  19.453  0.00  0.00    +0.164 C 
ATOM      9  C   UNL     1      16.262   7.013  19.644  0.00  0.00    +0.165 C 
ATOM     10  C   UNL     1      18.197   7.264  20.926  0.00  0.00    +0.181 C 
ENDROOT
BRANCH   8   2
ATOM      2  O   UNL     1      17.032   5.262  18.139  0.00  0.00    -0.388 OA
ATOM     24  H   UNL     1      16.631   5.944  17.573  0.00  0.00    +0.210 HD
ENDBRANCH   8   2
BRANCH   7   4
ATOM      4  N   UNL     1      19.483   5.308  20.105  0.00  0.00    -0.308 NA
ATOM     23  H   UNL     1      19.805   4.861  19.248  0.00  0.00    +0.122 HD
BRANCH   4  12
ATOM     12  C   UNL     1      20.623   5.885  20.807  0.00  0.00    +0.087 C 
BRANCH  12  11
ATOM     11  C   UNL     1      21.696   4.849  21.228  0.00  0.00    -0.025 C 
ATOM     14  C   UNL     1      23.003   5.046  20.438  0.00  0.00    +0.012 C 
ATOM     15  C   UNL     1      21.187   3.413  21.015  0.00  0.00    +0.012 C 
ATOM     16  C   UNL     1      21.996   5.048  22.726  0.00  0.00    +0.012 C 
ENDBRANCH  12  11
ENDBRANCH   4  12
ENDBRANCH   7   4
BRANCH   9  13
ATOM     13  C   UNL     1      14.819   6.691  19.984  0.00  0.00    +0.138 C 
BRANCH  13   5
ATOM      3  O   UNL     1      12.338   6.595  21.424  0.00  0.00    -0.270 OA
ATOM      5  N   UNL     1      14.191   7.775  20.682  0.00  0.00    -0.309 N 
ATOM     17  C   UNL     1      12.981   7.638  21.356  0.00  0.00    +0.244 C 
ATOM     25  H   UNL     1      14.637   8.683  20.608  0.00  0.00    +0.149 HD
BRANCH  17  18
ATOM      6  N   UNL     1      11.448  11.171  23.226  0.00  0.00    -0.263 NA
ATOM     18  C   UNL     1      12.450   8.863  22.007  0.00  0.00    +0.040 A 
ATOM     19  C   UNL     1      11.121   8.917  22.414  0.00  0.00    +0.033 A 
ATOM     20  C   UNL     1      13.278   9.962  22.209  0.00  0.00    +0.033 A 
ATOM     21  C   UNL     1      10.673  10.083  23.013  0.00  0.00    +0.111 A 
ATOM     22  C   UNL     1      12.733  11.081  22.818  0.00  0.00    +0.111 A 
ENDBRANCH  17  18
ENDBRANCH  13   5
ENDBRANCH   9  13
TORSDOF 7
ENDMDL
MODEL 8
REMARK VINA RESULT:      -5.5     13.757     16.479
REMARK  Name = 75367111
REMARK  10 active torsions:
REMARK  status: ('A' for Active; 'I' for Inactive)
REMARK    1  A    between atoms: O_2  and  C_8
REMARK    2  A    between atoms: N_4  and  C_7
REMARK    3  A    between atoms: N_4  and  C_12
REMARK    4  A    between atoms: N_5  and  C_13
REMARK    5  A    between atoms: C_9  and  C_13
REMARK    6  A    between atoms: C_11  and  C_12
REMARK    7  A    between atoms: C_11  and  C_14
REMARK    8  A    between atoms: C_11  and  C_15
REMARK    9  A    between atoms: C_11  and  C_16
REMARK   10  A    between atoms: C_17  and  C_18
REMARK                            x       y       z     vdW  Elec       q    Type
REMARK                         _______ _______ _______ _____ _____    ______ ____
ROOT
ATOM      1  O   UNL     1      13.974   9.337   5.669  0.00  0.00    -0.371 OA
ATOM      7  C   UNL     1      12.463   8.073   6.997  0.00  0.00    +0.111 C 
ATOM      8  C   UNL     1      13.518   7.144   6.428  0.00  0.00    +0.164 C 
ATOM      9  C   UNL     1      14.629   8.130   6.093  0.00  0.00    +0.165 C 
ATOM     10  C   UNL     1      12.597   9.278   6.080  0.00  0.00    +0.181 C 
ENDROOT
BRANCH   8   2
ATOM      2  O   UNL     1      13.944   6.166   7.356  0.00  0.00    -0.388 OA
ATOM     24  H   UNL     1      14.295   5.406   6.861  0.00  0.00    +0.210 HD
ENDBRANCH   8   2
BRANCH   7   4
ATOM      4  N   UNL     1      11.124   7.506   6.996  0.00  0.00    -0.308 NA
ATOM     23  H   UNL     1      10.448   8.256   7.132  0.00  0.00    +0.122 HD
BRANCH   4  12
ATOM     12  C   UNL     1      10.844   6.825   5.738  0.00  0.00    +0.087 C 
BRANCH  12  11
ATOM     11  C   UNL     1       9.781   5.703   5.850  0.00  0.00    -0.025 C 
ATOM     14  C   UNL     1      10.099   4.535   4.898  0.00  0.00    +0.012 C 
ATOM     15  C   UNL     1       8.376   6.244   5.536  0.00  0.00    +0.012 C 
ATOM     16  C   UNL     1       9.792   5.170   7.296  0.00  0.00    +0.012 C 
ENDBRANCH  12  11
ENDBRANCH   4  12
ENDBRANCH   7   4
BRANCH   9  13
ATOM     13  C   UNL     1      15.559   7.639   4.998  0.00  0.00    +0.138 C 
BRANCH  13   5
ATOM      3  O   UNL     1      14.619   7.833   2.292  0.00  0.00    -0.270 OA
ATOM      5  N   UNL     1      14.951   6.595   4.226  0.00  0.00    -0.309 N 
ATOM     17  C   UNL     1      14.522   6.779   2.914  0.00  0.00    +0.244 C 
ATOM     25  H   UNL     1      14.780   5.716   4.703  0.00  0.00    +0.149 HD
BRANCH  17  18
ATOM      6  N   UNL     1      12.695   3.402   1.021  0.00  0.00    -0.263 NA
ATOM     18  C   UNL     1      13.888   5.606   2.259  0.00  0.00    +0.040 A 
ATOM     19  C   UNL     1      14.678   4.610   1.694  0.00  0.00    +0.033 A 
ATOM     20  C   UNL     1      12.503   5.500   2.206  0.00  0.00    +0.033 A 
ATOM     21  C   UNL     1      14.039   3.539   1.093  0.00  0.00    +0.111 A 
ATOM     22  C   UNL     1      11.961   4.389   1.581  0.00  0.00    +0.111 A 
ENDBRANCH  17  18
ENDBRANCH  13   5
ENDBRANCH   9  13
TORSDOF 7
ENDMDL
MODEL 9
REMARK VINA RESULT:      -5.4     25.063     27.167
REMARK  Name = 75367111
REMARK  10 active torsions:
REMARK  status: ('A' for Active; 'I' for Inactive)
REMARK    1  A    between atoms: O_2  and  C_8
REMARK    2  A    between atoms: N_4  and  C_7
REMARK    3  A    between atoms: N_4  and  C_12
REMARK    4  A    between atoms: N_5  and  C_13
REMARK    5  A    between atoms: C_9  and  C_13
REMARK    6  A    between atoms: C_11  and  C_12
REMARK    7  A    between atoms: C_11  and  C_14
REMARK    8  A    between atoms: C_11  and  C_15
REMARK    9  A    between atoms: C_11  and  C_16
REMARK   10  A    between atoms: C_17  and  C_18
REMARK                            x       y       z     vdW  Elec       q    Type
REMARK                         _______ _______ _______ _____ _____    ______ ____
ROOT
ATOM      1  O   UNL     1      -2.876 -12.376  14.779  0.00  0.00    -0.371 OA
ATOM      7  C   UNL     1      -1.799 -11.186  13.028  0.00  0.00    +0.111 C 
ATOM      8  C   UNL     1      -2.024 -10.247  14.198  0.00  0.00    +0.164 C 
ATOM      9  C   UNL     1      -2.199 -11.238  15.341  0.00  0.00    +0.165 C 
ATOM     10  C   UNL     1      -2.779 -12.304  13.346  0.00  0.00    +0.181 C 
ENDROOT
BRANCH   8   2
ATOM      2  O   UNL     1      -0.931  -9.377  14.419  0.00  0.00    -0.388 OA
ATOM     24  H   UNL     1      -0.573  -9.555  15.305  0.00  0.00    +0.210 HD
ENDBRANCH   8   2
BRANCH   7   4
ATOM      4  N   UNL     1      -2.041 -10.571  11.732  0.00  0.00    -0.308 NA
ATOM     23  H   UNL     1      -1.190 -10.627  11.175  0.00  0.00    +0.122 HD
BRANCH   4  12
ATOM     12  C   UNL     1      -3.124 -11.245  11.027  0.00  0.00    +0.087 C 
BRANCH  12  11
ATOM     11  C   UNL     1      -4.224 -10.291  10.497  0.00  0.00    -0.025 C 
ATOM     14  C   UNL     1      -5.219 -11.036   9.588  0.00  0.00    +0.012 C 
ATOM     15  C   UNL     1      -3.605  -9.118   9.717  0.00  0.00    +0.012 C 
ATOM     16  C   UNL     1      -4.996  -9.726  11.706  0.00  0.00    +0.012 C 
ENDBRANCH  12  11
ENDBRANCH   4  12
ENDBRANCH   7   4
BRANCH   9  13
ATOM     13  C   UNL     1      -3.005 -10.683  16.500  0.00  0.00    +0.138 C 
BRANCH  13   5
ATOM      3  O   UNL     1      -5.339 -10.505  18.162  0.00  0.00    -0.270 OA
ATOM      5  N   UNL     1      -4.325 -10.304  16.086  0.00  0.00    -0.309 N 
ATOM     17  C   UNL     1      -5.403 -10.245  16.964  0.00  0.00    +0.244 C 
ATOM     25  H   UNL     1      -4.462 -10.142  15.094  0.00  0.00    +0.149 HD
BRANCH  17  18
ATOM      6  N   UNL     1      -9.175  -9.144  15.263  0.00  0.00    -0.263 NA
ATOM     18  C   UNL     1      -6.711  -9.861  16.373  0.00  0.00    +0.040 A 
ATOM     19  C   UNL     1      -7.664  -9.210  17.149  0.00  0.00    +0.033 A 
ATOM     20  C   UNL     1      -6.989 -10.154  15.043  0.00  0.00    +0.033 A 
ATOM     21  C   UNL     1      -8.868  -8.876  16.553  0.00  0.00    +0.111 A 
ATOM     22  C   UNL     1      -8.224  -9.778  14.540  0.00  0.00    +0.111 A 
ENDBRANCH  17  18
ENDBRANCH  13   5
ENDBRANCH   9  13
TORSDOF 7
ENDMDL
MODEL 10
REMARK VINA RESULT:      -5.4      5.646      7.985
REMARK  Name = 75367111
REMARK  10 active torsions:
REMARK  status: ('A' for Active; 'I' for Inactive)
REMARK    1  A    between atoms: O_2  and  C_8
REMARK    2  A    between atoms: N_4  and  C_7
REMARK    3  A    between atoms: N_4  and  C_12
REMARK    4  A    between atoms: N_5  and  C_13
REMARK    5  A    between atoms: C_9  and  C_13
REMARK    6  A    between atoms: C_11  and  C_12
REMARK    7  A    between atoms: C_11  and  C_14
REMARK    8  A    between atoms: C_11  and  C_15
REMARK    9  A    between atoms: C_11  and  C_16
REMARK   10  A    between atoms: C_17  and  C_18
REMARK                            x       y       z     vdW  Elec       q    Type
REMARK                         _______ _______ _______ _____ _____    ______ ____
ROOT
ATOM      1  O   UNL     1      16.629   8.144  20.559  0.00  0.00    -0.371 OA
ATOM      7  C   UNL     1      18.753   7.386  21.305  0.00  0.00    +0.111 C 
ATOM      8  C   UNL     1      18.056   6.258  20.567  0.00  0.00    +0.164 C 
ATOM      9  C   UNL     1      17.035   7.031  19.744  0.00  0.00    +0.165 C 
ATOM     10  C   UNL     1      17.584   8.306  21.621  0.00  0.00    +0.181 C 
ENDROOT
BRANCH   8   2
ATOM      2  O   UNL     1      18.937   5.513  19.750  0.00  0.00    -0.388 OA
ATOM     24  H   UNL     1      18.441   4.770  19.364  0.00  0.00    +0.210 HD
ENDBRANCH   8   2
BRANCH   7   4
ATOM      4  N   UNL     1      19.469   6.951  22.493  0.00  0.00    -0.308 NA
ATOM     23  H   UNL     1      19.530   5.934  22.489  0.00  0.00    +0.122 HD
BRANCH   4  12
ATOM     12  C   UNL     1      20.814   7.514  22.530  0.00  0.00    +0.087 C 
BRANCH  12  11
ATOM     11  C   UNL     1      21.921   6.539  22.058  0.00  0.00    -0.025 C 
ATOM     14  C   UNL     1      22.295   6.789  20.586  0.00  0.00    +0.012 C 
ATOM     15  C   UNL     1      21.473   5.076  22.225  0.00  0.00    +0.012 C 
ATOM     16  C   UNL     1      23.173   6.772  22.926  0.00  0.00    +0.012 C 
ENDBRANCH  12  11
ENDBRANCH   4  12
ENDBRANCH   7   4
BRANCH   9  13
ATOM     13  C   UNL     1      15.821   6.205  19.361  0.00  0.00    +0.138 C 
BRANCH  13   5
ATOM      3  O   UNL     1      13.371   7.290  18.329  0.00  0.00    -0.270 OA
ATOM      5  N   UNL     1      14.667   6.589  20.121  0.00  0.00    -0.309 N 
ATOM     17  C   UNL     1      13.517   7.110  19.535  0.00  0.00    +0.244 C 
ATOM     25  H   UNL     1      14.745   6.530  21.131  0.00  0.00    +0.149 HD
BRANCH  17  18
ATOM      6  N   UNL     1      10.354   8.187  22.212  0.00  0.00    -0.263 NA
ATOM     18  C   UNL     1      12.418   7.484  20.462  0.00  0.00    +0.040 A 
ATOM     19  C   UNL     1      12.157   8.823  20.731  0.00  0.00    +0.033 A 
ATOM     20  C   UNL     1      11.648   6.496  21.067  0.00  0.00    +0.033 A 
ATOM     21  C   UNL     1      11.124   9.119  21.605  0.00  0.00    +0.111 A 
ATOM     22  C   UNL     1      10.638   6.897  21.926  0.00  0.00    +0.111 A 
ENDBRANCH  17  18
ENDBRANCH  13   5
ENDBRANCH   9  13
TORSDOF 7
ENDMDL
