REMARK  Name = 45783981
REMARK  14 active torsions:
REMARK  status: ('A' for Active; 'I' for Inactive)
REMARK    1  A    between atoms: N_2  and  C_13
REMARK    2  A    between atoms: N_2  and  C_19
REMARK    3  A    between atoms: N_5  and  C_28
REMARK    4  A    between atoms: N_5  and  C_29
REMARK    5  A    between atoms: N_5  and  C_30
REMARK    6  A    between atoms: C_6  and  C_10
REMARK    7  A    between atoms: C_7  and  C_13
REMARK    8  A    between atoms: C_9  and  C_14
REMARK    9  A    between atoms: C_10  and  C_15
REMARK   10  A    between atoms: C_10  and  C_16
REMARK   11  A    between atoms: C_11  and  C_17
REMARK   12  A    between atoms: C_14  and  C_18
REMARK   13  A    between atoms: C_19  and  C_21
REMARK   14  A    between atoms: C_20  and  C_22
REMARK                            x       y       z     vdW  Elec       q    Type
REMARK                         _______ _______ _______ _____ _____    ______ ____
ROOT
ATOM      6  C   UNL     1       2.296   0.048   1.343  0.00  0.00    +0.000 C 
ATOM      7  C   UNL     1       3.840   0.176   1.381  0.00  0.00    +0.029 C 
ATOM      8  C   UNL     1       1.883  -1.428   1.248  0.00  0.00    +0.012 C 
ATOM      9  C   UNL     1       2.460  -2.116  -0.003  0.00  0.00    +0.024 C 
ATOM     11  C   UNL     1       3.934  -1.813  -0.183  0.00  0.00    -0.073 C 
ATOM     12  C   UNL     1       4.536  -0.793   0.454  0.00  0.00    -0.023 C 
ATOM     17  C   UNL     1       4.712  -2.739  -1.077  0.00  0.00    +0.039 C 
ENDROOT
BRANCH   6  10
ATOM     10  C   UNL     1       1.642   0.693   2.569  0.00  0.00    -0.013 C 
ATOM     15  C   UNL     1       1.691  -0.260   3.760  0.00  0.00    +0.007 C 
ATOM     16  C   UNL     1       0.204   1.094   2.256  0.00  0.00    +0.007 C 
ENDBRANCH   6  10
BRANCH   7  13
ATOM     13  C   UNL     1       4.285   1.606   1.052  0.00  0.00    +0.089 C 
BRANCH  13   2
ATOM      2  N   UNL     1       3.928   1.953  -0.313  0.00  0.00    -0.305 NA
ATOM     31  H   UNL     1       4.373   1.309  -0.966  0.00  0.00    +0.123 HD
BRANCH   2  19
ATOM     19  C   UNL     1       4.338   3.316  -0.632  0.00  0.00    +0.170 C 
BRANCH  19  21
ATOM     21  C   UNL     1       3.962   3.667  -2.005  0.00  0.00    -0.090 C 
ATOM     25  C   UNL     1       3.657   3.961  -3.128  0.00  0.00    +0.005 C 
ENDBRANCH  19  21
ENDBRANCH   2  19
ENDBRANCH  13   2
ENDBRANCH   7  13
BRANCH   9  14
ATOM     14  C   UNL     1       1.665  -1.737  -1.258  0.00  0.00    +0.105 C 
BRANCH  14  18
ATOM      1  O   UNL     1      -0.634  -1.025  -0.857  0.00  0.00    -0.420 OA
ATOM      3  N   UNL     1      -0.399  -3.228  -1.172  0.00  0.00    -0.112 NA
ATOM      4  N   UNL     1      -1.739  -2.968  -0.958  0.00  0.00    -0.107 NA
ATOM     18  C   UNL     1       0.208  -2.065  -1.105  0.00  0.00    +0.218 A 
ATOM     20  C   UNL     1      -1.830  -1.671  -0.779  0.00  0.00    +0.248 A 
BRANCH  20  22
ATOM     22  C   UNL     1      -2.973  -0.844  -0.519  0.00  0.00    +0.039 A 
ATOM     23  C   UNL     1      -4.241  -1.418  -0.423  0.00  0.00    +0.015 A 
ATOM     24  C   UNL     1      -2.817   0.533  -0.362  0.00  0.00    +0.015 A 
ATOM     26  C   UNL     1      -5.353  -0.614  -0.169  0.00  0.00    +0.024 A 
ATOM     27  C   UNL     1      -3.928   1.337  -0.108  0.00  0.00    +0.024 A 
ATOM     28  C   UNL     1      -5.196   0.763  -0.012  0.00  0.00    +0.029 A 
BRANCH  28   5
ATOM      5  N   UNL     1      -6.320   1.575   0.242  0.00  0.00    -0.336 N 
ATOM     29  C   UNL     1      -6.168   3.007   0.415  0.00  0.00    +0.129 C 
ATOM     30  C   UNL     1      -7.642   0.989   0.343  0.00  0.00    +0.129 C 
ENDBRANCH  28   5
ENDBRANCH  20  22
ENDBRANCH  14  18
ENDBRANCH   9  14
TORSDOF 9
