MODEL 1
REMARK VINA RESULT:      -7.5      0.000      0.000
REMARK  Name = 23757127
REMARK  14 active torsions:
REMARK  status: ('A' for Active; 'I' for Inactive)
REMARK    1  A    between atoms: O_1  and  C_15
REMARK    2  A    between atoms: O_1  and  C_24
REMARK    3  A    between atoms: O_2  and  C_16
REMARK    4  A    between atoms: O_3  and  C_20
REMARK    5  A    between atoms: O_6  and  C_36
REMARK    6  A    between atoms: O_6  and  C_38
REMARK    7  A    between atoms: N_7  and  C_25
REMARK    8  A    between atoms: N_8  and  C_26
REMARK    9  A    between atoms: C_9  and  C_19
REMARK   10  A    between atoms: C_11  and  C_20
REMARK   11  A    between atoms: C_11  and  C_21
REMARK   12  A    between atoms: C_12  and  C_22
REMARK   13  A    between atoms: C_22  and  C_23
REMARK   14  A    between atoms: C_25  and  C_27
REMARK                            x       y       z     vdW  Elec       q    Type
REMARK                         _______ _______ _______ _____ _____    ______ ____
ROOT
ATOM      9  C   UNL     1      23.393   2.777  23.153  0.00  0.00    -0.023 C 
ATOM     10  C   UNL     1      24.465   2.686  22.009  0.00  0.00    +0.007 C 
ATOM     11  C   UNL     1      24.399   3.826  20.911  0.00  0.00    +0.031 C 
ATOM     12  C   UNL     1      23.500   1.465  24.037  0.00  0.00    +0.032 C 
ATOM     13  C   UNL     1      21.965   2.837  22.517  0.00  0.00    +0.011 C 
ATOM     14  C   UNL     1      25.884   2.442  22.565  0.00  0.00    +0.007 C 
ATOM     15  C   UNL     1      22.927   4.277  20.644  0.00  0.00    +0.186 C 
ATOM     16  C   UNL     1      24.932   1.154  24.536  0.00  0.00    +0.119 C 
ATOM     17  C   UNL     1      21.922   3.200  21.029  0.00  0.00    +0.046 C 
ATOM     18  C   UNL     1      25.944   1.162  23.397  0.00  0.00    +0.032 C 
ATOM     19  C   UNL     1      23.585   4.034  24.036  0.00  0.00    +0.012 C 
ATOM     21  C   UNL     1      24.930   3.218  19.580  0.00  0.00    +0.017 C 
ENDROOT
BRANCH  16   2
ATOM      2  O   UNL     1      25.371   2.071  25.532  0.00  0.00    -0.391 OA
ATOM     39  H   UNL     1      24.725   2.054  26.257  0.00  0.00    +0.210 HD
ENDBRANCH  16   2
BRANCH  15   1
ATOM      1  O   UNL     1      22.569   5.470  21.338  0.00  0.00    -0.446 OA
BRANCH   1  24
ATOM      5  O   UNL     1      21.885   7.173  19.973  0.00  0.00    -0.226 OA
ATOM      8  N   UNL     1      20.367   5.834  21.148  0.00  0.00    -0.251 N 
ATOM     24  C   UNL     1      21.617   6.257  20.740  0.00  0.00    +0.405 C 
ATOM     42  H   UNL     1      20.347   5.047  21.793  0.00  0.00    +0.158 HD
BRANCH   8  26
ATOM     26  C   UNL     1      19.107   6.359  20.780  0.00  0.00    +0.037 A 
ATOM     28  C   UNL     1      18.631   7.494  21.418  0.00  0.00    +0.027 A 
ATOM     29  C   UNL     1      18.372   5.729  19.790  0.00  0.00    +0.027 A 
ATOM     32  C   UNL     1      17.388   8.011  21.055  0.00  0.00    +0.047 A 
ATOM     33  C   UNL     1      17.128   6.246  19.426  0.00  0.00    +0.047 A 
ATOM     36  C   UNL     1      16.637   7.389  20.059  0.00  0.00    +0.120 A 
BRANCH  36   6
ATOM      6  O   UNL     1      15.424   7.893  19.706  0.00  0.00    -0.495 OA
ATOM     38  C   UNL     1      14.306   7.008  19.782  0.00  0.00    +0.277 C 
ENDBRANCH  36   6
ENDBRANCH   8  26
ENDBRANCH   1  24
ENDBRANCH  15   1
BRANCH  11  20
ATOM     20  C   UNL     1      25.313   5.029  21.225  0.00  0.00    +0.166 C 
BRANCH  20   3
ATOM      3  O   UNL     1      25.020   6.050  20.296  0.00  0.00    -0.394 OA
ATOM     40  H   UNL     1      25.613   5.930  19.536  0.00  0.00    +0.209 HD
ENDBRANCH  20   3
ENDBRANCH  11  20
BRANCH  12  22
ATOM     22  C   UNL     1      22.503   1.409  25.208  0.00  0.00    +0.102 C 
BRANCH  22  23
ATOM      4  O   UNL     1      22.750  -0.981  25.492  0.00  0.00    -0.276 OA
ATOM      7  N   UNL     1      20.644  -0.016  25.666  0.00  0.00    -0.311 N 
ATOM     23  C   UNL     1      22.016   0.002  25.467  0.00  0.00    +0.214 C 
ATOM     41  H   UNL     1      20.116   0.850  25.595  0.00  0.00    +0.149 HD
BRANCH   7  25
ATOM     25  C   UNL     1      19.901  -1.226  25.933  0.00  0.00    +0.139 C 
BRANCH  25  27
ATOM     27  C   UNL     1      19.053  -1.636  24.762  0.00  0.00    -0.030 A 
ATOM     30  C   UNL     1      19.289  -2.854  24.135  0.00  0.00    +0.005 A 
ATOM     31  C   UNL     1      18.042  -0.792  24.317  0.00  0.00    +0.005 A 
ATOM     34  C   UNL     1      18.502  -3.234  23.048  0.00  0.00    +0.000 A 
ATOM     35  C   UNL     1      17.255  -1.172  23.230  0.00  0.00    +0.000 A 
ATOM     37  C   UNL     1      17.486  -2.393  22.595  0.00  0.00    +0.000 A 
ENDBRANCH  25  27
ENDBRANCH   7  25
ENDBRANCH  22  23
ENDBRANCH  12  22
TORSDOF 11
ENDMDL
MODEL 2
REMARK VINA RESULT:      -7.4      9.767     13.128
REMARK  Name = 23757127
REMARK  14 active torsions:
REMARK  status: ('A' for Active; 'I' for Inactive)
REMARK    1  A    between atoms: O_1  and  C_15
REMARK    2  A    between atoms: O_1  and  C_24
REMARK    3  A    between atoms: O_2  and  C_16
REMARK    4  A    between atoms: O_3  and  C_20
REMARK    5  A    between atoms: O_6  and  C_36
REMARK    6  A    between atoms: O_6  and  C_38
REMARK    7  A    between atoms: N_7  and  C_25
REMARK    8  A    between atoms: N_8  and  C_26
REMARK    9  A    between atoms: C_9  and  C_19
REMARK   10  A    between atoms: C_11  and  C_20
REMARK   11  A    between atoms: C_11  and  C_21
REMARK   12  A    between atoms: C_12  and  C_22
REMARK   13  A    between atoms: C_22  and  C_23
REMARK   14  A    between atoms: C_25  and  C_27
REMARK                            x       y       z     vdW  Elec       q    Type
REMARK                         _______ _______ _______ _____ _____    ______ ____
ROOT
ATOM      9  C   UNL     1      14.132   9.483  20.014  0.00  0.00    -0.023 C 
ATOM     10  C   UNL     1      13.054   8.787  19.109  0.00  0.00    +0.007 C 
ATOM     11  C   UNL     1      13.136   9.118  17.563  0.00  0.00    +0.031 C 
ATOM     12  C   UNL     1      13.776   9.180  21.530  0.00  0.00    +0.032 C 
ATOM     13  C   UNL     1      14.076  11.029  19.786  0.00  0.00    +0.011 C 
ATOM     14  C   UNL     1      12.929   7.279  19.415  0.00  0.00    +0.007 C 
ATOM     15  C   UNL     1      13.613  10.586  17.317  0.00  0.00    +0.186 C 
ATOM     16  C   UNL     1      13.563   7.679  21.841  0.00  0.00    +0.119 C 
ATOM     17  C   UNL     1      13.342  11.481  18.519  0.00  0.00    +0.046 C 
ATOM     18  C   UNL     1      12.571   7.035  20.879  0.00  0.00    +0.032 C 
ATOM     19  C   UNL     1      15.567   8.997  19.695  0.00  0.00    +0.012 C 
ATOM     21  C   UNL     1      11.692   9.015  16.990  0.00  0.00    +0.017 C 
ENDROOT
BRANCH  16   2
ATOM      2  O   UNL     1      14.776   6.937  21.796  0.00  0.00    -0.391 OA
ATOM     39  H   UNL     1      15.407   7.432  21.246  0.00  0.00    +0.210 HD
ENDBRANCH  16   2
BRANCH  15   1
ATOM      1  O   UNL     1      15.002  10.683  17.010  0.00  0.00    -0.446 OA
BRANCH   1  24
ATOM      5  O   UNL     1      16.168  12.456  16.157  0.00  0.00    -0.226 OA
ATOM      8  N   UNL     1      14.612  11.260  14.881  0.00  0.00    -0.251 N 
ATOM     24  C   UNL     1      15.342  11.563  16.014  0.00  0.00    +0.405 C 
ATOM     42  H   UNL     1      13.971  10.473  14.956  0.00  0.00    +0.158 HD
BRANCH   8  26
ATOM     26  C   UNL     1      14.645  11.908  13.624  0.00  0.00    +0.037 A 
ATOM     28  C   UNL     1      15.773  11.787  12.827  0.00  0.00    +0.027 A 
ATOM     29  C   UNL     1      13.551  12.652  13.215  0.00  0.00    +0.027 A 
ATOM     32  C   UNL     1      15.805  12.427  11.589  0.00  0.00    +0.047 A 
ATOM     33  C   UNL     1      13.583  13.292  11.976  0.00  0.00    +0.047 A 
ATOM     36  C   UNL     1      14.711  13.178  11.162  0.00  0.00    +0.120 A 
BRANCH  36   6
ATOM      6  O   UNL     1      14.743  13.804   9.954  0.00  0.00    -0.495 OA
ATOM     38  C   UNL     1      14.372  13.031   8.813  0.00  0.00    +0.277 C 
ENDBRANCH  36   6
ENDBRANCH   8  26
ENDBRANCH   1  24
ENDBRANCH  15   1
BRANCH  11  20
ATOM     20  C   UNL     1      13.985   8.105  16.765  0.00  0.00    +0.166 C 
BRANCH  20   3
ATOM      3  O   UNL     1      13.850   8.411  15.394  0.00  0.00    -0.394 OA
ATOM     40  H   UNL     1      14.514   7.889  14.914  0.00  0.00    +0.209 HD
ENDBRANCH  20   3
ENDBRANCH  11  20
BRANCH  12  22
ATOM     22  C   UNL     1      14.752   9.802  22.545  0.00  0.00    +0.102 C 
BRANCH  22  23
ATOM      4  O   UNL     1      14.621  11.408  24.350  0.00  0.00    -0.276 OA
ATOM      7  N   UNL     1      12.667  10.625  23.366  0.00  0.00    -0.311 N 
ATOM     23  C   UNL     1      14.042  10.706  23.526  0.00  0.00    +0.214 C 
ATOM     41  H   UNL     1      12.280   9.989  22.675  0.00  0.00    +0.149 HD
BRANCH   7  25
ATOM     25  C   UNL     1      11.733  11.379  24.171  0.00  0.00    +0.139 C 
BRANCH  25  27
ATOM     27  C   UNL     1      11.088  12.489  23.391  0.00  0.00    -0.030 A 
ATOM     30  C   UNL     1      11.356  12.622  22.034  0.00  0.00    +0.005 A 
ATOM     31  C   UNL     1      10.228  13.372  24.035  0.00  0.00    +0.005 A 
ATOM     34  C   UNL     1      10.756  13.653  21.310  0.00  0.00    +0.000 A 
ATOM     35  C   UNL     1       9.629  14.403  23.311  0.00  0.00    +0.000 A 
ATOM     37  C   UNL     1       9.893  14.543  21.948  0.00  0.00    +0.000 A 
ENDBRANCH  25  27
ENDBRANCH   7  25
ENDBRANCH  22  23
ENDBRANCH  12  22
TORSDOF 11
ENDMDL
MODEL 3
REMARK VINA RESULT:      -7.3      5.008     12.264
REMARK  Name = 23757127
REMARK  14 active torsions:
REMARK  status: ('A' for Active; 'I' for Inactive)
REMARK    1  A    between atoms: O_1  and  C_15
REMARK    2  A    between atoms: O_1  and  C_24
REMARK    3  A    between atoms: O_2  and  C_16
REMARK    4  A    between atoms: O_3  and  C_20
REMARK    5  A    between atoms: O_6  and  C_36
REMARK    6  A    between atoms: O_6  and  C_38
REMARK    7  A    between atoms: N_7  and  C_25
REMARK    8  A    between atoms: N_8  and  C_26
REMARK    9  A    between atoms: C_9  and  C_19
REMARK   10  A    between atoms: C_11  and  C_20
REMARK   11  A    between atoms: C_11  and  C_21
REMARK   12  A    between atoms: C_12  and  C_22
REMARK   13  A    between atoms: C_22  and  C_23
REMARK   14  A    between atoms: C_25  and  C_27
REMARK                            x       y       z     vdW  Elec       q    Type
REMARK                         _______ _______ _______ _____ _____    ______ ____
ROOT
ATOM      9  C   UNL     1      14.140   9.691  21.128  0.00  0.00    -0.023 C 
ATOM     10  C   UNL     1      12.805   9.384  20.360  0.00  0.00    +0.007 C 
ATOM     11  C   UNL     1      12.743   7.987  19.618  0.00  0.00    +0.031 C 
ATOM     12  C   UNL     1      14.083  11.190  21.642  0.00  0.00    +0.032 C 
ATOM     13  C   UNL     1      15.346   9.544  20.143  0.00  0.00    +0.011 C 
ATOM     14  C   UNL     1      11.560   9.685  21.222  0.00  0.00    +0.007 C 
ATOM     15  C   UNL     1      14.143   7.573  19.060  0.00  0.00    +0.186 C 
ATOM     16  C   UNL     1      12.802  11.537  22.436  0.00  0.00    +0.119 C 
ATOM     17  C   UNL     1      15.051   8.777  18.850  0.00  0.00    +0.046 C 
ATOM     18  C   UNL     1      11.539  11.142  21.681  0.00  0.00    +0.032 C 
ATOM     19  C   UNL     1      14.365   8.726  22.318  0.00  0.00    +0.012 C 
ATOM     21  C   UNL     1      11.803   8.156  18.389  0.00  0.00    +0.017 C 
ENDROOT
BRANCH  16   2
ATOM      2  O   UNL     1      12.771  10.915  23.716  0.00  0.00    -0.391 OA
ATOM     39  H   UNL     1      13.178  10.037  23.629  0.00  0.00    +0.210 HD
ENDBRANCH  16   2
BRANCH  15   1
ATOM      1  O   UNL     1      14.835   6.652  19.901  0.00  0.00    -0.446 OA
BRANCH   1  24
ATOM      5  O   UNL     1      16.396   5.841  18.439  0.00  0.00    -0.226 OA
ATOM      8  N   UNL     1      16.977   6.658  20.554  0.00  0.00    -0.251 N 
ATOM     24  C   UNL     1      16.115   6.332  19.525  0.00  0.00    +0.405 C 
ATOM     42  H   UNL     1      16.552   7.063  21.385  0.00  0.00    +0.158 HD
BRANCH   8  26
ATOM     26  C   UNL     1      18.382   6.500  20.597  0.00  0.00    +0.037 A 
ATOM     28  C   UNL     1      18.942   5.299  20.191  0.00  0.00    +0.027 A 
ATOM     29  C   UNL     1      19.170   7.547  21.045  0.00  0.00    +0.027 A 
ATOM     32  C   UNL     1      20.327   5.143  20.234  0.00  0.00    +0.047 A 
ATOM     33  C   UNL     1      20.555   7.391  21.087  0.00  0.00    +0.047 A 
ATOM     36  C   UNL     1      21.134   6.188  20.681  0.00  0.00    +0.120 A 
BRANCH  36   6
ATOM      6  O   UNL     1      22.485   6.035  20.724  0.00  0.00    -0.495 OA
ATOM     38  C   UNL     1      22.992   4.705  20.612  0.00  0.00    +0.277 C 
ENDBRANCH  36   6
ENDBRANCH   8  26
ENDBRANCH   1  24
ENDBRANCH  15   1
BRANCH  11  20
ATOM     20  C   UNL     1      12.122   6.865  20.478  0.00  0.00    +0.166 C 
BRANCH  20   3
ATOM      3  O   UNL     1      11.932   5.738  19.650  0.00  0.00    -0.394 OA
ATOM     40  H   UNL     1      11.540   5.039  20.199  0.00  0.00    +0.209 HD
ENDBRANCH  20   3
ENDBRANCH  11  20
BRANCH  12  22
ATOM     22  C   UNL     1      15.332  11.640  22.419  0.00  0.00    +0.102 C 
BRANCH  22  23
ATOM      4  O   UNL     1      17.274  13.018  21.987  0.00  0.00    -0.276 OA
ATOM      7  N   UNL     1      15.576  12.899  20.405  0.00  0.00    -0.311 N 
ATOM     23  C   UNL     1      16.188  12.588  21.611  0.00  0.00    +0.214 C 
ATOM     41  H   UNL     1      14.658  12.515  20.196  0.00  0.00    +0.149 HD
BRANCH   7  25
ATOM     25  C   UNL     1      16.162  13.787  19.428  0.00  0.00    +0.139 C 
BRANCH  25  27
ATOM     27  C   UNL     1      16.230  13.157  18.066  0.00  0.00    -0.030 A 
ATOM     30  C   UNL     1      15.210  12.311  17.648  0.00  0.00    +0.005 A 
ATOM     31  C   UNL     1      17.313  13.427  17.236  0.00  0.00    +0.005 A 
ATOM     34  C   UNL     1      15.272  11.726  16.383  0.00  0.00    +0.000 A 
ATOM     35  C   UNL     1      17.376  12.842  15.971  0.00  0.00    +0.000 A 
ATOM     37  C   UNL     1      16.355  11.991  15.545  0.00  0.00    +0.000 A 
ENDBRANCH  25  27
ENDBRANCH   7  25
ENDBRANCH  22  23
ENDBRANCH  12  22
TORSDOF 11
ENDMDL
MODEL 4
REMARK VINA RESULT:      -7.1     29.540     32.991
REMARK  Name = 23757127
REMARK  14 active torsions:
REMARK  status: ('A' for Active; 'I' for Inactive)
REMARK    1  A    between atoms: O_1  and  C_15
REMARK    2  A    between atoms: O_1  and  C_24
REMARK    3  A    between atoms: O_2  and  C_16
REMARK    4  A    between atoms: O_3  and  C_20
REMARK    5  A    between atoms: O_6  and  C_36
REMARK    6  A    between atoms: O_6  and  C_38
REMARK    7  A    between atoms: N_7  and  C_25
REMARK    8  A    between atoms: N_8  and  C_26
REMARK    9  A    between atoms: C_9  and  C_19
REMARK   10  A    between atoms: C_11  and  C_20
REMARK   11  A    between atoms: C_11  and  C_21
REMARK   12  A    between atoms: C_12  and  C_22
REMARK   13  A    between atoms: C_22  and  C_23
REMARK   14  A    between atoms: C_25  and  C_27
REMARK                            x       y       z     vdW  Elec       q    Type
REMARK                         _______ _______ _______ _____ _____    ______ ____
ROOT
ATOM      9  C   UNL     1      -5.802  -9.988  10.327  0.00  0.00    -0.023 C 
ATOM     10  C   UNL     1      -5.900 -10.879   9.038  0.00  0.00    +0.007 C 
ATOM     11  C   UNL     1      -6.687 -10.243   7.820  0.00  0.00    +0.031 C 
ATOM     12  C   UNL     1      -5.149 -10.858  11.482  0.00  0.00    +0.032 C 
ATOM     13  C   UNL     1      -7.241  -9.565  10.771  0.00  0.00    +0.011 C 
ATOM     14  C   UNL     1      -4.534 -11.482   8.647  0.00  0.00    +0.007 C 
ATOM     15  C   UNL     1      -7.871  -9.347   8.309  0.00  0.00    +0.186 C 
ATOM     16  C   UNL     1      -3.820 -11.541  11.083  0.00  0.00    +0.119 C 
ATOM     17  C   UNL     1      -8.333  -9.729   9.710  0.00  0.00    +0.046 C 
ATOM     18  C   UNL     1      -3.951 -12.322   9.781  0.00  0.00    +0.032 C 
ATOM     19  C   UNL     1      -4.970  -8.704  10.090  0.00  0.00    +0.012 C 
ATOM     21  C   UNL     1      -7.318 -11.416   7.013  0.00  0.00    +0.017 C 
ENDROOT
BRANCH  16   2
ATOM      2  O   UNL     1      -2.752 -10.611  10.942  0.00  0.00    -0.391 OA
ATOM     39  H   UNL     1      -3.047  -9.909  10.338  0.00  0.00    +0.210 HD
ENDBRANCH  16   2
BRANCH  15   1
ATOM      1  O   UNL     1      -7.556  -7.956   8.322  0.00  0.00    -0.446 OA
BRANCH   1  24
ATOM      5  O   UNL     1      -8.689  -6.853   6.670  0.00  0.00    -0.226 OA
ATOM      8  N   UNL     1      -9.259  -6.633   8.929  0.00  0.00    -0.251 N 
ATOM     24  C   UNL     1      -8.531  -7.110   7.856  0.00  0.00    +0.405 C 
ATOM     42  H   UNL     1      -8.975  -6.966   9.848  0.00  0.00    +0.158 HD
BRANCH   8  26
ATOM     26  C   UNL     1     -10.353  -5.738   8.910  0.00  0.00    +0.037 A 
ATOM     28  C   UNL     1     -11.641  -6.241   8.818  0.00  0.00    +0.027 A 
ATOM     29  C   UNL     1     -10.116  -4.375   8.983  0.00  0.00    +0.027 A 
ATOM     32  C   UNL     1     -12.720  -5.358   8.798  0.00  0.00    +0.047 A 
ATOM     33  C   UNL     1     -11.195  -3.491   8.963  0.00  0.00    +0.047 A 
ATOM     36  C   UNL     1     -12.498  -3.983   8.872  0.00  0.00    +0.120 A 
BRANCH  36   6
ATOM      6  O   UNL     1     -13.550  -3.122   8.852  0.00  0.00    -0.495 OA
ATOM     38  C   UNL     1     -14.449  -3.167   9.960  0.00  0.00    +0.277 C 
ENDBRANCH  36   6
ENDBRANCH   8  26
ENDBRANCH   1  24
ENDBRANCH  15   1
BRANCH  11  20
ATOM     20  C   UNL     1      -5.775  -9.487   6.831  0.00  0.00    +0.166 C 
BRANCH  20   3
ATOM      3  O   UNL     1      -6.595  -8.914   5.836  0.00  0.00    -0.394 OA
ATOM     40  H   UNL     1      -6.948  -8.082   6.195  0.00  0.00    +0.209 HD
ENDBRANCH  20   3
ENDBRANCH  11  20
BRANCH  12  22
ATOM     22  C   UNL     1      -4.987 -10.113  12.819  0.00  0.00    +0.102 C 
BRANCH  22  23
ATOM      4  O   UNL     1      -4.995 -12.225  14.001  0.00  0.00    -0.276 OA
ATOM      7  N   UNL     1      -3.855 -10.410  14.899  0.00  0.00    -0.311 N 
ATOM     23  C   UNL     1      -4.633 -11.053  13.948  0.00  0.00    +0.214 C 
ATOM     41  H   UNL     1      -3.632  -9.426  14.781  0.00  0.00    +0.149 HD
BRANCH   7  25
ATOM     25  C   UNL     1      -3.368 -11.063  16.093  0.00  0.00    +0.139 C 
BRANCH  25  27
ATOM     27  C   UNL     1      -4.357 -10.981  17.221  0.00  0.00    -0.030 A 
ATOM     30  C   UNL     1      -4.120 -11.686  18.395  0.00  0.00    +0.005 A 
ATOM     31  C   UNL     1      -5.499 -10.201  17.079  0.00  0.00    +0.005 A 
ATOM     34  C   UNL     1      -5.038 -11.610  19.442  0.00  0.00    +0.000 A 
ATOM     35  C   UNL     1      -6.417 -10.125  18.126  0.00  0.00    +0.000 A 
ATOM     37  C   UNL     1      -6.186 -10.830  19.308  0.00  0.00    +0.000 A 
ENDBRANCH  25  27
ENDBRANCH   7  25
ENDBRANCH  22  23
ENDBRANCH  12  22
TORSDOF 11
ENDMDL
MODEL 5
REMARK VINA RESULT:      -7.1     29.778     33.321
REMARK  Name = 23757127
REMARK  14 active torsions:
REMARK  status: ('A' for Active; 'I' for Inactive)
REMARK    1  A    between atoms: O_1  and  C_15
REMARK    2  A    between atoms: O_1  and  C_24
REMARK    3  A    between atoms: O_2  and  C_16
REMARK    4  A    between atoms: O_3  and  C_20
REMARK    5  A    between atoms: O_6  and  C_36
REMARK    6  A    between atoms: O_6  and  C_38
REMARK    7  A    between atoms: N_7  and  C_25
REMARK    8  A    between atoms: N_8  and  C_26
REMARK    9  A    between atoms: C_9  and  C_19
REMARK   10  A    between atoms: C_11  and  C_20
REMARK   11  A    between atoms: C_11  and  C_21
REMARK   12  A    between atoms: C_12  and  C_22
REMARK   13  A    between atoms: C_22  and  C_23
REMARK   14  A    between atoms: C_25  and  C_27
REMARK                            x       y       z     vdW  Elec       q    Type
REMARK                         _______ _______ _______ _____ _____    ______ ____
ROOT
ATOM      9  C   UNL     1      -9.482 -10.757  17.941  0.00  0.00    -0.023 C 
ATOM     10  C   UNL     1     -10.343  -9.446  17.859  0.00  0.00    +0.007 C 
ATOM     11  C   UNL     1     -10.501  -8.816  16.415  0.00  0.00    +0.031 C 
ATOM     12  C   UNL     1      -9.288 -11.126  19.471  0.00  0.00    +0.032 C 
ATOM     13  C   UNL     1      -8.077 -10.491  17.308  0.00  0.00    +0.011 C 
ATOM     14  C   UNL     1     -11.676  -9.581  18.626  0.00  0.00    +0.007 C 
ATOM     15  C   UNL     1      -9.212  -9.025  15.556  0.00  0.00    +0.186 C 
ATOM     16  C   UNL     1     -10.606 -11.183  20.280  0.00  0.00    +0.119 C 
ATOM     17  C   UNL     1      -7.979  -9.244  16.423  0.00  0.00    +0.046 C 
ATOM     18  C   UNL     1     -11.441  -9.922  20.096  0.00  0.00    +0.032 C 
ATOM     19  C   UNL     1     -10.139 -11.937  17.186  0.00  0.00    +0.012 C 
ATOM     21  C   UNL     1     -10.672  -7.279  16.596  0.00  0.00    +0.017 C 
ENDROOT
BRANCH  16   2
ATOM      2  O   UNL     1     -11.408 -12.306  19.931  0.00  0.00    -0.391 OA
ATOM     39  H   UNL     1     -12.301 -12.155  20.285  0.00  0.00    +0.210 HD
ENDBRANCH  16   2
BRANCH  15   1
ATOM      1  O   UNL     1      -9.308 -10.127  14.655  0.00  0.00    -0.446 OA
BRANCH   1  24
ATOM      5  O   UNL     1      -9.793  -9.521  12.504  0.00  0.00    -0.226 OA
ATOM      8  N   UNL     1      -7.622 -10.075  13.182  0.00  0.00    -0.251 N 
ATOM     24  C   UNL     1      -8.978  -9.872  13.348  0.00  0.00    +0.405 C 
ATOM     42  H   UNL     1      -7.106 -10.365  14.010  0.00  0.00    +0.158 HD
BRANCH   8  26
ATOM     26  C   UNL     1      -6.858  -9.928  12.001  0.00  0.00    +0.037 A 
ATOM     28  C   UNL     1      -6.911 -10.916  11.030  0.00  0.00    +0.027 A 
ATOM     29  C   UNL     1      -6.071  -8.800  11.838  0.00  0.00    +0.027 A 
ATOM     32  C   UNL     1      -6.157 -10.771   9.866  0.00  0.00    +0.047 A 
ATOM     33  C   UNL     1      -5.317  -8.655  10.673  0.00  0.00    +0.047 A 
ATOM     36  C   UNL     1      -5.361  -9.641   9.687  0.00  0.00    +0.120 A 
BRANCH  36   6
ATOM      6  O   UNL     1      -4.624  -9.500   8.552  0.00  0.00    -0.495 OA
ATOM     38  C   UNL     1      -5.207  -9.970   7.336  0.00  0.00    +0.277 C 
ENDBRANCH  36   6
ENDBRANCH   8  26
ENDBRANCH   1  24
ENDBRANCH  15   1
BRANCH  11  20
ATOM     20  C   UNL     1     -11.763  -9.301  15.671  0.00  0.00    +0.166 C 
BRANCH  20   3
ATOM      3  O   UNL     1     -11.898  -8.530  14.497  0.00  0.00    -0.394 OA
ATOM     40  H   UNL     1     -12.847  -8.468  14.298  0.00  0.00    +0.209 HD
ENDBRANCH  20   3
ENDBRANCH  11  20
BRANCH  12  22
ATOM     22  C   UNL     1      -8.457 -12.398  19.714  0.00  0.00    +0.102 C 
BRANCH  22  23
ATOM      4  O   UNL     1      -6.391 -11.284  20.303  0.00  0.00    -0.276 OA
ATOM      7  N   UNL     1      -6.375 -12.953  18.686  0.00  0.00    -0.311 N 
ATOM     23  C   UNL     1      -6.973 -12.127  19.626  0.00  0.00    +0.214 C 
ATOM     41  H   UNL     1      -6.948 -13.600  18.152  0.00  0.00    +0.149 HD
BRANCH   7  25
ATOM     25  C   UNL     1      -4.962 -12.915  18.386  0.00  0.00    +0.139 C 
BRANCH  25  27
ATOM     27  C   UNL     1      -4.674 -12.139  17.133  0.00  0.00    -0.030 A 
ATOM     30  C   UNL     1      -3.854 -11.018  17.191  0.00  0.00    +0.005 A 
ATOM     31  C   UNL     1      -5.229 -12.551  15.927  0.00  0.00    +0.005 A 
ATOM     34  C   UNL     1      -3.586 -10.298  16.027  0.00  0.00    +0.000 A 
ATOM     35  C   UNL     1      -4.961 -11.831  14.763  0.00  0.00    +0.000 A 
ATOM     37  C   UNL     1      -4.140 -10.704  14.813  0.00  0.00    +0.000 A 
ENDBRANCH  25  27
ENDBRANCH   7  25
ENDBRANCH  22  23
ENDBRANCH  12  22
TORSDOF 11
ENDMDL
MODEL 6
REMARK VINA RESULT:      -7.1     28.188     32.070
REMARK  Name = 23757127
REMARK  14 active torsions:
REMARK  status: ('A' for Active; 'I' for Inactive)
REMARK    1  A    between atoms: O_1  and  C_15
REMARK    2  A    between atoms: O_1  and  C_24
REMARK    3  A    between atoms: O_2  and  C_16
REMARK    4  A    between atoms: O_3  and  C_20
REMARK    5  A    between atoms: O_6  and  C_36
REMARK    6  A    between atoms: O_6  and  C_38
REMARK    7  A    between atoms: N_7  and  C_25
REMARK    8  A    between atoms: N_8  and  C_26
REMARK    9  A    between atoms: C_9  and  C_19
REMARK   10  A    between atoms: C_11  and  C_20
REMARK   11  A    between atoms: C_11  and  C_21
REMARK   12  A    between atoms: C_12  and  C_22
REMARK   13  A    between atoms: C_22  and  C_23
REMARK   14  A    between atoms: C_25  and  C_27
REMARK                            x       y       z     vdW  Elec       q    Type
REMARK                         _______ _______ _______ _____ _____    ______ ____
ROOT
ATOM      9  C   UNL     1      -3.702 -11.894  12.593  0.00  0.00    -0.023 C 
ATOM     10  C   UNL     1      -4.926 -12.818  12.255  0.00  0.00    +0.007 C 
ATOM     11  C   UNL     1      -5.882 -12.300  11.104  0.00  0.00    +0.031 C 
ATOM     12  C   UNL     1      -2.979 -12.479  13.877  0.00  0.00    +0.032 C 
ATOM     13  C   UNL     1      -4.218 -10.454  12.920  0.00  0.00    +0.011 C 
ATOM     14  C   UNL     1      -4.509 -14.296  12.098  0.00  0.00    +0.007 C 
ATOM     15  C   UNL     1      -5.986 -10.741  11.104  0.00  0.00    +0.186 C 
ATOM     16  C   UNL     1      -2.628 -13.983  13.775  0.00  0.00    +0.119 C 
ATOM     17  C   UNL     1      -5.649 -10.148  12.467  0.00  0.00    +0.046 C 
ATOM     18  C   UNL     1      -3.832 -14.821  13.362  0.00  0.00    +0.032 C 
ATOM     19  C   UNL     1      -2.702 -11.795  11.415  0.00  0.00    +0.012 C 
ATOM     21  C   UNL     1      -7.309 -12.844  11.407  0.00  0.00    +0.017 C 
ENDROOT
BRANCH  16   2
ATOM      2  O   UNL     1      -1.572 -14.232  12.853  0.00  0.00    -0.391 OA
ATOM     39  H   UNL     1      -0.765 -13.825  13.210  0.00  0.00    +0.210 HD
ENDBRANCH  16   2
BRANCH  15   1
ATOM      1  O   UNL     1      -5.139 -10.119  10.141  0.00  0.00    -0.446 OA
BRANCH   1  24
ATOM      5  O   UNL     1      -5.580  -7.931   9.643  0.00  0.00    -0.226 OA
ATOM      8  N   UNL     1      -6.406  -9.694   8.344  0.00  0.00    -0.251 N 
ATOM     24  C   UNL     1      -5.706  -9.122   9.388  0.00  0.00    +0.405 C 
ATOM     42  H   UNL     1      -6.393 -10.711   8.297  0.00  0.00    +0.158 HD
BRANCH   8  26
ATOM     26  C   UNL     1      -7.142  -9.041   7.327  0.00  0.00    +0.037 A 
ATOM     28  C   UNL     1      -8.313  -8.378   7.657  0.00  0.00    +0.027 A 
ATOM     29  C   UNL     1      -6.677  -9.077   6.023  0.00  0.00    +0.027 A 
ATOM     32  C   UNL     1      -9.039  -7.735   6.654  0.00  0.00    +0.047 A 
ATOM     33  C   UNL     1      -7.402  -8.433   5.021  0.00  0.00    +0.047 A 
ATOM     36  C   UNL     1      -8.583  -7.761   5.337  0.00  0.00    +0.120 A 
BRANCH  36   6
ATOM      6  O   UNL     1      -9.292  -7.134   4.359  0.00  0.00    -0.495 OA
ATOM     38  C   UNL     1      -8.840  -7.309   3.016  0.00  0.00    +0.277 C 
ENDBRANCH  36   6
ENDBRANCH   8  26
ENDBRANCH   1  24
ENDBRANCH  15   1
BRANCH  11  20
ATOM     20  C   UNL     1      -5.507 -12.842   9.708  0.00  0.00    +0.166 C 
BRANCH  20   3
ATOM      3  O   UNL     1      -6.562 -12.532   8.824  0.00  0.00    -0.394 OA
ATOM     40  H   UNL     1      -7.114 -13.327   8.742  0.00  0.00    +0.209 HD
ENDBRANCH  20   3
ENDBRANCH  11  20
BRANCH  12  22
ATOM     22  C   UNL     1      -1.750 -11.673  14.333  0.00  0.00    +0.102 C 
BRANCH  22  23
ATOM      4  O   UNL     1      -1.190 -10.245  16.205  0.00  0.00    -0.276 OA
ATOM      7  N   UNL     1      -3.096 -11.571  16.302  0.00  0.00    -0.311 N 
ATOM     23  C   UNL     1      -1.950 -11.068  15.704  0.00  0.00    +0.214 C 
ATOM     41  H   UNL     1      -3.646 -12.275  15.818  0.00  0.00    +0.149 HD
BRANCH   7  25
ATOM     25  C   UNL     1      -3.538 -11.173  17.620  0.00  0.00    +0.139 C 
BRANCH  25  27
ATOM     27  C   UNL     1      -4.936 -10.624  17.601  0.00  0.00    -0.030 A 
ATOM     30  C   UNL     1      -5.749 -10.777  18.718  0.00  0.00    +0.005 A 
ATOM     31  C   UNL     1      -5.403  -9.969  16.467  0.00  0.00    +0.005 A 
ATOM     34  C   UNL     1      -7.047 -10.267  18.701  0.00  0.00    +0.000 A 
ATOM     35  C   UNL     1      -6.701  -9.459  16.450  0.00  0.00    +0.000 A 
ATOM     37  C   UNL     1      -7.523  -9.609  17.567  0.00  0.00    +0.000 A 
ENDBRANCH  25  27
ENDBRANCH   7  25
ENDBRANCH  22  23
ENDBRANCH  12  22
TORSDOF 11
ENDMDL
MODEL 7
REMARK VINA RESULT:      -7.0     28.702     32.688
REMARK  Name = 23757127
REMARK  14 active torsions:
REMARK  status: ('A' for Active; 'I' for Inactive)
REMARK    1  A    between atoms: O_1  and  C_15
REMARK    2  A    between atoms: O_1  and  C_24
REMARK    3  A    between atoms: O_2  and  C_16
REMARK    4  A    between atoms: O_3  and  C_20
REMARK    5  A    between atoms: O_6  and  C_36
REMARK    6  A    between atoms: O_6  and  C_38
REMARK    7  A    between atoms: N_7  and  C_25
REMARK    8  A    between atoms: N_8  and  C_26
REMARK    9  A    between atoms: C_9  and  C_19
REMARK   10  A    between atoms: C_11  and  C_20
REMARK   11  A    between atoms: C_11  and  C_21
REMARK   12  A    between atoms: C_12  and  C_22
REMARK   13  A    between atoms: C_22  and  C_23
REMARK   14  A    between atoms: C_25  and  C_27
REMARK                            x       y       z     vdW  Elec       q    Type
REMARK                         _______ _______ _______ _____ _____    ______ ____
ROOT
ATOM      9  C   UNL     1      -4.862 -10.397  10.997  0.00  0.00    -0.023 C 
ATOM     10  C   UNL     1      -6.113  -9.471  10.785  0.00  0.00    +0.007 C 
ATOM     11  C   UNL     1      -6.649  -9.368   9.298  0.00  0.00    +0.031 C 
ATOM     12  C   UNL     1      -4.369 -10.226  12.495  0.00  0.00    +0.032 C 
ATOM     13  C   UNL     1      -3.715  -9.941  10.036  0.00  0.00    +0.011 C 
ATOM     14  C   UNL     1      -7.220  -9.747  11.825  0.00  0.00    +0.007 C 
ATOM     15  C   UNL     1      -5.480  -9.446   8.263  0.00  0.00    +0.186 C 
ATOM     16  C   UNL     1      -5.482 -10.415  13.552  0.00  0.00    +0.119 C 
ATOM     17  C   UNL     1      -4.147  -9.038   8.877  0.00  0.00    +0.046 C 
ATOM     18  C   UNL     1      -6.705  -9.556  13.250  0.00  0.00    +0.032 C 
ATOM     19  C   UNL     1      -5.178 -11.883  10.705  0.00  0.00    +0.012 C 
ATOM     21  C   UNL     1      -7.297  -7.962   9.135  0.00  0.00    +0.017 C 
ENDROOT
BRANCH  16   2
ATOM      2  O   UNL     1      -5.903 -11.770  13.662  0.00  0.00    -0.391 OA
ATOM     39  H   UNL     1      -5.403 -12.290  13.010  0.00  0.00    +0.210 HD
ENDBRANCH  16   2
BRANCH  15   1
ATOM      1  O   UNL     1      -5.316 -10.744   7.696  0.00  0.00    -0.446 OA
BRANCH   1  24
ATOM      5  O   UNL     1      -6.050 -10.087   5.632  0.00  0.00    -0.226 OA
ATOM      8  N   UNL     1      -4.497 -11.817   5.908  0.00  0.00    -0.251 N 
ATOM     24  C   UNL     1      -5.353 -10.816   6.326  0.00  0.00    +0.405 C 
ATOM     42  H   UNL     1      -3.998 -12.317   6.640  0.00  0.00    +0.158 HD
BRANCH   8  26
ATOM     26  C   UNL     1      -4.226 -12.234   4.584  0.00  0.00    +0.037 A 
ATOM     28  C   UNL     1      -2.913 -12.292   4.145  0.00  0.00    +0.027 A 
ATOM     29  C   UNL     1      -5.279 -12.576   3.751  0.00  0.00    +0.027 A 
ATOM     32  C   UNL     1      -2.646 -12.702   2.840  0.00  0.00    +0.047 A 
ATOM     33  C   UNL     1      -5.013 -12.987   2.445  0.00  0.00    +0.047 A 
ATOM     36  C   UNL     1      -3.695 -13.051   1.990  0.00  0.00    +0.120 A 
BRANCH  36   6
ATOM      6  O   UNL     1      -3.435 -13.450   0.716  0.00  0.00    -0.495 OA
ATOM     38  C   UNL     1      -2.222 -14.170   0.495  0.00  0.00    +0.277 C 
ENDBRANCH  36   6
ENDBRANCH   8  26
ENDBRANCH   1  24
ENDBRANCH  15   1
BRANCH  11  20
ATOM     20  C   UNL     1      -7.760 -10.390   8.976  0.00  0.00    +0.166 C 
BRANCH  20   3
ATOM      3  O   UNL     1      -8.336 -10.030   7.740  0.00  0.00    -0.394 OA
ATOM     40  H   UNL     1      -9.074 -10.641   7.575  0.00  0.00    +0.209 HD
ENDBRANCH  20   3
ENDBRANCH  11  20
BRANCH  12  22
ATOM     22  C   UNL     1      -3.139 -11.077  12.856  0.00  0.00    +0.102 C 
BRANCH  22  23
ATOM      4  O   UNL     1      -1.575  -9.909  14.286  0.00  0.00    -0.276 OA
ATOM      7  N   UNL     1      -3.214 -11.256  15.235  0.00  0.00    -0.311 N 
ATOM     23  C   UNL     1      -2.537 -10.665  14.179  0.00  0.00    +0.214 C 
ATOM     41  H   UNL     1      -3.981 -11.894  15.043  0.00  0.00    +0.149 HD
BRANCH   7  25
ATOM     25  C   UNL     1      -2.857 -11.044  16.619  0.00  0.00    +0.139 C 
BRANCH  25  27
ATOM     27  C   UNL     1      -4.062 -11.045  17.516  0.00  0.00    -0.030 A 
ATOM     30  C   UNL     1      -4.043 -11.784  18.693  0.00  0.00    +0.005 A 
ATOM     31  C   UNL     1      -5.184 -10.305  17.161  0.00  0.00    +0.005 A 
ATOM     34  C   UNL     1      -5.161 -11.784  19.527  0.00  0.00    +0.000 A 
ATOM     35  C   UNL     1      -6.303 -10.305  17.994  0.00  0.00    +0.000 A 
ATOM     37  C   UNL     1      -6.291 -11.045  19.177  0.00  0.00    +0.000 A 
ENDBRANCH  25  27
ENDBRANCH   7  25
ENDBRANCH  22  23
ENDBRANCH  12  22
TORSDOF 11
ENDMDL
MODEL 8
REMARK VINA RESULT:      -6.9     18.952     24.020
REMARK  Name = 23757127
REMARK  14 active torsions:
REMARK  status: ('A' for Active; 'I' for Inactive)
REMARK    1  A    between atoms: O_1  and  C_15
REMARK    2  A    between atoms: O_1  and  C_24
REMARK    3  A    between atoms: O_2  and  C_16
REMARK    4  A    between atoms: O_3  and  C_20
REMARK    5  A    between atoms: O_6  and  C_36
REMARK    6  A    between atoms: O_6  and  C_38
REMARK    7  A    between atoms: N_7  and  C_25
REMARK    8  A    between atoms: N_8  and  C_26
REMARK    9  A    between atoms: C_9  and  C_19
REMARK   10  A    between atoms: C_11  and  C_20
REMARK   11  A    between atoms: C_11  and  C_21
REMARK   12  A    between atoms: C_12  and  C_22
REMARK   13  A    between atoms: C_22  and  C_23
REMARK   14  A    between atoms: C_25  and  C_27
REMARK                            x       y       z     vdW  Elec       q    Type
REMARK                         _______ _______ _______ _____ _____    ______ ____
ROOT
ATOM      9  C   UNL     1       9.563   9.112   5.666  0.00  0.00    -0.023 C 
ATOM     10  C   UNL     1       9.509   8.394   7.062  0.00  0.00    +0.007 C 
ATOM     11  C   UNL     1      10.068   6.913   7.097  0.00  0.00    +0.031 C 
ATOM     12  C   UNL     1       8.800  10.497   5.792  0.00  0.00    +0.032 C 
ATOM     13  C   UNL     1       8.827   8.229   4.605  0.00  0.00    +0.011 C 
ATOM     14  C   UNL     1      10.057   9.291   8.194  0.00  0.00    +0.007 C 
ATOM     15  C   UNL     1       9.776   6.161   5.758  0.00  0.00    +0.186 C 
ATOM     16  C   UNL     1       9.275  11.375   6.973  0.00  0.00    +0.119 C 
ATOM     17  C   UNL     1       8.598   6.769   5.008  0.00  0.00    +0.046 C 
ATOM     18  C   UNL     1       9.284  10.604   8.288  0.00  0.00    +0.032 C 
ATOM     19  C   UNL     1      11.015   9.344   5.183  0.00  0.00    +0.012 C 
ATOM     21  C   UNL     1       9.296   6.153   8.215  0.00  0.00    +0.017 C 
ENDROOT
BRANCH  16   2
ATOM      2  O   UNL     1      10.576  11.913   6.761  0.00  0.00    -0.391 OA
ATOM     39  H   UNL     1      10.749  12.559   7.466  0.00  0.00    +0.210 HD
ENDBRANCH  16   2
BRANCH  15   1
ATOM      1  O   UNL     1      10.891   6.141   4.869  0.00  0.00    -0.446 OA
BRANCH   1  24
ATOM      5  O   UNL     1      10.451   4.008   4.170  0.00  0.00    -0.226 OA
ATOM      8  N   UNL     1      11.537   5.567   2.802  0.00  0.00    -0.251 N 
ATOM     24  C   UNL     1      10.918   5.119   3.953  0.00  0.00    +0.405 C 
ATOM     42  H   UNL     1      11.859   6.532   2.812  0.00  0.00    +0.158 HD
BRANCH   8  26
ATOM     26  C   UNL     1      11.780   4.848   1.609  0.00  0.00    +0.037 A 
ATOM     28  C   UNL     1      12.934   4.088   1.496  0.00  0.00    +0.027 A 
ATOM     29  C   UNL     1      10.861   4.919   0.575  0.00  0.00    +0.027 A 
ATOM     32  C   UNL     1      13.173   3.381   0.319  0.00  0.00    +0.047 A 
ATOM     33  C   UNL     1      11.100   4.211  -0.602  0.00  0.00    +0.047 A 
ATOM     36  C   UNL     1      12.257   3.441  -0.730  0.00  0.00    +0.120 A 
BRANCH  36   6
ATOM      6  O   UNL     1      12.491   2.751  -1.879  0.00  0.00    -0.495 OA
ATOM     38  C   UNL     1      11.370   2.124  -2.501  0.00  0.00    +0.277 C 
ENDBRANCH  36   6
ENDBRANCH   8  26
ENDBRANCH   1  24
ENDBRANCH  15   1
BRANCH  11  20
ATOM     20  C   UNL     1      11.561   6.832   7.479  0.00  0.00    +0.166 C 
BRANCH  20   3
ATOM      3  O   UNL     1      11.839   5.502   7.861  0.00  0.00    -0.394 OA
ATOM     40  H   UNL     1      11.508   4.922   7.155  0.00  0.00    +0.209 HD
ENDBRANCH  20   3
ENDBRANCH  11  20
BRANCH  12  22
ATOM     22  C   UNL     1       8.767  11.320   4.493  0.00  0.00    +0.102 C 
BRANCH  22  23
ATOM      4  O   UNL     1       7.056  12.957   3.995  0.00  0.00    -0.276 OA
ATOM      7  N   UNL     1       6.505  10.700   4.048  0.00  0.00    -0.311 N 
ATOM     23  C   UNL     1       7.369  11.781   4.152  0.00  0.00    +0.214 C 
ATOM     41  H   UNL     1       6.853   9.762   4.227  0.00  0.00    +0.149 HD
BRANCH   7  25
ATOM     25  C   UNL     1       5.102  10.838   3.734  0.00  0.00    +0.139 C 
BRANCH  25  27
ATOM     27  C   UNL     1       4.789  10.369   2.342  0.00  0.00    -0.030 A 
ATOM     30  C   UNL     1       5.804   9.849   1.547  0.00  0.00    +0.005 A 
ATOM     31  C   UNL     1       3.486  10.457   1.863  0.00  0.00    +0.005 A 
ATOM     34  C   UNL     1       5.513   9.412   0.255  0.00  0.00    +0.000 A 
ATOM     35  C   UNL     1       3.196  10.021   0.570  0.00  0.00    +0.000 A 
ATOM     37  C   UNL     1       4.209   9.499  -0.234  0.00  0.00    +0.000 A 
ENDBRANCH  25  27
ENDBRANCH   7  25
ENDBRANCH  22  23
ENDBRANCH  12  22
TORSDOF 11
ENDMDL
MODEL 9
REMARK VINA RESULT:      -6.7     29.738     33.561
REMARK  Name = 23757127
REMARK  14 active torsions:
REMARK  status: ('A' for Active; 'I' for Inactive)
REMARK    1  A    between atoms: O_1  and  C_15
REMARK    2  A    between atoms: O_1  and  C_24
REMARK    3  A    between atoms: O_2  and  C_16
REMARK    4  A    between atoms: O_3  and  C_20
REMARK    5  A    between atoms: O_6  and  C_36
REMARK    6  A    between atoms: O_6  and  C_38
REMARK    7  A    between atoms: N_7  and  C_25
REMARK    8  A    between atoms: N_8  and  C_26
REMARK    9  A    between atoms: C_9  and  C_19
REMARK   10  A    between atoms: C_11  and  C_20
REMARK   11  A    between atoms: C_11  and  C_21
REMARK   12  A    between atoms: C_12  and  C_22
REMARK   13  A    between atoms: C_22  and  C_23
REMARK   14  A    between atoms: C_25  and  C_27
REMARK                            x       y       z     vdW  Elec       q    Type
REMARK                         _______ _______ _______ _____ _____    ______ ____
ROOT
ATOM      9  C   UNL     1      -5.805  -9.985  10.340  0.00  0.00    -0.023 C 
ATOM     10  C   UNL     1      -5.890 -11.080   9.217  0.00  0.00    +0.007 C 
ATOM     11  C   UNL     1      -6.537 -10.614   7.849  0.00  0.00    +0.031 C 
ATOM     12  C   UNL     1      -5.307 -10.682  11.674  0.00  0.00    +0.032 C 
ATOM     13  C   UNL     1      -7.230  -9.389  10.587  0.00  0.00    +0.011 C 
ATOM     14  C   UNL     1      -4.556 -11.838   9.047  0.00  0.00    +0.007 C 
ATOM     15  C   UNL     1      -7.671  -9.564   8.080  0.00  0.00    +0.186 C 
ATOM     16  C   UNL     1      -4.016 -11.518  11.507  0.00  0.00    +0.119 C 
ATOM     17  C   UNL     1      -8.257  -9.659   9.483  0.00  0.00    +0.046 C 
ATOM     18  C   UNL     1      -4.123 -12.505  10.350  0.00  0.00    +0.032 C 
ATOM     19  C   UNL     1      -4.854  -8.826   9.955  0.00  0.00    +0.012 C 
ATOM     21  C   UNL     1      -7.208 -11.862   7.204  0.00  0.00    +0.017 C 
ENDROOT
BRANCH  16   2
ATOM      2  O   UNL     1      -2.867 -10.705  11.297  0.00  0.00    -0.391 OA
ATOM     39  H   UNL     1      -3.120  -9.782  11.466  0.00  0.00    +0.210 HD
ENDBRANCH  16   2
BRANCH  15   1
ATOM      1  O   UNL     1      -7.242  -8.219   7.882  0.00  0.00    -0.446 OA
BRANCH   1  24
ATOM      5  O   UNL     1      -8.455  -6.306   7.562  0.00  0.00    -0.226 OA
ATOM      8  N   UNL     1      -8.443  -8.048   5.999  0.00  0.00    -0.251 N 
ATOM     24  C   UNL     1      -8.094  -7.409   7.173  0.00  0.00    +0.405 C 
ATOM     42  H   UNL     1      -8.036  -8.968   5.849  0.00  0.00    +0.158 HD
BRANCH   8  26
ATOM     26  C   UNL     1      -9.298  -7.580   4.974  0.00  0.00    +0.037 A 
ATOM     28  C   UNL     1     -10.654  -7.448   5.228  0.00  0.00    +0.027 A 
ATOM     29  C   UNL     1      -8.763  -7.263   3.736  0.00  0.00    +0.027 A 
ATOM     32  C   UNL     1     -11.496  -6.987   4.217  0.00  0.00    +0.047 A 
ATOM     33  C   UNL     1      -9.606  -6.801   2.725  0.00  0.00    +0.047 A 
ATOM     36  C   UNL     1     -10.973  -6.662   2.966  0.00  0.00    +0.120 A 
BRANCH  36   6
ATOM      6  O   UNL     1     -11.796  -6.214   1.980  0.00  0.00    -0.495 OA
ATOM     38  C   UNL     1     -13.200  -6.356   2.190  0.00  0.00    +0.277 C 
ENDBRANCH  36   6
ENDBRANCH   8  26
ENDBRANCH   1  24
ENDBRANCH  15   1
BRANCH  11  20
ATOM     20  C   UNL     1      -5.500 -10.110   6.823  0.00  0.00    +0.166 C 
BRANCH  20   3
ATOM      3  O   UNL     1      -6.152  -9.970   5.579  0.00  0.00    -0.394 OA
ATOM     40  H   UNL     1      -5.889  -9.111   5.210  0.00  0.00    +0.209 HD
ENDBRANCH  20   3
ENDBRANCH  11  20
BRANCH  12  22
ATOM     22  C   UNL     1      -5.174  -9.728  12.874  0.00  0.00    +0.102 C 
BRANCH  22  23
ATOM      4  O   UNL     1      -7.083 -10.845  13.855  0.00  0.00    -0.276 OA
ATOM      7  N   UNL     1      -5.760  -9.461  15.173  0.00  0.00    -0.311 N 
ATOM     23  C   UNL     1      -6.123 -10.092  13.992  0.00  0.00    +0.214 C 
ATOM     41  H   UNL     1      -4.964  -8.830  15.178  0.00  0.00    +0.149 HD
BRANCH   7  25
ATOM     25  C   UNL     1      -6.488  -9.623  16.410  0.00  0.00    +0.139 C 
BRANCH  25  27
ATOM     27  C   UNL     1      -5.707 -10.412  17.423  0.00  0.00    -0.030 A 
ATOM     30  C   UNL     1      -4.426 -10.852  17.112  0.00  0.00    +0.005 A 
ATOM     31  C   UNL     1      -6.275 -10.694  18.660  0.00  0.00    +0.005 A 
ATOM     34  C   UNL     1      -3.701 -11.584  18.052  0.00  0.00    +0.000 A 
ATOM     35  C   UNL     1      -5.550 -11.427  19.600  0.00  0.00    +0.000 A 
ATOM     37  C   UNL     1      -4.263 -11.872  19.296  0.00  0.00    +0.000 A 
ENDBRANCH  25  27
ENDBRANCH   7  25
ENDBRANCH  22  23
ENDBRANCH  12  22
TORSDOF 11
ENDMDL
MODEL 10
REMARK VINA RESULT:      -6.6     29.904     33.386
REMARK  Name = 23757127
REMARK  14 active torsions:
REMARK  status: ('A' for Active; 'I' for Inactive)
REMARK    1  A    between atoms: O_1  and  C_15
REMARK    2  A    between atoms: O_1  and  C_24
REMARK    3  A    between atoms: O_2  and  C_16
REMARK    4  A    between atoms: O_3  and  C_20
REMARK    5  A    between atoms: O_6  and  C_36
REMARK    6  A    between atoms: O_6  and  C_38
REMARK    7  A    between atoms: N_7  and  C_25
REMARK    8  A    between atoms: N_8  and  C_26
REMARK    9  A    between atoms: C_9  and  C_19
REMARK   10  A    between atoms: C_11  and  C_20
REMARK   11  A    between atoms: C_11  and  C_21
REMARK   12  A    between atoms: C_12  and  C_22
REMARK   13  A    between atoms: C_22  and  C_23
REMARK   14  A    between atoms: C_25  and  C_27
REMARK                            x       y       z     vdW  Elec       q    Type
REMARK                         _______ _______ _______ _____ _____    ______ ____
ROOT
ATOM      9  C   UNL     1      -7.116 -10.999  17.150  0.00  0.00    -0.023 C 
ATOM     10  C   UNL     1      -5.744 -11.739  16.959  0.00  0.00    +0.007 C 
ATOM     11  C   UNL     1      -5.057 -11.559  15.544  0.00  0.00    +0.031 C 
ATOM     12  C   UNL     1      -7.728 -11.444  18.544  0.00  0.00    +0.032 C 
ATOM     13  C   UNL     1      -8.097 -11.432  16.011  0.00  0.00    +0.011 C 
ATOM     14  C   UNL     1      -4.788 -11.499  18.148  0.00  0.00    +0.007 C 
ATOM     15  C   UNL     1      -6.118 -11.458  14.402  0.00  0.00    +0.186 C 
ATOM     16  C   UNL     1      -6.756 -11.292  19.738  0.00  0.00    +0.119 C 
ATOM     17  C   UNL     1      -7.443 -12.098  14.797  0.00  0.00    +0.046 C 
ATOM     18  C   UNL     1      -5.411 -11.955  19.465  0.00  0.00    +0.032 C 
ATOM     19  C   UNL     1      -6.963  -9.460  17.101  0.00  0.00    +0.012 C 
ATOM     21  C   UNL     1      -4.223 -12.845  15.267  0.00  0.00    +0.017 C 
ENDROOT
BRANCH  16   2
ATOM      2  O   UNL     1      -6.523  -9.930  20.079  0.00  0.00    -0.391 OA
ATOM     39  H   UNL     1      -7.144  -9.385  19.567  0.00  0.00    +0.210 HD
ENDBRANCH  16   2
BRANCH  15   1
ATOM      1  O   UNL     1      -6.389 -10.117  14.001  0.00  0.00    -0.446 OA
BRANCH   1  24
ATOM      5  O   UNL     1      -7.692  -9.391  12.267  0.00  0.00    -0.226 OA
ATOM      8  N   UNL     1      -5.621 -10.426  11.919  0.00  0.00    -0.251 N 
ATOM     24  C   UNL     1      -6.667  -9.926  12.671  0.00  0.00    +0.405 C 
ATOM     42  H   UNL     1      -4.849 -10.835  12.440  0.00  0.00    +0.158 HD
BRANCH   8  26
ATOM     26  C   UNL     1      -5.489 -10.439  10.511  0.00  0.00    +0.037 A 
ATOM     28  C   UNL     1      -4.764  -9.436   9.888  0.00  0.00    +0.027 A 
ATOM     29  C   UNL     1      -6.088 -11.454   9.784  0.00  0.00    +0.027 A 
ATOM     32  C   UNL     1      -4.635  -9.450   8.499  0.00  0.00    +0.047 A 
ATOM     33  C   UNL     1      -5.958 -11.468   8.395  0.00  0.00    +0.047 A 
ATOM     36  C   UNL     1      -5.230 -10.466   7.753  0.00  0.00    +0.120 A 
BRANCH  36   6
ATOM      6  O   UNL     1      -5.105 -10.478   6.398  0.00  0.00    -0.495 OA
ATOM     38  C   UNL     1      -6.036 -11.276   5.667  0.00  0.00    +0.277 C 
ENDBRANCH  36   6
ENDBRANCH   8  26
ENDBRANCH   1  24
ENDBRANCH  15   1
BRANCH  11  20
ATOM     20  C   UNL     1      -4.057 -10.384  15.494  0.00  0.00    +0.166 C 
BRANCH  20   3
ATOM      3  O   UNL     1      -3.524 -10.323  14.189  0.00  0.00    -0.394 OA
ATOM     40  H   UNL     1      -2.724  -9.773  14.228  0.00  0.00    +0.209 HD
ENDBRANCH  20   3
ENDBRANCH  11  20
BRANCH  12  22
ATOM     22  C   UNL     1      -9.085 -10.797  18.874  0.00  0.00    +0.102 C 
BRANCH  22  23
ATOM      4  O   UNL     1     -10.233 -12.923  18.737  0.00  0.00    -0.276 OA
ATOM      7  N   UNL     1     -10.901 -11.356  20.318  0.00  0.00    -0.311 N 
ATOM     23  C   UNL     1     -10.117 -11.826  19.275  0.00  0.00    +0.214 C 
ATOM     41  H   UNL     1     -10.748 -10.418  20.677  0.00  0.00    +0.149 HD
BRANCH   7  25
ATOM     25  C   UNL     1     -11.973 -12.125  20.908  0.00  0.00    +0.139 C 
BRANCH  25  27
ATOM     27  C   UNL     1     -13.236 -11.323  21.037  0.00  0.00    -0.030 A 
ATOM     30  C   UNL     1     -13.274 -10.019  20.556  0.00  0.00    +0.005 A 
ATOM     31  C   UNL     1     -14.354 -11.891  21.635  0.00  0.00    +0.005 A 
ATOM     34  C   UNL     1     -14.447  -9.273  20.675  0.00  0.00    +0.000 A 
ATOM     35  C   UNL     1     -15.527 -11.146  21.754  0.00  0.00    +0.000 A 
ATOM     37  C   UNL     1     -15.573  -9.837  21.274  0.00  0.00    +0.000 A 
ENDBRANCH  25  27
ENDBRANCH   7  25
ENDBRANCH  22  23
ENDBRANCH  12  22
TORSDOF 11
ENDMDL
