MODEL 1
REMARK VINA RESULT:      -6.9      0.000      0.000
REMARK  Name = 51137077
REMARK  3 active torsions:
REMARK  status: ('A' for Active; 'I' for Inactive)
REMARK    1  A    between atoms: N_3  and  C_9
REMARK    2  A    between atoms: C_5  and  C_10
REMARK    3  A    between atoms: C_9  and  C_11
REMARK                            x       y       z     vdW  Elec       q    Type
REMARK                         _______ _______ _______ _____ _____    ______ ____
ROOT
ATOM      3  N   UNL     1      11.960   4.287   1.852  0.00  0.00    -0.297 NA
ATOM      5  C   UNL     1      10.468   5.295   3.354  0.00  0.00    +0.060 C 
ATOM      6  C   UNL     1      11.485   6.339   2.860  0.00  0.00    +0.027 C 
ATOM      7  C   UNL     1      11.084   3.942   2.973  0.00  0.00    +0.095 C 
ATOM      8  C   UNL     1      12.624   5.525   2.258  0.00  0.00    +0.085 C 
ENDROOT
BRANCH   5  10
ATOM      1  S   UNL     1       9.631   6.901   5.462  0.00  0.00    -0.072 S 
ATOM      4  N   UNL     1      10.167   4.386   5.663  0.00  0.00    -0.244 NA
ATOM     10  C   UNL     1      10.121   5.393   4.822  0.00  0.00    +0.084 A 
ATOM     12  C   UNL     1       9.456   6.173   7.016  0.00  0.00    +0.039 A 
ATOM     13  C   UNL     1       9.789   4.818   6.925  0.00  0.00    +0.078 A 
ATOM     16  C   UNL     1       9.053   6.759   8.226  0.00  0.00    +0.017 A 
ATOM     17  C   UNL     1       9.715   4.023   8.089  0.00  0.00    +0.029 A 
ATOM     20  C   UNL     1       8.989   5.950   9.363  0.00  0.00    +0.001 A 
ATOM     21  C   UNL     1       9.315   4.599   9.298  0.00  0.00    +0.002 A 
ENDBRANCH   5  10
BRANCH   3   9
ATOM      9  C   UNL     1      12.907   3.227   1.540  0.00  0.00    +0.122 C 
BRANCH   9  11
ATOM      2  F   UNL     1      12.184   3.656  -1.165  0.00  0.00    -0.205 F 
ATOM     11  C   UNL     1      13.893   3.648   0.482  0.00  0.00    +0.002 A 
ATOM     14  C   UNL     1      13.469   3.841  -0.833  0.00  0.00    +0.128 A 
ATOM     15  C   UNL     1      15.232   3.845   0.820  0.00  0.00    +0.008 A 
ATOM     18  C   UNL     1      14.384   4.232  -1.810  0.00  0.00    +0.038 A 
ATOM     19  C   UNL     1      16.147   4.235  -0.159  0.00  0.00    +0.000 A 
ATOM     22  C   UNL     1      15.723   4.429  -1.472  0.00  0.00    +0.003 A 
ENDBRANCH   9  11
ENDBRANCH   3   9
TORSDOF 3
ENDMDL
MODEL 2
REMARK VINA RESULT:      -6.7     22.352     24.843
REMARK  Name = 51137077
REMARK  3 active torsions:
REMARK  status: ('A' for Active; 'I' for Inactive)
REMARK    1  A    between atoms: N_3  and  C_9
REMARK    2  A    between atoms: C_5  and  C_10
REMARK    3  A    between atoms: C_9  and  C_11
REMARK                            x       y       z     vdW  Elec       q    Type
REMARK                         _______ _______ _______ _____ _____    ______ ____
ROOT
ATOM      3  N   UNL     1      -2.440 -11.349  12.652  0.00  0.00    -0.297 NA
ATOM      5  C   UNL     1      -2.860 -10.558  14.819  0.00  0.00    +0.060 C 
ATOM      6  C   UNL     1      -1.713 -11.584  14.858  0.00  0.00    +0.027 C 
ATOM      7  C   UNL     1      -3.521 -10.766  13.450  0.00  0.00    +0.095 C 
ATOM      8  C   UNL     1      -1.806 -12.329  13.533  0.00  0.00    +0.085 C 
ENDROOT
BRANCH   5  10
ATOM      1  S   UNL     1      -5.408 -10.004  15.781  0.00  0.00    -0.072 S 
ATOM      4  N   UNL     1      -3.570 -11.216  17.124  0.00  0.00    -0.244 NA
ATOM     10  C   UNL     1      -3.838 -10.656  15.968  0.00  0.00    +0.084 A 
ATOM     12  C   UNL     1      -5.794 -10.501  17.386  0.00  0.00    +0.039 A 
ATOM     13  C   UNL     1      -4.681 -11.135  17.949  0.00  0.00    +0.078 A 
ATOM     16  C   UNL     1      -6.995 -10.342  18.097  0.00  0.00    +0.017 A 
ATOM     17  C   UNL     1      -4.777 -11.625  19.268  0.00  0.00    +0.029 A 
ATOM     20  C   UNL     1      -7.062 -10.837  19.401  0.00  0.00    +0.001 A 
ATOM     21  C   UNL     1      -5.968 -11.470  19.982  0.00  0.00    +0.002 A 
ENDBRANCH   5  10
BRANCH   3   9
ATOM      9  C   UNL     1      -2.922 -11.946  11.415  0.00  0.00    +0.122 C 
BRANCH   9  11
ATOM      2  F   UNL     1      -1.927  -9.424  10.593  0.00  0.00    -0.205 F 
ATOM     11  C   UNL     1      -3.727 -10.971  10.597  0.00  0.00    +0.002 A 
ATOM     14  C   UNL     1      -3.176  -9.745  10.227  0.00  0.00    +0.128 A 
ATOM     15  C   UNL     1      -5.027 -11.297  10.211  0.00  0.00    +0.008 A 
ATOM     18  C   UNL     1      -3.923  -8.844   9.469  0.00  0.00    +0.038 A 
ATOM     19  C   UNL     1      -5.775 -10.395   9.453  0.00  0.00    +0.000 A 
ATOM     22  C   UNL     1      -5.223  -9.170   9.082  0.00  0.00    +0.003 A 
ENDBRANCH   9  11
ENDBRANCH   3   9
TORSDOF 3
ENDMDL
MODEL 3
REMARK VINA RESULT:      -6.6     23.032     26.143
REMARK  Name = 51137077
REMARK  3 active torsions:
REMARK  status: ('A' for Active; 'I' for Inactive)
REMARK    1  A    between atoms: N_3  and  C_9
REMARK    2  A    between atoms: C_5  and  C_10
REMARK    3  A    between atoms: C_9  and  C_11
REMARK                            x       y       z     vdW  Elec       q    Type
REMARK                         _______ _______ _______ _____ _____    ______ ____
ROOT
ATOM      3  N   UNL     1      -4.224 -10.627  14.620  0.00  0.00    -0.297 NA
ATOM      5  C   UNL     1      -5.518  -9.670  16.326  0.00  0.00    +0.060 C 
ATOM      6  C   UNL     1      -4.335 -10.436  16.945  0.00  0.00    +0.027 C 
ATOM      7  C   UNL     1      -5.593 -10.175  14.879  0.00  0.00    +0.095 C 
ATOM      8  C   UNL     1      -3.828 -11.344  15.833  0.00  0.00    +0.085 C 
ENDROOT
BRANCH   5  10
ATOM      1  S   UNL     1      -6.930 -10.932  18.360  0.00  0.00    -0.072 S 
ATOM      4  N   UNL     1      -7.914  -9.134  16.795  0.00  0.00    -0.244 NA
ATOM     10  C   UNL     1      -6.826  -9.815  17.069  0.00  0.00    +0.084 A 
ATOM     12  C   UNL     1      -8.579 -10.488  18.598  0.00  0.00    +0.039 A 
ATOM     13  C   UNL     1      -8.928  -9.509  17.663  0.00  0.00    +0.078 A 
ATOM     16  C   UNL     1      -9.497 -10.972  19.544  0.00  0.00    +0.017 A 
ATOM     17  C   UNL     1     -10.243  -8.997  17.677  0.00  0.00    +0.029 A 
ATOM     20  C   UNL     1     -10.792 -10.448  19.536  0.00  0.00    +0.001 A 
ATOM     21  C   UNL     1     -11.163  -9.473  18.616  0.00  0.00    +0.002 A 
ENDBRANCH   5  10
BRANCH   3   9
ATOM      9  C   UNL     1      -4.128 -11.458  13.429  0.00  0.00    +0.122 C 
BRANCH   9  11
ATOM      2  F   UNL     1      -1.579 -10.531  12.611  0.00  0.00    -0.205 F 
ATOM     11  C   UNL     1      -3.912 -10.635  12.187  0.00  0.00    +0.002 A 
ATOM     14  C   UNL     1      -2.630 -10.211  11.842  0.00  0.00    +0.128 A 
ATOM     15  C   UNL     1      -4.999 -10.298  11.381  0.00  0.00    +0.008 A 
ATOM     18  C   UNL     1      -2.433  -9.449  10.690  0.00  0.00    +0.038 A 
ATOM     19  C   UNL     1      -4.802  -9.536  10.228  0.00  0.00    +0.000 A 
ATOM     22  C   UNL     1      -3.520  -9.112   9.883  0.00  0.00    +0.003 A 
ENDBRANCH   9  11
ENDBRANCH   3   9
TORSDOF 3
ENDMDL
MODEL 4
REMARK VINA RESULT:      -6.4     23.341     26.438
REMARK  Name = 51137077
REMARK  3 active torsions:
REMARK  status: ('A' for Active; 'I' for Inactive)
REMARK    1  A    between atoms: N_3  and  C_9
REMARK    2  A    between atoms: C_5  and  C_10
REMARK    3  A    between atoms: C_9  and  C_11
REMARK                            x       y       z     vdW  Elec       q    Type
REMARK                         _______ _______ _______ _____ _____    ______ ____
ROOT
ATOM      3  N   UNL     1      -4.585 -10.535  14.956  0.00  0.00    -0.297 NA
ATOM      5  C   UNL     1      -5.984  -9.590  16.584  0.00  0.00    +0.060 C 
ATOM      6  C   UNL     1      -4.816 -10.320  17.270  0.00  0.00    +0.027 C 
ATOM      7  C   UNL     1      -5.976 -10.113  15.141  0.00  0.00    +0.095 C 
ATOM      8  C   UNL     1      -4.234 -11.229  16.196  0.00  0.00    +0.085 C 
ENDROOT
BRANCH   5  10
ATOM      1  S   UNL     1      -8.673  -8.891  16.669  0.00  0.00    -0.072 S 
ATOM      4  N   UNL     1      -7.538 -10.536  18.298  0.00  0.00    -0.244 NA
ATOM     10  C   UNL     1      -7.324  -9.758  17.263  0.00  0.00    +0.084 A 
ATOM     12  C   UNL     1      -9.657  -9.602  17.894  0.00  0.00    +0.039 A 
ATOM     13  C   UNL     1      -8.871 -10.457  18.672  0.00  0.00    +0.078 A 
ATOM     16  C   UNL     1     -11.025  -9.415  18.148  0.00  0.00    +0.017 A 
ATOM     17  C   UNL     1      -9.478 -11.149  19.741  0.00  0.00    +0.029 A 
ATOM     20  C   UNL     1     -11.601 -10.113  19.212  0.00  0.00    +0.001 A 
ATOM     21  C   UNL     1     -10.840 -10.969  20.000  0.00  0.00    +0.002 A 
ENDBRANCH   5  10
BRANCH   3   9
ATOM      9  C   UNL     1      -4.411 -11.377  13.782  0.00  0.00    +0.122 C 
BRANCH   9  11
ATOM      2  F   UNL     1      -5.750 -10.175  11.593  0.00  0.00    -0.205 F 
ATOM     11  C   UNL     1      -3.692 -10.653  12.674  0.00  0.00    +0.002 A 
ATOM     14  C   UNL     1      -4.413 -10.085  11.625  0.00  0.00    +0.128 A 
ATOM     15  C   UNL     1      -2.301 -10.553  12.700  0.00  0.00    +0.008 A 
ATOM     18  C   UNL     1      -3.744  -9.415  10.601  0.00  0.00    +0.038 A 
ATOM     19  C   UNL     1      -1.631  -9.883  11.675  0.00  0.00    +0.000 A 
ATOM     22  C   UNL     1      -2.353  -9.314  10.627  0.00  0.00    +0.003 A 
ENDBRANCH   9  11
ENDBRANCH   3   9
TORSDOF 3
ENDMDL
MODEL 5
REMARK VINA RESULT:      -6.3     35.523     38.453
REMARK  Name = 51137077
REMARK  3 active torsions:
REMARK  status: ('A' for Active; 'I' for Inactive)
REMARK    1  A    between atoms: N_3  and  C_9
REMARK    2  A    between atoms: C_5  and  C_10
REMARK    3  A    between atoms: C_9  and  C_11
REMARK                            x       y       z     vdW  Elec       q    Type
REMARK                         _______ _______ _______ _____ _____    ______ ____
ROOT
ATOM      3  N   UNL     1     -14.677   2.226  31.178  0.00  0.00    -0.297 NA
ATOM      5  C   UNL     1     -16.232   1.951  29.444  0.00  0.00    +0.060 C 
ATOM      6  C   UNL     1     -15.655   0.581  29.839  0.00  0.00    +0.027 C 
ATOM      7  C   UNL     1     -15.270   2.972  30.066  0.00  0.00    +0.095 C 
ATOM      8  C   UNL     1     -14.393   0.898  30.632  0.00  0.00    +0.085 C 
ENDROOT
BRANCH   5  10
ATOM      1  S   UNL     1     -17.385   1.038  27.086  0.00  0.00    -0.072 S 
ATOM      4  N   UNL     1     -15.903   3.141  27.270  0.00  0.00    -0.244 NA
ATOM     10  C   UNL     1     -16.426   2.153  27.958  0.00  0.00    +0.084 A 
ATOM     12  C   UNL     1     -17.094   1.934  25.641  0.00  0.00    +0.039 A 
ATOM     13  C   UNL     1     -16.276   3.029  25.939  0.00  0.00    +0.078 A 
ATOM     16  C   UNL     1     -17.555   1.686  24.338  0.00  0.00    +0.017 A 
ATOM     17  C   UNL     1     -15.909   3.904  24.895  0.00  0.00    +0.029 A 
ATOM     20  C   UNL     1     -17.176   2.568  23.324  0.00  0.00    +0.001 A 
ATOM     21  C   UNL     1     -16.364   3.664  23.596  0.00  0.00    +0.002 A 
ENDBRANCH   5  10
BRANCH   3   9
ATOM      9  C   UNL     1     -13.486   2.872  31.709  0.00  0.00    +0.122 C 
BRANCH   9  11
ATOM      2  F   UNL     1     -14.505   2.301  34.291  0.00  0.00    -0.205 F 
ATOM     11  C   UNL     1     -13.828   3.941  32.713  0.00  0.00    +0.002 A 
ATOM     14  C   UNL     1     -14.327   3.590  33.967  0.00  0.00    +0.128 A 
ATOM     15  C   UNL     1     -13.646   5.284  32.386  0.00  0.00    +0.008 A 
ATOM     18  C   UNL     1     -14.643   4.582  34.895  0.00  0.00    +0.038 A 
ATOM     19  C   UNL     1     -13.962   6.277  33.314  0.00  0.00    +0.000 A 
ATOM     22  C   UNL     1     -14.459   5.926  34.568  0.00  0.00    +0.003 A 
ENDBRANCH   9  11
ENDBRANCH   3   9
TORSDOF 3
ENDMDL
MODEL 6
REMARK VINA RESULT:      -6.3     24.423     27.835
REMARK  Name = 51137077
REMARK  3 active torsions:
REMARK  status: ('A' for Active; 'I' for Inactive)
REMARK    1  A    between atoms: N_3  and  C_9
REMARK    2  A    between atoms: C_5  and  C_10
REMARK    3  A    between atoms: C_9  and  C_11
REMARK                            x       y       z     vdW  Elec       q    Type
REMARK                         _______ _______ _______ _____ _____    ______ ____
ROOT
ATOM      3  N   UNL     1      -4.748 -11.624  17.444  0.00  0.00    -0.297 NA
ATOM      5  C   UNL     1      -6.452 -10.561  18.655  0.00  0.00    +0.060 C 
ATOM      6  C   UNL     1      -5.917 -11.757  19.461  0.00  0.00    +0.027 C 
ATOM      7  C   UNL     1      -5.933 -10.789  17.229  0.00  0.00    +0.095 C 
ATOM      8  C   UNL     1      -5.155 -12.604  18.451  0.00  0.00    +0.085 C 
ENDROOT
BRANCH   5  10
ATOM      1  S   UNL     1      -8.726  -9.469  17.488  0.00  0.00    -0.072 S 
ATOM      4  N   UNL     1      -8.723 -10.869  19.654  0.00  0.00    -0.244 NA
ATOM     10  C   UNL     1      -7.951 -10.376  18.713  0.00  0.00    +0.084 A 
ATOM     12  C   UNL     1     -10.244  -9.742  18.260  0.00  0.00    +0.039 A 
ATOM     13  C   UNL     1     -10.041 -10.513  19.408  0.00  0.00    +0.078 A 
ATOM     16  C   UNL     1     -11.522  -9.304  17.877  0.00  0.00    +0.017 A 
ATOM     17  C   UNL     1     -11.157 -10.858  20.199  0.00  0.00    +0.029 A 
ATOM     20  C   UNL     1     -12.610  -9.659  18.678  0.00  0.00    +0.001 A 
ATOM     21  C   UNL     1     -12.433 -10.426  19.824  0.00  0.00    +0.002 A 
ENDBRANCH   5  10
BRANCH   3   9
ATOM      9  C   UNL     1      -4.280 -12.251  16.218  0.00  0.00    +0.122 C 
BRANCH   9  11
ATOM      2  F   UNL     1      -4.297 -11.726  13.433  0.00  0.00    -0.205 F 
ATOM     11  C   UNL     1      -3.227 -11.423  15.530  0.00  0.00    +0.002 A 
ATOM     14  C   UNL     1      -3.295 -11.204  14.155  0.00  0.00    +0.128 A 
ATOM     15  C   UNL     1      -2.181 -10.875  16.273  0.00  0.00    +0.008 A 
ATOM     18  C   UNL     1      -2.319 -10.436  13.521  0.00  0.00    +0.038 A 
ATOM     19  C   UNL     1      -1.204 -10.106  15.639  0.00  0.00    +0.000 A 
ATOM     22  C   UNL     1      -1.273  -9.887  14.264  0.00  0.00    +0.003 A 
ENDBRANCH   9  11
ENDBRANCH   3   9
TORSDOF 3
ENDMDL
MODEL 7
REMARK VINA RESULT:      -6.2     27.500     31.528
REMARK  Name = 51137077
REMARK  3 active torsions:
REMARK  status: ('A' for Active; 'I' for Inactive)
REMARK    1  A    between atoms: N_3  and  C_9
REMARK    2  A    between atoms: C_5  and  C_10
REMARK    3  A    between atoms: C_9  and  C_11
REMARK                            x       y       z     vdW  Elec       q    Type
REMARK                         _______ _______ _______ _____ _____    ______ ____
ROOT
ATOM      3  N   UNL     1     -13.220   7.614  20.708  0.00  0.00    -0.297 NA
ATOM      5  C   UNL     1     -15.023   6.174  21.128  0.00  0.00    +0.060 C 
ATOM      6  C   UNL     1     -15.442   7.624  21.426  0.00  0.00    +0.027 C 
ATOM      7  C   UNL     1     -13.490   6.218  21.061  0.00  0.00    +0.095 C 
ATOM      8  C   UNL     1     -14.135   8.397  21.539  0.00  0.00    +0.085 C 
ENDROOT
BRANCH   5  10
ATOM      1  S   UNL     1     -14.697   4.903  23.578  0.00  0.00    -0.072 S 
ATOM      4  N   UNL     1     -16.613   4.416  21.921  0.00  0.00    -0.244 NA
ATOM     10  C   UNL     1     -15.540   5.149  22.111  0.00  0.00    +0.084 A 
ATOM     12  C   UNL     1     -15.851   3.704  24.029  0.00  0.00    +0.039 A 
ATOM     13  C   UNL     1     -16.804   3.582  23.012  0.00  0.00    +0.078 A 
ATOM     16  C   UNL     1     -15.909   2.927  25.197  0.00  0.00    +0.017 A 
ATOM     17  C   UNL     1     -17.851   2.650  23.174  0.00  0.00    +0.029 A 
ATOM     20  C   UNL     1     -16.956   2.012  25.331  0.00  0.00    +0.001 A 
ATOM     21  C   UNL     1     -17.915   1.873  24.334  0.00  0.00    +0.002 A 
ENDBRANCH   5  10
BRANCH   3   9
ATOM      9  C   UNL     1     -11.828   7.981  20.919  0.00  0.00    +0.122 C 
BRANCH   9  11
ATOM      2  F   UNL     1     -11.262   6.538  18.547  0.00  0.00    -0.205 F 
ATOM     11  C   UNL     1     -11.223   8.616  19.694  0.00  0.00    +0.002 A 
ATOM     14  C   UNL     1     -10.969   7.846  18.559  0.00  0.00    +0.128 A 
ATOM     15  C   UNL     1     -10.916   9.976  19.698  0.00  0.00    +0.008 A 
ATOM     18  C   UNL     1     -10.410   8.437  17.427  0.00  0.00    +0.038 A 
ATOM     19  C   UNL     1     -10.356  10.567  18.565  0.00  0.00    +0.000 A 
ATOM     22  C   UNL     1     -10.103   9.798  17.430  0.00  0.00    +0.003 A 
ENDBRANCH   9  11
ENDBRANCH   3   9
TORSDOF 3
ENDMDL
MODEL 8
REMARK VINA RESULT:      -6.2     27.002     28.790
REMARK  Name = 51137077
REMARK  3 active torsions:
REMARK  status: ('A' for Active; 'I' for Inactive)
REMARK    1  A    between atoms: N_3  and  C_9
REMARK    2  A    between atoms: C_5  and  C_10
REMARK    3  A    between atoms: C_9  and  C_11
REMARK                            x       y       z     vdW  Elec       q    Type
REMARK                         _______ _______ _______ _____ _____    ______ ____
ROOT
ATOM      3  N   UNL     1      -9.444  -9.185  16.815  0.00  0.00    -0.297 NA
ATOM      5  C   UNL     1     -11.002  -7.437  16.688  0.00  0.00    +0.060 C 
ATOM      6  C   UNL     1     -11.656  -8.663  17.350  0.00  0.00    +0.027 C 
ATOM      7  C   UNL     1      -9.731  -7.985  16.026  0.00  0.00    +0.095 C 
ATOM      8  C   UNL     1     -10.743  -9.832  17.004  0.00  0.00    +0.085 C 
ENDROOT
BRANCH   5  10
ATOM      1  S   UNL     1     -13.572  -7.005  15.723  0.00  0.00    -0.072 S 
ATOM      4  N   UNL     1     -11.465  -5.786  14.870  0.00  0.00    -0.244 NA
ATOM     10  C   UNL     1     -11.892  -6.686  15.725  0.00  0.00    +0.084 A 
ATOM     12  C   UNL     1     -13.781  -5.843  14.466  0.00  0.00    +0.039 A 
ATOM     13  C   UNL     1     -12.537  -5.293  14.140  0.00  0.00    +0.078 A 
ATOM     16  C   UNL     1     -14.960  -5.446  13.815  0.00  0.00    +0.017 A 
ATOM     17  C   UNL     1     -12.473  -4.313  13.127  0.00  0.00    +0.029 A 
ATOM     20  C   UNL     1     -14.869  -4.474  12.816  0.00  0.00    +0.001 A 
ATOM     21  C   UNL     1     -13.643  -3.913  12.474  0.00  0.00    +0.002 A 
ENDBRANCH   5  10
BRANCH   3   9
ATOM      9  C   UNL     1      -8.480 -10.060  16.165  0.00  0.00    +0.122 C 
BRANCH   9  11
ATOM      2  F   UNL     1      -5.823  -9.538  15.331  0.00  0.00    -0.205 F 
ATOM     11  C   UNL     1      -7.279 -10.317  17.036  0.00  0.00    +0.002 A 
ATOM     14  C   UNL     1      -5.997 -10.038  16.563  0.00  0.00    +0.128 A 
ATOM     15  C   UNL     1      -7.451 -10.836  18.320  0.00  0.00    +0.008 A 
ATOM     18  C   UNL     1      -4.887 -10.276  17.372  0.00  0.00    +0.038 A 
ATOM     19  C   UNL     1      -6.340 -11.074  19.130  0.00  0.00    +0.000 A 
ATOM     22  C   UNL     1      -5.059 -10.794  18.656  0.00  0.00    +0.003 A 
ENDBRANCH   9  11
ENDBRANCH   3   9
TORSDOF 3
ENDMDL
MODEL 9
REMARK VINA RESULT:      -6.1     24.194     27.431
REMARK  Name = 51137077
REMARK  3 active torsions:
REMARK  status: ('A' for Active; 'I' for Inactive)
REMARK    1  A    between atoms: N_3  and  C_9
REMARK    2  A    between atoms: C_5  and  C_10
REMARK    3  A    between atoms: C_9  and  C_11
REMARK                            x       y       z     vdW  Elec       q    Type
REMARK                         _______ _______ _______ _____ _____    ______ ____
ROOT
ATOM      3  N   UNL     1      -6.069 -10.646  16.720  0.00  0.00    -0.297 NA
ATOM      5  C   UNL     1      -7.790  -9.216  17.422  0.00  0.00    +0.060 C 
ATOM      6  C   UNL     1      -7.659 -10.387  18.411  0.00  0.00    +0.027 C 
ATOM      7  C   UNL     1      -7.017  -9.670  16.176  0.00  0.00    +0.095 C 
ATOM      8  C   UNL     1      -6.850 -11.442  17.667  0.00  0.00    +0.085 C 
ENDROOT
BRANCH   5  10
ATOM      1  S   UNL     1     -10.478  -9.922  17.369  0.00  0.00    -0.072 S 
ATOM      4  N   UNL     1      -9.556  -7.621  16.657  0.00  0.00    -0.244 NA
ATOM     10  C   UNL     1      -9.211  -8.802  17.114  0.00  0.00    +0.084 A 
ATOM     12  C   UNL     1     -11.615  -8.746  16.823  0.00  0.00    +0.039 A 
ATOM     13  C   UNL     1     -10.932  -7.573  16.483  0.00  0.00    +0.078 A 
ATOM     16  C   UNL     1     -13.009  -8.852  16.703  0.00  0.00    +0.017 A 
ATOM     17  C   UNL     1     -11.673  -6.471  16.008  0.00  0.00    +0.029 A 
ATOM     20  C   UNL     1     -13.719  -7.746  16.229  0.00  0.00    +0.001 A 
ATOM     21  C   UNL     1     -13.062  -6.570  15.886  0.00  0.00    +0.002 A 
ENDBRANCH   5  10
BRANCH   3   9
ATOM      9  C   UNL     1      -5.457 -11.463  15.683  0.00  0.00    +0.122 C 
BRANCH   9  11
ATOM      2  F   UNL     1      -4.474 -10.836  13.100  0.00  0.00    -0.205 F 
ATOM     11  C   UNL     1      -4.029 -11.061  15.421  0.00  0.00    +0.002 A 
ATOM     14  C   UNL     1      -3.611 -10.766  14.124  0.00  0.00    +0.128 A 
ATOM     15  C   UNL     1      -3.125 -10.984  16.481  0.00  0.00    +0.008 A 
ATOM     18  C   UNL     1      -2.288 -10.393  13.886  0.00  0.00    +0.038 A 
ATOM     19  C   UNL     1      -1.802 -10.612  16.242  0.00  0.00    +0.000 A 
ATOM     22  C   UNL     1      -1.384 -10.316  14.945  0.00  0.00    +0.003 A 
ENDBRANCH   9  11
ENDBRANCH   3   9
TORSDOF 3
ENDMDL
MODEL 10
REMARK VINA RESULT:      -6.1     24.206     28.429
REMARK  Name = 51137077
REMARK  3 active torsions:
REMARK  status: ('A' for Active; 'I' for Inactive)
REMARK    1  A    between atoms: N_3  and  C_9
REMARK    2  A    between atoms: C_5  and  C_10
REMARK    3  A    between atoms: C_9  and  C_11
REMARK                            x       y       z     vdW  Elec       q    Type
REMARK                         _______ _______ _______ _____ _____    ______ ____
ROOT
ATOM      3  N   UNL     1      -6.396 -11.354  18.054  0.00  0.00    -0.297 NA
ATOM      5  C   UNL     1      -4.833 -11.845  16.377  0.00  0.00    +0.060 C 
ATOM      6  C   UNL     1      -4.099 -11.350  17.635  0.00  0.00    +0.027 C 
ATOM      7  C   UNL     1      -6.297 -11.441  16.595  0.00  0.00    +0.095 C 
ATOM      8  C   UNL     1      -5.173 -10.672  18.476  0.00  0.00    +0.085 C 
ENDROOT
BRANCH   5  10
ATOM      1  S   UNL     1      -2.574 -11.342  14.837  0.00  0.00    -0.072 S 
ATOM      4  N   UNL     1      -4.994 -10.876  14.079  0.00  0.00    -0.244 NA
ATOM     10  C   UNL     1      -4.268 -11.335  15.071  0.00  0.00    +0.084 A 
ATOM     12  C   UNL     1      -2.798 -10.671  13.265  0.00  0.00    +0.039 A 
ATOM     13  C   UNL     1      -4.166 -10.491  13.035  0.00  0.00    +0.078 A 
ATOM     16  C   UNL     1      -1.834 -10.328  12.304  0.00  0.00    +0.017 A 
ATOM     17  C   UNL     1      -4.580  -9.949  11.800  0.00  0.00    +0.029 A 
ATOM     20  C   UNL     1      -2.270  -9.794  11.089  0.00  0.00    +0.001 A 
ATOM     21  C   UNL     1      -3.626  -9.605  10.838  0.00  0.00    +0.002 A 
ENDBRANCH   5  10
BRANCH   3   9
ATOM      9  C   UNL     1      -7.597 -10.657  18.488  0.00  0.00    +0.122 C 
BRANCH   9  11
ATOM      2  F   UNL     1     -10.219  -9.896  19.249  0.00  0.00    -0.205 F 
ATOM     11  C   UNL     1      -8.532 -11.566  19.243  0.00  0.00    +0.002 A 
ATOM     14  C   UNL     1      -9.810 -11.127  19.587  0.00  0.00    +0.128 A 
ATOM     15  C   UNL     1      -8.115 -12.849  19.597  0.00  0.00    +0.008 A 
ATOM     18  C   UNL     1     -10.673 -11.971  20.285  0.00  0.00    +0.038 A 
ATOM     19  C   UNL     1      -8.979 -13.694  20.296  0.00  0.00    +0.000 A 
ATOM     22  C   UNL     1     -10.257 -13.255  20.639  0.00  0.00    +0.003 A 
ENDBRANCH   9  11
ENDBRANCH   3   9
TORSDOF 3
ENDMDL
