MODEL 1
REMARK VINA RESULT:      -7.7      0.000      0.000
REMARK  Name = 11939798
REMARK  8 active torsions:
REMARK  status: ('A' for Active; 'I' for Inactive)
REMARK    1  A    between atoms: N_4  and  C_12
REMARK    2  A    between atoms: N_5  and  C_13
REMARK    3  A    between atoms: N_8  and  C_26
REMARK    4  A    between atoms: N_8  and  C_30
REMARK    5  A    between atoms: N_8  and  C_31
REMARK    6  A    between atoms: C_16  and  C_18
REMARK    7  A    between atoms: C_21  and  C_27
REMARK    8  A    between atoms: C_32  and  C_35
REMARK                            x       y       z     vdW  Elec       q    Type
REMARK                         _______ _______ _______ _____ _____    ______ ____
ROOT
ATOM      1  O   UNL     1     -15.886   3.100  24.764  0.00  0.00    -0.370 OA
ATOM      2  O   UNL     1     -18.622   4.553  24.617  0.00  0.00    -0.370 OA
ATOM     10  C   UNL     1     -17.296   4.928  24.204  0.00  0.00    +0.171 C 
ATOM     11  C   UNL     1     -16.333   4.382  25.239  0.00  0.00    +0.171 C 
ATOM     12  C   UNL     1     -16.918   4.207  22.929  0.00  0.00    +0.130 C 
ATOM     13  C   UNL     1     -17.182   4.212  26.477  0.00  0.00    +0.130 C 
ATOM     14  C   UNL     1     -16.439   2.864  23.460  0.00  0.00    +0.185 C 
ATOM     15  C   UNL     1     -18.554   3.914  25.900  0.00  0.00    +0.185 C 
ENDROOT
BRANCH  13   5
ATOM      5  N   UNL     1     -17.212   5.446  27.231  0.00  0.00    -0.306 N 
ATOM      6  N   UNL     1     -16.401   4.410  29.173  0.00  0.00    -0.214 NA
ATOM      7  N   UNL     1     -16.902   6.766  29.145  0.00  0.00    -0.223 NA
ATOM     17  C   UNL     1     -16.827   5.543  28.556  0.00  0.00    +0.216 A 
ATOM     21  C   UNL     1     -16.034   4.540  30.465  0.00  0.00    +0.076 A 
ATOM     22  C   UNL     1     -16.520   6.824  30.438  0.00  0.00    +0.116 A 
ATOM     23  C   UNL     1     -16.072   5.735  31.155  0.00  0.00    +0.048 A 
ATOM     37  H   UNL     1     -17.477   6.307  26.766  0.00  0.00    +0.149 HD
BRANCH  21  27
ATOM     27  C   UNL     1     -15.584   3.325  31.101  0.00  0.00    +0.002 A 
ATOM     28  C   UNL     1     -15.181   2.235  30.326  0.00  0.00    +0.029 A 
ATOM     29  C   UNL     1     -15.552   3.234  32.494  0.00  0.00    +0.010 A 
ATOM     32  C   UNL     1     -14.746   1.061  30.942  0.00  0.00    +0.052 A 
ATOM     33  C   UNL     1     -15.118   2.060  33.109  0.00  0.00    +0.002 A 
ATOM     34  C   UNL     1     -14.715   0.974  32.333  0.00  0.00    +0.019 A 
BRANCH  32  35
ATOM      9  N   UNL     1     -13.999  -0.958  29.501  0.00  0.00    -0.191 NA
ATOM     35  C   UNL     1     -14.333  -0.053  30.147  0.00  0.00    +0.099 C 
ENDBRANCH  32  35
ENDBRANCH  21  27
ENDBRANCH  13   5
BRANCH  12   4
ATOM      3  O   UNL     1     -17.086   6.592  21.319  0.00  0.00    -0.270 OA
ATOM      4  N   UNL     1     -15.817   4.893  22.258  0.00  0.00    -0.304 N 
ATOM     16  C   UNL     1     -16.003   6.042  21.502  0.00  0.00    +0.244 C 
ATOM     36  H   UNL     1     -14.914   4.432  22.273  0.00  0.00    +0.149 HD
BRANCH  16  18
ATOM     18  C   UNL     1     -14.786   6.605  20.862  0.00  0.00    +0.037 A 
ATOM     19  C   UNL     1     -13.559   6.385  21.453  0.00  0.00    +0.015 A 
ATOM     20  C   UNL     1     -14.922   7.333  19.697  0.00  0.00    +0.015 A 
ATOM     24  C   UNL     1     -12.418   6.914  20.852  0.00  0.00    +0.024 A 
ATOM     25  C   UNL     1     -13.780   7.863  19.098  0.00  0.00    +0.024 A 
ATOM     26  C   UNL     1     -12.528   7.654  19.675  0.00  0.00    +0.029 A 
BRANCH  26   8
ATOM      8  N   UNL     1     -11.373   8.191  19.068  0.00  0.00    -0.336 N 
ATOM     30  C   UNL     1     -10.655   9.283  19.695  0.00  0.00    +0.129 C 
ATOM     31  C   UNL     1     -10.896   7.667  17.805  0.00  0.00    +0.129 C 
ENDBRANCH  26   8
ENDBRANCH  16  18
ENDBRANCH  12   4
TORSDOF 6
ENDMDL
MODEL 2
REMARK VINA RESULT:      -7.6     21.771     24.422
REMARK  Name = 11939798
REMARK  8 active torsions:
REMARK  status: ('A' for Active; 'I' for Inactive)
REMARK    1  A    between atoms: N_4  and  C_12
REMARK    2  A    between atoms: N_5  and  C_13
REMARK    3  A    between atoms: N_8  and  C_26
REMARK    4  A    between atoms: N_8  and  C_30
REMARK    5  A    between atoms: N_8  and  C_31
REMARK    6  A    between atoms: C_16  and  C_18
REMARK    7  A    between atoms: C_21  and  C_27
REMARK    8  A    between atoms: C_32  and  C_35
REMARK                            x       y       z     vdW  Elec       q    Type
REMARK                         _______ _______ _______ _____ _____    ______ ____
ROOT
ATOM      1  O   UNL     1      -6.415 -11.489  10.271  0.00  0.00    -0.370 OA
ATOM      2  O   UNL     1      -5.180  -8.665  10.610  0.00  0.00    -0.370 OA
ATOM     10  C   UNL     1      -4.867  -9.766   9.739  0.00  0.00    +0.171 C 
ATOM     11  C   UNL     1      -5.074 -11.039  10.536  0.00  0.00    +0.171 C 
ATOM     12  C   UNL     1      -5.884  -9.858   8.622  0.00  0.00    +0.130 C 
ATOM     13  C   UNL     1      -4.947 -10.597  11.974  0.00  0.00    +0.130 C 
ATOM     14  C   UNL     1      -7.013 -10.627   9.291  0.00  0.00    +0.185 C 
ATOM     15  C   UNL     1      -5.451  -9.166  11.927  0.00  0.00    +0.185 C 
ENDROOT
BRANCH  13   5
ATOM      5  N   UNL     1      -3.559 -10.628  12.382  0.00  0.00    -0.306 N 
ATOM      6  N   UNL     1      -4.113 -10.607  14.661  0.00  0.00    -0.214 NA
ATOM      7  N   UNL     1      -1.813 -10.667  13.947  0.00  0.00    -0.223 NA
ATOM     17  C   UNL     1      -3.149 -10.634  13.703  0.00  0.00    +0.216 A 
ATOM     21  C   UNL     1      -3.678 -10.614  15.939  0.00  0.00    +0.076 A 
ATOM     22  C   UNL     1      -1.449 -10.671  15.247  0.00  0.00    +0.116 A 
ATOM     23  C   UNL     1      -2.345 -10.646  16.294  0.00  0.00    +0.048 A 
ATOM     37  H   UNL     1      -2.835 -10.702  11.676  0.00  0.00    +0.149 HD
BRANCH  21  27
ATOM     27  C   UNL     1      -4.717 -10.586  16.941  0.00  0.00    +0.002 A 
ATOM     28  C   UNL     1      -5.916  -9.915  16.690  0.00  0.00    +0.029 A 
ATOM     29  C   UNL     1      -4.526 -11.230  18.165  0.00  0.00    +0.010 A 
ATOM     32  C   UNL     1      -6.920  -9.890  17.659  0.00  0.00    +0.052 A 
ATOM     33  C   UNL     1      -5.530 -11.204  19.134  0.00  0.00    +0.002 A 
ATOM     34  C   UNL     1      -6.726 -10.533  18.880  0.00  0.00    +0.019 A 
BRANCH  32  35
ATOM      9  N   UNL     1      -9.142  -8.644  17.191  0.00  0.00    -0.191 NA
ATOM     35  C   UNL     1      -8.146  -9.203  17.401  0.00  0.00    +0.099 C 
ENDBRANCH  32  35
ENDBRANCH  21  27
ENDBRANCH  13   5
BRANCH  12   4
ATOM      3  O   UNL     1      -6.760  -9.774   5.877  0.00  0.00    -0.270 OA
ATOM      4  N   UNL     1      -5.351 -10.636   7.506  0.00  0.00    -0.304 N 
ATOM     16  C   UNL     1      -5.845 -10.522   6.214  0.00  0.00    +0.244 C 
ATOM     36  H   UNL     1      -4.672 -11.354   7.732  0.00  0.00    +0.149 HD
BRANCH  16  18
ATOM     18  C   UNL     1      -5.214 -11.401   5.195  0.00  0.00    +0.037 A 
ATOM     19  C   UNL     1      -3.948 -11.894   5.433  0.00  0.00    +0.015 A 
ATOM     20  C   UNL     1      -5.914 -11.694   4.043  0.00  0.00    +0.015 A 
ATOM     24  C   UNL     1      -3.356 -12.718   4.477  0.00  0.00    +0.024 A 
ATOM     25  C   UNL     1      -5.321 -12.518   3.086  0.00  0.00    +0.024 A 
ATOM     26  C   UNL     1      -4.043 -13.029   3.303  0.00  0.00    +0.029 A 
BRANCH  26   8
ATOM      8  N   UNL     1      -3.443 -13.862   2.334  0.00  0.00    -0.336 N 
ATOM     30  C   UNL     1      -3.155 -13.355   1.008  0.00  0.00    +0.129 C 
ATOM     31  C   UNL     1      -3.119 -15.239   2.649  0.00  0.00    +0.129 C 
ENDBRANCH  26   8
ENDBRANCH  16  18
ENDBRANCH  12   4
TORSDOF 6
ENDMDL
MODEL 3
REMARK VINA RESULT:      -7.1     22.823     25.421
REMARK  Name = 11939798
REMARK  8 active torsions:
REMARK  status: ('A' for Active; 'I' for Inactive)
REMARK    1  A    between atoms: N_4  and  C_12
REMARK    2  A    between atoms: N_5  and  C_13
REMARK    3  A    between atoms: N_8  and  C_26
REMARK    4  A    between atoms: N_8  and  C_30
REMARK    5  A    between atoms: N_8  and  C_31
REMARK    6  A    between atoms: C_16  and  C_18
REMARK    7  A    between atoms: C_21  and  C_27
REMARK    8  A    between atoms: C_32  and  C_35
REMARK                            x       y       z     vdW  Elec       q    Type
REMARK                         _______ _______ _______ _____ _____    ______ ____
ROOT
ATOM      1  O   UNL     1      -5.527 -12.215  10.192  0.00  0.00    -0.370 OA
ATOM      2  O   UNL     1      -5.030  -9.155  10.145  0.00  0.00    -0.370 OA
ATOM     10  C   UNL     1      -4.375 -10.258   9.495  0.00  0.00    +0.171 C 
ATOM     11  C   UNL     1      -4.366 -11.414  10.475  0.00  0.00    +0.171 C 
ATOM     12  C   UNL     1      -5.212 -10.758   8.338  0.00  0.00    +0.130 C 
ATOM     13  C   UNL     1      -4.506 -10.752  11.825  0.00  0.00    +0.130 C 
ATOM     14  C   UNL     1      -6.197 -11.679   9.041  0.00  0.00    +0.185 C 
ATOM     15  C   UNL     1      -5.321  -9.512  11.504  0.00  0.00    +0.185 C 
ENDROOT
BRANCH  13   5
ATOM      5  N   UNL     1      -3.204 -10.379  12.332  0.00  0.00    -0.306 N 
ATOM      6  N   UNL     1      -3.774 -10.953  14.534  0.00  0.00    -0.214 NA
ATOM      7  N   UNL     1      -1.585 -10.096  14.006  0.00  0.00    -0.223 NA
ATOM     17  C   UNL     1      -2.843 -10.479  13.664  0.00  0.00    +0.216 A 
ATOM     21  C   UNL     1      -3.389 -11.037  15.825  0.00  0.00    +0.076 A 
ATOM     22  C   UNL     1      -1.268 -10.207  15.313  0.00  0.00    +0.116 A 
ATOM     23  C   UNL     1      -2.136 -10.675  16.276  0.00  0.00    +0.048 A 
ATOM     37  H   UNL     1      -2.486 -10.075  11.684  0.00  0.00    +0.149 HD
BRANCH  21  27
ATOM     27  C   UNL     1      -4.391 -11.544  16.732  0.00  0.00    +0.002 A 
ATOM     28  C   UNL     1      -5.152 -12.663  16.384  0.00  0.00    +0.029 A 
ATOM     29  C   UNL     1      -4.605 -10.916  17.961  0.00  0.00    +0.010 A 
ATOM     32  C   UNL     1      -6.119 -13.152  17.262  0.00  0.00    +0.052 A 
ATOM     33  C   UNL     1      -5.573 -11.405  18.838  0.00  0.00    +0.002 A 
ATOM     34  C   UNL     1      -6.330 -12.523  18.488  0.00  0.00    +0.019 A 
BRANCH  32  35
ATOM      9  N   UNL     1      -7.527 -15.228  16.613  0.00  0.00    -0.191 NA
ATOM     35  C   UNL     1      -6.896 -14.297  16.905  0.00  0.00    +0.099 C 
ENDBRANCH  32  35
ENDBRANCH  21  27
ENDBRANCH  13   5
BRANCH  12   4
ATOM      3  O   UNL     1      -5.511 -10.910   5.475  0.00  0.00    -0.270 OA
ATOM      4  N   UNL     1      -4.392 -11.532   7.409  0.00  0.00    -0.304 N 
ATOM     16  C   UNL     1      -4.619 -11.538   6.039  0.00  0.00    +0.244 C 
ATOM     36  H   UNL     1      -3.709 -12.161   7.816  0.00  0.00    +0.149 HD
BRANCH  16  18
ATOM     18  C   UNL     1      -3.714 -12.397   5.232  0.00  0.00    +0.037 A 
ATOM     19  C   UNL     1      -2.916 -13.317   5.880  0.00  0.00    +0.015 A 
ATOM     20  C   UNL     1      -3.700 -12.245   3.861  0.00  0.00    +0.015 A 
ATOM     24  C   UNL     1      -2.066 -14.122   5.122  0.00  0.00    +0.024 A 
ATOM     25  C   UNL     1      -2.849 -13.051   3.104  0.00  0.00    +0.024 A 
ATOM     26  C   UNL     1      -2.032 -13.988   3.734  0.00  0.00    +0.029 A 
BRANCH  26   8
ATOM      8  N   UNL     1      -1.171 -14.802   2.967  0.00  0.00    -0.336 N 
ATOM     30  C   UNL     1      -1.106 -16.230   3.206  0.00  0.00    +0.129 C 
ATOM     31  C   UNL     1      -0.332 -14.219   1.940  0.00  0.00    +0.129 C 
ENDBRANCH  26   8
ENDBRANCH  16  18
ENDBRANCH  12   4
TORSDOF 6
ENDMDL
MODEL 4
REMARK VINA RESULT:      -7.0      8.215     10.674
REMARK  Name = 11939798
REMARK  8 active torsions:
REMARK  status: ('A' for Active; 'I' for Inactive)
REMARK    1  A    between atoms: N_4  and  C_12
REMARK    2  A    between atoms: N_5  and  C_13
REMARK    3  A    between atoms: N_8  and  C_26
REMARK    4  A    between atoms: N_8  and  C_30
REMARK    5  A    between atoms: N_8  and  C_31
REMARK    6  A    between atoms: C_16  and  C_18
REMARK    7  A    between atoms: C_21  and  C_27
REMARK    8  A    between atoms: C_32  and  C_35
REMARK                            x       y       z     vdW  Elec       q    Type
REMARK                         _______ _______ _______ _____ _____    ______ ____
ROOT
ATOM      1  O   UNL     1     -11.557   9.263  30.641  0.00  0.00    -0.370 OA
ATOM      2  O   UNL     1     -13.700  10.611  32.431  0.00  0.00    -0.370 OA
ATOM     10  C   UNL     1     -12.276  10.455  32.566  0.00  0.00    +0.171 C 
ATOM     11  C   UNL     1     -11.923   9.085  32.022  0.00  0.00    +0.171 C 
ATOM     12  C   UNL     1     -11.553  11.417  31.650  0.00  0.00    +0.130 C 
ATOM     13  C   UNL     1     -13.212   8.306  32.123  0.00  0.00    +0.130 C 
ATOM     14  C   UNL     1     -11.572  10.664  30.329  0.00  0.00    +0.185 C 
ATOM     15  C   UNL     1     -14.267   9.384  31.950  0.00  0.00    +0.185 C 
ENDROOT
BRANCH  13   5
ATOM      5  N   UNL     1     -13.324   7.700  33.432  0.00  0.00    -0.306 N 
ATOM      6  N   UNL     1     -14.144   5.686  32.552  0.00  0.00    -0.214 NA
ATOM      7  N   UNL     1     -13.834   5.964  34.925  0.00  0.00    -0.223 NA
ATOM     17  C   UNL     1     -13.781   6.411  33.643  0.00  0.00    +0.216 A 
ATOM     21  C   UNL     1     -14.586   4.433  32.794  0.00  0.00    +0.076 A 
ATOM     22  C   UNL     1     -14.285   4.703  35.094  0.00  0.00    +0.116 A 
ATOM     23  C   UNL     1     -14.678   3.884  34.056  0.00  0.00    +0.048 A 
ATOM     37  H   UNL     1     -13.006   8.213  34.246  0.00  0.00    +0.149 HD
BRANCH  21  27
ATOM     27  C   UNL     1     -14.965   3.680  31.623  0.00  0.00    +0.002 A 
ATOM     28  C   UNL     1     -14.965   2.284  31.655  0.00  0.00    +0.029 A 
ATOM     29  C   UNL     1     -15.332   4.346  30.451  0.00  0.00    +0.010 A 
ATOM     32  C   UNL     1     -15.333   1.557  30.523  0.00  0.00    +0.052 A 
ATOM     33  C   UNL     1     -15.699   3.618  29.318  0.00  0.00    +0.002 A 
ATOM     34  C   UNL     1     -15.699   2.224  29.355  0.00  0.00    +0.019 A 
BRANCH  32  35
ATOM      9  N   UNL     1     -15.333  -1.033  30.589  0.00  0.00    -0.191 NA
ATOM     35  C   UNL     1     -15.333   0.128  30.558  0.00  0.00    +0.099 C 
ENDBRANCH  32  35
ENDBRANCH  21  27
ENDBRANCH  13   5
BRANCH  12   4
ATOM      3  O   UNL     1      -9.796  13.597  30.964  0.00  0.00    -0.270 OA
ATOM      4  N   UNL     1     -10.172  11.605  32.090  0.00  0.00    -0.304 N 
ATOM     16  C   UNL     1      -9.406  12.695  31.701  0.00  0.00    +0.244 C 
ATOM     36  H   UNL     1      -9.750  10.843  32.608  0.00  0.00    +0.149 HD
BRANCH  16  18
ATOM     18  C   UNL     1      -8.012  12.728  32.212  0.00  0.00    +0.037 A 
ATOM     19  C   UNL     1      -7.784  12.453  33.545  0.00  0.00    +0.015 A 
ATOM     20  C   UNL     1      -6.989  13.034  31.339  0.00  0.00    +0.015 A 
ATOM     24  C   UNL     1      -6.476  12.485  34.025  0.00  0.00    +0.024 A 
ATOM     25  C   UNL     1      -5.680  13.066  31.820  0.00  0.00    +0.024 A 
ATOM     26  C   UNL     1      -5.423  12.792  33.162  0.00  0.00    +0.029 A 
BRANCH  26   8
ATOM      8  N   UNL     1      -4.099  12.825  33.649  0.00  0.00    -0.336 N 
ATOM     30  C   UNL     1      -3.076  13.566  32.939  0.00  0.00    +0.129 C 
ATOM     31  C   UNL     1      -3.742  12.109  34.857  0.00  0.00    +0.129 C 
ENDBRANCH  26   8
ENDBRANCH  16  18
ENDBRANCH  12   4
TORSDOF 6
ENDMDL
MODEL 5
REMARK VINA RESULT:      -6.9     19.215     22.153
REMARK  Name = 11939798
REMARK  8 active torsions:
REMARK  status: ('A' for Active; 'I' for Inactive)
REMARK    1  A    between atoms: N_4  and  C_12
REMARK    2  A    between atoms: N_5  and  C_13
REMARK    3  A    between atoms: N_8  and  C_26
REMARK    4  A    between atoms: N_8  and  C_30
REMARK    5  A    between atoms: N_8  and  C_31
REMARK    6  A    between atoms: C_16  and  C_18
REMARK    7  A    between atoms: C_21  and  C_27
REMARK    8  A    between atoms: C_32  and  C_35
REMARK                            x       y       z     vdW  Elec       q    Type
REMARK                         _______ _______ _______ _____ _____    ______ ____
ROOT
ATOM      1  O   UNL     1      -7.479 -12.315  17.498  0.00  0.00    -0.370 OA
ATOM      2  O   UNL     1      -5.986 -10.893  19.814  0.00  0.00    -0.370 OA
ATOM     10  C   UNL     1      -6.780 -10.402  18.720  0.00  0.00    +0.171 C 
ATOM     11  C   UNL     1      -6.481 -11.279  17.520  0.00  0.00    +0.171 C 
ATOM     12  C   UNL     1      -8.250 -10.632  18.991  0.00  0.00    +0.130 C 
ATOM     13  C   UNL     1      -5.125 -11.869  17.825  0.00  0.00    +0.130 C 
ATOM     14  C   UNL     1      -8.426 -12.077  18.550  0.00  0.00    +0.185 C 
ATOM     15  C   UNL     1      -5.127 -11.942  19.341  0.00  0.00    +0.185 C 
ENDROOT
BRANCH  13   5
ATOM      5  N   UNL     1      -4.082 -10.977  17.367  0.00  0.00    -0.306 N 
ATOM      6  N   UNL     1      -3.536 -12.365  15.557  0.00  0.00    -0.214 NA
ATOM      7  N   UNL     1      -2.357 -10.297  15.930  0.00  0.00    -0.223 NA
ATOM     17  C   UNL     1      -3.301 -11.221  16.251  0.00  0.00    +0.216 A 
ATOM     21  C   UNL     1      -2.756 -12.572  14.474  0.00  0.00    +0.076 A 
ATOM     22  C   UNL     1      -1.614 -10.567  14.836  0.00  0.00    +0.116 A 
ATOM     23  C   UNL     1      -1.771 -11.698  14.062  0.00  0.00    +0.048 A 
ATOM     37  H   UNL     1      -3.935 -10.096  17.847  0.00  0.00    +0.149 HD
BRANCH  21  27
ATOM     27  C   UNL     1      -3.022 -13.792  13.751  0.00  0.00    +0.002 A 
ATOM     28  C   UNL     1      -1.990 -14.446  13.074  0.00  0.00    +0.029 A 
ATOM     29  C   UNL     1      -4.314 -14.322  13.724  0.00  0.00    +0.010 A 
ATOM     32  C   UNL     1      -2.248 -15.626  12.376  0.00  0.00    +0.052 A 
ATOM     33  C   UNL     1      -4.572 -15.502  13.025  0.00  0.00    +0.002 A 
ATOM     34  C   UNL     1      -3.539 -16.153  12.351  0.00  0.00    +0.019 A 
BRANCH  32  35
ATOM      9  N   UNL     1      -0.333 -16.837  11.120  0.00  0.00    -0.191 NA
ATOM     35  C   UNL     1      -1.191 -16.294  11.684  0.00  0.00    +0.099 C 
ENDBRANCH  32  35
ENDBRANCH  21  27
ENDBRANCH  13   5
BRANCH  12   4
ATOM      3  O   UNL     1     -11.016  -9.932  19.405  0.00  0.00    -0.270 OA
ATOM      4  N   UNL     1      -9.069  -9.758  18.155  0.00  0.00    -0.304 N 
ATOM     16  C   UNL     1     -10.399  -9.482  18.442  0.00  0.00    +0.244 C 
ATOM     36  H   UNL     1      -8.659  -9.442  17.283  0.00  0.00    +0.149 HD
BRANCH  16  18
ATOM     18  C   UNL     1     -11.103  -8.596  17.480  0.00  0.00    +0.037 A 
ATOM     19  C   UNL     1     -12.341  -8.978  17.005  0.00  0.00    +0.015 A 
ATOM     20  C   UNL     1     -10.496  -7.420  17.090  0.00  0.00    +0.015 A 
ATOM     24  C   UNL     1     -13.001  -8.146  16.102  0.00  0.00    +0.024 A 
ATOM     25  C   UNL     1     -11.157  -6.589  16.186  0.00  0.00    +0.024 A 
ATOM     26  C   UNL     1     -12.409  -6.952  15.691  0.00  0.00    +0.029 A 
BRANCH  26   8
ATOM      8  N   UNL     1     -13.077  -6.111  14.776  0.00  0.00    -0.336 N 
ATOM     30  C   UNL     1     -14.515  -6.192  14.619  0.00  0.00    +0.129 C 
ATOM     31  C   UNL     1     -12.332  -5.164  13.971  0.00  0.00    +0.129 C 
ENDBRANCH  26   8
ENDBRANCH  16  18
ENDBRANCH  12   4
TORSDOF 6
ENDMDL
MODEL 6
REMARK VINA RESULT:      -6.9     21.266     25.820
REMARK  Name = 11939798
REMARK  8 active torsions:
REMARK  status: ('A' for Active; 'I' for Inactive)
REMARK    1  A    between atoms: N_4  and  C_12
REMARK    2  A    between atoms: N_5  and  C_13
REMARK    3  A    between atoms: N_8  and  C_26
REMARK    4  A    between atoms: N_8  and  C_30
REMARK    5  A    between atoms: N_8  and  C_31
REMARK    6  A    between atoms: C_16  and  C_18
REMARK    7  A    between atoms: C_21  and  C_27
REMARK    8  A    between atoms: C_32  and  C_35
REMARK                            x       y       z     vdW  Elec       q    Type
REMARK                         _______ _______ _______ _____ _____    ______ ____
ROOT
ATOM      1  O   UNL     1      -3.204 -12.921  13.187  0.00  0.00    -0.370 OA
ATOM      2  O   UNL     1      -1.908 -10.137  13.616  0.00  0.00    -0.370 OA
ATOM     10  C   UNL     1      -3.108 -10.742  14.129  0.00  0.00    +0.171 C 
ATOM     11  C   UNL     1      -3.698 -11.581  13.013  0.00  0.00    +0.171 C 
ATOM     12  C   UNL     1      -2.771 -11.746  15.209  0.00  0.00    +0.130 C 
ATOM     13  C   UNL     1      -3.125 -10.973  11.754  0.00  0.00    +0.130 C 
ATOM     14  C   UNL     1      -2.425 -12.981  14.391  0.00  0.00    +0.185 C 
ATOM     15  C   UNL     1      -1.779 -10.450  12.222  0.00  0.00    +0.185 C 
ENDROOT
BRANCH  13   5
ATOM      5  N   UNL     1      -3.960  -9.881  11.306  0.00  0.00    -0.306 N 
ATOM      6  N   UNL     1      -4.282 -10.848   9.193  0.00  0.00    -0.214 NA
ATOM      7  N   UNL     1      -5.297  -8.737   9.755  0.00  0.00    -0.223 NA
ATOM     17  C   UNL     1      -4.530  -9.820  10.046  0.00  0.00    +0.216 A 
ATOM     21  C   UNL     1      -4.853 -10.756   7.973  0.00  0.00    +0.076 A 
ATOM     22  C   UNL     1      -5.837  -8.709   8.518  0.00  0.00    +0.116 A 
ATOM     23  C   UNL     1      -5.648  -9.700   7.577  0.00  0.00    +0.048 A 
ATOM     37  H   UNL     1      -4.195  -9.136  11.952  0.00  0.00    +0.149 HD
BRANCH  21  27
ATOM     27  C   UNL     1      -4.577 -11.858   7.082  0.00  0.00    +0.002 A 
ATOM     28  C   UNL     1      -4.806 -11.726   5.711  0.00  0.00    +0.029 A 
ATOM     29  C   UNL     1      -4.081 -13.060   7.590  0.00  0.00    +0.010 A 
ATOM     32  C   UNL     1      -4.539 -12.792   4.851  0.00  0.00    +0.052 A 
ATOM     33  C   UNL     1      -3.814 -14.126   6.730  0.00  0.00    +0.002 A 
ATOM     34  C   UNL     1      -4.044 -13.991   5.361  0.00  0.00    +0.019 A 
BRANCH  32  35
ATOM      9  N   UNL     1      -4.964 -12.546   2.308  0.00  0.00    -0.191 NA
ATOM     35  C   UNL     1      -4.773 -12.655   3.448  0.00  0.00    +0.099 C 
ENDBRANCH  32  35
ENDBRANCH  21  27
ENDBRANCH  13   5
BRANCH  12   4
ATOM      3  O   UNL     1      -4.060  -9.927  17.036  0.00  0.00    -0.270 OA
ATOM      4  N   UNL     1      -3.941 -12.018  16.041  0.00  0.00    -0.304 N 
ATOM     16  C   UNL     1      -4.489 -11.069  16.892  0.00  0.00    +0.244 C 
ATOM     36  H   UNL     1      -4.279 -12.974  16.056  0.00  0.00    +0.149 HD
BRANCH  16  18
ATOM     18  C   UNL     1      -5.662 -11.508  17.690  0.00  0.00    +0.037 A 
ATOM     19  C   UNL     1      -5.865 -10.955  18.938  0.00  0.00    +0.015 A 
ATOM     20  C   UNL     1      -6.511 -12.458  17.158  0.00  0.00    +0.015 A 
ATOM     24  C   UNL     1      -6.966 -11.369  19.686  0.00  0.00    +0.024 A 
ATOM     25  C   UNL     1      -7.613 -12.871  17.908  0.00  0.00    +0.024 A 
ATOM     26  C   UNL     1      -7.839 -12.327  19.172  0.00  0.00    +0.029 A 
BRANCH  26   8
ATOM      8  N   UNL     1      -8.953 -12.747  19.930  0.00  0.00    -0.336 N 
ATOM     30  C   UNL     1     -10.102 -11.878  20.089  0.00  0.00    +0.129 C 
ATOM     31  C   UNL     1      -8.957 -14.046  20.571  0.00  0.00    +0.129 C 
ENDBRANCH  26   8
ENDBRANCH  16  18
ENDBRANCH  12   4
TORSDOF 6
ENDMDL
MODEL 7
REMARK VINA RESULT:      -6.8     25.407     29.383
REMARK  Name = 11939798
REMARK  8 active torsions:
REMARK  status: ('A' for Active; 'I' for Inactive)
REMARK    1  A    between atoms: N_4  and  C_12
REMARK    2  A    between atoms: N_5  and  C_13
REMARK    3  A    between atoms: N_8  and  C_26
REMARK    4  A    between atoms: N_8  and  C_30
REMARK    5  A    between atoms: N_8  and  C_31
REMARK    6  A    between atoms: C_16  and  C_18
REMARK    7  A    between atoms: C_21  and  C_27
REMARK    8  A    between atoms: C_32  and  C_35
REMARK                            x       y       z     vdW  Elec       q    Type
REMARK                         _______ _______ _______ _____ _____    ______ ____
ROOT
ATOM      1  O   UNL     1       4.290  11.068   3.467  0.00  0.00    -0.370 OA
ATOM      2  O   UNL     1       5.678  13.675   4.410  0.00  0.00    -0.370 OA
ATOM     10  C   UNL     1       5.747  12.314   4.871  0.00  0.00    +0.171 C 
ATOM     11  C   UNL     1       4.354  11.728   4.744  0.00  0.00    +0.171 C 
ATOM     12  C   UNL     1       6.587  11.482   3.927  0.00  0.00    +0.130 C 
ATOM     13  C   UNL     1       3.446  12.935   4.753  0.00  0.00    +0.130 C 
ATOM     14  C   UNL     1       5.581  11.128   2.842  0.00  0.00    +0.185 C 
ATOM     15  C   UNL     1       4.313  14.008   4.119  0.00  0.00    +0.185 C 
ENDROOT
BRANCH  13   5
ATOM      5  N   UNL     1       3.114  13.296   6.114  0.00  0.00    -0.306 N 
ATOM      6  N   UNL     1       1.178  11.972   6.111  0.00  0.00    -0.214 NA
ATOM      7  N   UNL     1       1.807  13.240   8.061  0.00  0.00    -0.223 NA
ATOM     17  C   UNL     1       2.000  12.822   6.782  0.00  0.00    +0.216 A 
ATOM     21  C   UNL     1       0.100  11.529   6.793  0.00  0.00    +0.076 A 
ATOM     22  C   UNL     1       0.710  12.758   8.682  0.00  0.00    +0.116 A 
ATOM     23  C   UNL     1      -0.186  11.891   8.093  0.00  0.00    +0.048 A 
ATOM     37  H   UNL     1       3.748  13.887   6.640  0.00  0.00    +0.149 HD
BRANCH  21  27
ATOM     27  C   UNL     1      -0.758  10.627   6.063  0.00  0.00    +0.002 A 
ATOM     28  C   UNL     1      -0.746  10.621   4.666  0.00  0.00    +0.029 A 
ATOM     29  C   UNL     1      -1.606   9.757   6.752  0.00  0.00    +0.010 A 
ATOM     32  C   UNL     1      -1.576   9.749   3.962  0.00  0.00    +0.052 A 
ATOM     33  C   UNL     1      -2.436   8.884   6.047  0.00  0.00    +0.002 A 
ATOM     34  C   UNL     1      -2.421   8.881   4.652  0.00  0.00    +0.019 A 
BRANCH  32  35
ATOM      9  N   UNL     1      -1.550   9.742   1.372  0.00  0.00    -0.191 NA
ATOM     35  C   UNL     1      -1.562   9.744   2.533  0.00  0.00    +0.099 C 
ENDBRANCH  32  35
ENDBRANCH  21  27
ENDBRANCH  13   5
BRANCH  12   4
ATOM      3  O   UNL     1       8.982  11.159   5.498  0.00  0.00    -0.270 OA
ATOM      4  N   UNL     1       7.046  10.262   4.589  0.00  0.00    -0.304 N 
ATOM     16  C   UNL     1       8.221  10.211   5.327  0.00  0.00    +0.244 C 
ATOM     36  H   UNL     1       6.526   9.414   4.397  0.00  0.00    +0.149 HD
BRANCH  16  18
ATOM     18  C   UNL     1       8.563   8.890   5.916  0.00  0.00    +0.037 A 
ATOM     19  C   UNL     1       9.104   8.847   7.184  0.00  0.00    +0.015 A 
ATOM     20  C   UNL     1       8.330   7.750   5.175  0.00  0.00    +0.015 A 
ATOM     24  C   UNL     1       9.425   7.607   7.736  0.00  0.00    +0.024 A 
ATOM     25  C   UNL     1       8.652   6.510   5.728  0.00  0.00    +0.024 A 
ATOM     26  C   UNL     1       9.200   6.439   7.008  0.00  0.00    +0.029 A 
BRANCH  26   8
ATOM      8  N   UNL     1       9.527   5.185   7.566  0.00  0.00    -0.336 N 
ATOM     30  C   UNL     1       9.534   5.002   9.004  0.00  0.00    +0.129 C 
ATOM     31  C   UNL     1       9.872   4.068   6.710  0.00  0.00    +0.129 C 
ENDBRANCH  26   8
ENDBRANCH  16  18
ENDBRANCH  12   4
TORSDOF 6
ENDMDL
MODEL 8
REMARK VINA RESULT:      -6.7     31.052     36.205
REMARK  Name = 11939798
REMARK  8 active torsions:
REMARK  status: ('A' for Active; 'I' for Inactive)
REMARK    1  A    between atoms: N_4  and  C_12
REMARK    2  A    between atoms: N_5  and  C_13
REMARK    3  A    between atoms: N_8  and  C_26
REMARK    4  A    between atoms: N_8  and  C_30
REMARK    5  A    between atoms: N_8  and  C_31
REMARK    6  A    between atoms: C_16  and  C_18
REMARK    7  A    between atoms: C_21  and  C_27
REMARK    8  A    between atoms: C_32  and  C_35
REMARK                            x       y       z     vdW  Elec       q    Type
REMARK                         _______ _______ _______ _____ _____    ______ ____
ROOT
ATOM      1  O   UNL     1       9.808   7.234   3.320  0.00  0.00    -0.370 OA
ATOM      2  O   UNL     1      10.480   4.532   4.685  0.00  0.00    -0.370 OA
ATOM     10  C   UNL     1      10.846   5.890   4.982  0.00  0.00    +0.171 C 
ATOM     11  C   UNL     1      11.054   6.598   3.658  0.00  0.00    +0.171 C 
ATOM     12  C   UNL     1       9.683   6.622   5.616  0.00  0.00    +0.130 C 
ATOM     13  C   UNL     1      11.348   5.479   2.686  0.00  0.00    +0.130 C 
ATOM     14  C   UNL     1       8.877   7.042   4.396  0.00  0.00    +0.185 C 
ATOM     15  C   UNL     1      10.562   4.319   3.268  0.00  0.00    +0.185 C 
ENDROOT
BRANCH  13   5
ATOM      5  N   UNL     1      12.763   5.180   2.689  0.00  0.00    -0.306 N 
ATOM      6  N   UNL     1      12.762   4.614   0.412  0.00  0.00    -0.214 NA
ATOM      7  N   UNL     1      14.788   4.511   1.712  0.00  0.00    -0.223 NA
ATOM     17  C   UNL     1      13.458   4.755   1.571  0.00  0.00    +0.216 A 
ATOM     21  C   UNL     1      13.470   4.199  -0.659  0.00  0.00    +0.076 A 
ATOM     22  C   UNL     1      15.434   4.098   0.601  0.00  0.00    +0.116 A 
ATOM     23  C   UNL     1      14.822   3.924  -0.622  0.00  0.00    +0.048 A 
ATOM     37  H   UNL     1      13.302   5.332   3.534  0.00  0.00    +0.149 HD
BRANCH  21  27
ATOM     27  C   UNL     1      12.712   4.057  -1.878  0.00  0.00    +0.002 A 
ATOM     28  C   UNL     1      11.696   3.102  -1.966  0.00  0.00    +0.029 A 
ATOM     29  C   UNL     1      12.993   4.873  -2.976  0.00  0.00    +0.010 A 
ATOM     32  C   UNL     1      10.963   2.966  -3.145  0.00  0.00    +0.052 A 
ATOM     33  C   UNL     1      12.260   4.736  -4.156  0.00  0.00    +0.002 A 
ATOM     34  C   UNL     1      11.246   3.783  -4.240  0.00  0.00    +0.019 A 
BRANCH  32  35
ATOM      9  N   UNL     1       9.080   1.195  -3.305  0.00  0.00    -0.191 NA
ATOM     35  C   UNL     1       9.923   1.990  -3.234  0.00  0.00    +0.099 C 
ENDBRANCH  32  35
ENDBRANCH  21  27
ENDBRANCH  13   5
BRANCH  12   4
ATOM      3  O   UNL     1       8.612   7.708   8.062  0.00  0.00    -0.270 OA
ATOM      4  N   UNL     1      10.151   7.809   6.329  0.00  0.00    -0.304 N 
ATOM     16  C   UNL     1       9.564   8.251   7.506  0.00  0.00    +0.244 C 
ATOM     36  H   UNL     1      10.859   8.369   5.869  0.00  0.00    +0.149 HD
BRANCH  16  18
ATOM     18  C   UNL     1      10.138   9.488   8.096  0.00  0.00    +0.037 A 
ATOM     19  C   UNL     1       9.362  10.239   8.955  0.00  0.00    +0.015 A 
ATOM     20  C   UNL     1      11.428   9.848   7.764  0.00  0.00    +0.015 A 
ATOM     24  C   UNL     1       9.902  11.400   9.507  0.00  0.00    +0.024 A 
ATOM     25  C   UNL     1      11.966  11.010   8.317  0.00  0.00    +0.024 A 
ATOM     26  C   UNL     1      11.203  11.786   9.187  0.00  0.00    +0.029 A 
BRANCH  26   8
ATOM      8  N   UNL     1      11.748  12.962   9.746  0.00  0.00    -0.336 N 
ATOM     30  C   UNL     1      13.079  13.400   9.377  0.00  0.00    +0.129 C 
ATOM     31  C   UNL     1      10.989  13.740  10.703  0.00  0.00    +0.129 C 
ENDBRANCH  26   8
ENDBRANCH  16  18
ENDBRANCH  12   4
TORSDOF 6
ENDMDL
MODEL 9
REMARK VINA RESULT:      -6.6      3.031     10.356
REMARK  Name = 11939798
REMARK  8 active torsions:
REMARK  status: ('A' for Active; 'I' for Inactive)
REMARK    1  A    between atoms: N_4  and  C_12
REMARK    2  A    between atoms: N_5  and  C_13
REMARK    3  A    between atoms: N_8  and  C_26
REMARK    4  A    between atoms: N_8  and  C_30
REMARK    5  A    between atoms: N_8  and  C_31
REMARK    6  A    between atoms: C_16  and  C_18
REMARK    7  A    between atoms: C_21  and  C_27
REMARK    8  A    between atoms: C_32  and  C_35
REMARK                            x       y       z     vdW  Elec       q    Type
REMARK                         _______ _______ _______ _____ _____    ______ ____
ROOT
ATOM      1  O   UNL     1     -17.175   5.921  24.372  0.00  0.00    -0.370 OA
ATOM      2  O   UNL     1     -16.958   3.460  22.498  0.00  0.00    -0.370 OA
ATOM     10  C   UNL     1     -16.381   3.761  23.780  0.00  0.00    +0.171 C 
ATOM     11  C   UNL     1     -16.050   5.241  23.786  0.00  0.00    +0.171 C 
ATOM     12  C   UNL     1     -17.417   3.608  24.872  0.00  0.00    +0.130 C 
ATOM     13  C   UNL     1     -15.930   5.596  22.323  0.00  0.00    +0.130 C 
ATOM     14  C   UNL     1     -18.134   4.948  24.812  0.00  0.00    +0.185 C 
ATOM     15  C   UNL     1     -16.897   4.628  21.666  0.00  0.00    +0.185 C 
ENDROOT
BRANCH  13   5
ATOM      5  N   UNL     1     -14.582   5.349  21.862  0.00  0.00    -0.306 N 
ATOM      6  N   UNL     1     -14.093   7.639  21.715  0.00  0.00    -0.214 NA
ATOM      7  N   UNL     1     -12.441   5.982  21.142  0.00  0.00    -0.223 NA
ATOM     17  C   UNL     1     -13.678   6.354  21.564  0.00  0.00    +0.216 A 
ATOM     21  C   UNL     1     -13.187   8.593  21.416  0.00  0.00    +0.076 A 
ATOM     22  C   UNL     1     -11.585   6.988  20.860  0.00  0.00    +0.116 A 
ATOM     23  C   UNL     1     -11.906   8.323  20.980  0.00  0.00    +0.048 A 
ATOM     37  H   UNL     1     -14.245   4.395  21.797  0.00  0.00    +0.149 HD
BRANCH  21  27
ATOM     27  C   UNL     1     -13.648   9.951  21.584  0.00  0.00    +0.002 A 
ATOM     28  C   UNL     1     -13.221  10.707  22.678  0.00  0.00    +0.029 A 
ATOM     29  C   UNL     1     -14.524  10.513  20.653  0.00  0.00    +0.010 A 
ATOM     32  C   UNL     1     -13.666  12.019  22.839  0.00  0.00    +0.052 A 
ATOM     33  C   UNL     1     -14.970  11.825  20.815  0.00  0.00    +0.002 A 
ATOM     34  C   UNL     1     -14.541  12.577  21.908  0.00  0.00    +0.019 A 
BRANCH  32  35
ATOM      9  N   UNL     1     -12.870  13.418  24.869  0.00  0.00    -0.191 NA
ATOM     35  C   UNL     1     -13.228  12.792  23.959  0.00  0.00    +0.099 C 
ENDBRANCH  32  35
ENDBRANCH  21  27
ENDBRANCH  13   5
BRANCH  12   4
ATOM      3  O   UNL     1     -17.334   1.225  26.492  0.00  0.00    -0.270 OA
ATOM      4  N   UNL     1     -16.772   3.453  26.174  0.00  0.00    -0.304 N 
ATOM     16  C   UNL     1     -16.789   2.257  26.878  0.00  0.00    +0.244 C 
ATOM     36  H   UNL     1     -16.400   4.293  26.603  0.00  0.00    +0.149 HD
BRANCH  16  18
ATOM     18  C   UNL     1     -16.110   2.268  28.199  0.00  0.00    +0.037 A 
ATOM     19  C   UNL     1     -15.663   3.470  28.708  0.00  0.00    +0.015 A 
ATOM     20  C   UNL     1     -15.945   1.075  28.874  0.00  0.00    +0.015 A 
ATOM     24  C   UNL     1     -15.026   3.480  29.948  0.00  0.00    +0.024 A 
ATOM     25  C   UNL     1     -15.307   1.087  30.114  0.00  0.00    +0.024 A 
ATOM     26  C   UNL     1     -14.847   2.288  30.650  0.00  0.00    +0.029 A 
BRANCH  26   8
ATOM      8  N   UNL     1     -14.200   2.299  31.905  0.00  0.00    -0.336 N 
ATOM     30  C   UNL     1     -13.088   3.195  32.149  0.00  0.00    +0.129 C 
ATOM     31  C   UNL     1     -14.630   1.404  32.960  0.00  0.00    +0.129 C 
ENDBRANCH  26   8
ENDBRANCH  16  18
ENDBRANCH  12   4
TORSDOF 6
ENDMDL
MODEL 10
REMARK VINA RESULT:      -6.6     20.787     25.613
REMARK  Name = 11939798
REMARK  8 active torsions:
REMARK  status: ('A' for Active; 'I' for Inactive)
REMARK    1  A    between atoms: N_4  and  C_12
REMARK    2  A    between atoms: N_5  and  C_13
REMARK    3  A    between atoms: N_8  and  C_26
REMARK    4  A    between atoms: N_8  and  C_30
REMARK    5  A    between atoms: N_8  and  C_31
REMARK    6  A    between atoms: C_16  and  C_18
REMARK    7  A    between atoms: C_21  and  C_27
REMARK    8  A    between atoms: C_32  and  C_35
REMARK                            x       y       z     vdW  Elec       q    Type
REMARK                         _______ _______ _______ _____ _____    ______ ____
ROOT
ATOM      1  O   UNL     1      -5.106 -11.524  10.321  0.00  0.00    -0.370 OA
ATOM      2  O   UNL     1      -3.655  -8.790  10.130  0.00  0.00    -0.370 OA
ATOM     10  C   UNL     1      -4.465  -9.393  11.155  0.00  0.00    +0.171 C 
ATOM     11  C   UNL     1      -5.566 -10.167  10.457  0.00  0.00    +0.171 C 
ATOM     12  C   UNL     1      -3.676 -10.453  11.892  0.00  0.00    +0.130 C 
ATOM     13  C   UNL     1      -5.670  -9.514   9.099  0.00  0.00    +0.130 C 
ATOM     14  C   UNL     1      -3.834 -11.655  10.974  0.00  0.00    +0.185 C 
ATOM     15  C   UNL     1      -4.250  -9.040   8.849  0.00  0.00    +0.185 C 
ENDROOT
BRANCH  13   5
ATOM      5  N   UNL     1      -6.573  -8.386   9.160  0.00  0.00    -0.306 N 
ATOM      6  N   UNL     1      -7.371  -8.765   6.987  0.00  0.00    -0.214 NA
ATOM      7  N   UNL     1      -8.211  -6.936   8.312  0.00  0.00    -0.223 NA
ATOM     17  C   UNL     1      -7.410  -8.018   8.121  0.00  0.00    +0.216 A 
ATOM     21  C   UNL     1      -8.200  -8.378   5.994  0.00  0.00    +0.076 A 
ATOM     22  C   UNL     1      -9.014  -6.606   7.278  0.00  0.00    +0.116 A 
ATOM     23  C   UNL     1      -9.052  -7.296   6.085  0.00  0.00    +0.048 A 
ATOM     37  H   UNL     1      -6.648  -7.854  10.020  0.00  0.00    +0.149 HD
BRANCH  21  27
ATOM     27  C   UNL     1      -8.144  -9.185   4.799  0.00  0.00    +0.002 A 
ATOM     28  C   UNL     1      -7.186 -10.195   4.677  0.00  0.00    +0.029 A 
ATOM     29  C   UNL     1      -9.047  -8.958   3.758  0.00  0.00    +0.010 A 
ATOM     32  C   UNL     1      -7.134 -10.974   3.522  0.00  0.00    +0.052 A 
ATOM     33  C   UNL     1      -8.993  -9.738   2.602  0.00  0.00    +0.002 A 
ATOM     34  C   UNL     1      -8.036 -10.745   2.484  0.00  0.00    +0.019 A 
BRANCH  32  35
ATOM      9  N   UNL     1      -5.357 -12.847   3.302  0.00  0.00    -0.191 NA
ATOM     35  C   UNL     1      -6.153 -12.007   3.400  0.00  0.00    +0.099 C 
ENDBRANCH  32  35
ENDBRANCH  21  27
ENDBRANCH  13   5
BRANCH  12   4
ATOM      3  O   UNL     1      -2.379 -10.425  14.466  0.00  0.00    -0.270 OA
ATOM      4  N   UNL     1      -4.289 -10.739  13.188  0.00  0.00    -0.304 N 
ATOM     16  C   UNL     1      -3.573 -10.698  14.377  0.00  0.00    +0.244 C 
ATOM     36  H   UNL     1      -5.243 -11.081  13.177  0.00  0.00    +0.149 HD
BRANCH  16  18
ATOM     18  C   UNL     1      -4.333 -11.040  15.607  0.00  0.00    +0.037 A 
ATOM     19  C   UNL     1      -5.574 -11.630  15.481  0.00  0.00    +0.015 A 
ATOM     20  C   UNL     1      -3.774 -10.755  16.836  0.00  0.00    +0.015 A 
ATOM     24  C   UNL     1      -6.287 -11.950  16.636  0.00  0.00    +0.024 A 
ATOM     25  C   UNL     1      -4.489 -11.075  17.990  0.00  0.00    +0.024 A 
ATOM     26  C   UNL     1      -5.745 -11.671  17.890  0.00  0.00    +0.029 A 
BRANCH  26   8
ATOM      8  N   UNL     1      -6.468 -11.994  19.059  0.00  0.00    -0.336 N 
ATOM     30  C   UNL     1      -6.038 -11.493  20.348  0.00  0.00    +0.129 C 
ATOM     31  C   UNL     1      -7.641 -12.841  18.986  0.00  0.00    +0.129 C 
ENDBRANCH  26   8
ENDBRANCH  16  18
ENDBRANCH  12   4
TORSDOF 6
ENDMDL
