MODEL 1
REMARK VINA RESULT:      -7.0      0.000      0.000
REMARK  Name = 28961874
REMARK  8 active torsions:
REMARK  status: ('A' for Active; 'I' for Inactive)
REMARK    1  A    between atoms: O_4  and  C_13
REMARK    2  A    between atoms: O_5  and  C_20
REMARK    3  A    between atoms: N_7  and  C_11
REMARK    4  A    between atoms: N_8  and  C_21
REMARK    5  A    between atoms: N_9  and  C_17
REMARK    6  A    between atoms: N_10  and  C_28
REMARK    7  A    between atoms: C_12  and  C_17
REMARK    8  A    between atoms: C_14  and  C_20
REMARK                            x       y       z     vdW  Elec       q    Type
REMARK                         _______ _______ _______ _____ _____    ______ ____
ROOT
ATOM      3  O   UNL     1      -8.688 -11.619  17.384  0.00  0.00    -0.365 OA
ATOM     11  C   UNL     1      -9.921  -9.627  16.959  0.00  0.00    +0.118 C 
ATOM     12  C   UNL     1      -9.574 -11.018  16.413  0.00  0.00    +0.155 C 
ATOM     13  C   UNL     1      -8.724  -9.296  17.838  0.00  0.00    +0.165 C 
ATOM     14  C   UNL     1      -8.424 -10.667  18.432  0.00  0.00    +0.174 C 
ENDROOT
BRANCH  11   7
ATOM      7  N   UNL     1     -10.264  -8.618  15.974  0.00  0.00    -0.292 NA
ATOM      8  N   UNL     1     -11.910  -6.643  14.728  0.00  0.00    -0.327 N 
ATOM     15  C   UNL     1     -11.464  -9.015  15.226  0.00  0.00    +0.104 C 
ATOM     16  C   UNL     1     -10.487  -7.320  16.621  0.00  0.00    +0.104 C 
ATOM     18  C   UNL     1     -11.803  -7.986  14.146  0.00  0.00    +0.120 C 
ATOM     19  C   UNL     1     -10.795  -6.234  15.589  0.00  0.00    +0.120 C 
BRANCH   8  21
ATOM      2  F   UNL     1     -14.763  -2.817  11.936  0.00  0.00    -0.205 F 
ATOM     21  C   UNL     1     -12.633  -5.675  14.022  0.00  0.00    +0.030 A 
ATOM     23  C   UNL     1     -11.957  -4.694  13.295  0.00  0.00    +0.026 A 
ATOM     24  C   UNL     1     -14.027  -5.691  14.044  0.00  0.00    +0.026 A 
ATOM     25  C   UNL     1     -12.676  -3.729  12.591  0.00  0.00    +0.040 A 
ATOM     26  C   UNL     1     -14.746  -4.725  13.339  0.00  0.00    +0.040 A 
ATOM     27  C   UNL     1     -14.070  -3.744  12.612  0.00  0.00    +0.124 A 
ENDBRANCH   8  21
ENDBRANCH  11   7
BRANCH  13   4
ATOM      4  O   UNL     1      -7.622  -8.838  17.065  0.00  0.00    -0.388 OA
ATOM     34  H   UNL     1      -6.920  -8.572  17.683  0.00  0.00    +0.210 HD
ENDBRANCH  13   4
BRANCH  12  17
ATOM     17  C   UNL     1      -8.866 -11.065  15.064  0.00  0.00    +0.139 C 
BRANCH  17   9
ATOM      6  O   UNL     1      -6.474  -9.575  14.550  0.00  0.00    -0.253 OA
ATOM      9  N   UNL     1      -7.519 -11.532  15.205  0.00  0.00    -0.297 N 
ATOM     10  N   UNL     1      -5.214 -11.459  15.159  0.00  0.00    -0.269 N 
ATOM     22  C   UNL     1      -6.390 -10.740  14.933  0.00  0.00    +0.304 C 
ATOM     35  H   UNL     1      -7.373 -12.483  15.531  0.00  0.00    +0.150 HD
ATOM     37  H   UNL     1      -5.321 -12.419  15.476  0.00  0.00    +0.156 HD
BRANCH  10  28
ATOM      1 CL   UNL     1      -1.457  -9.949  12.002  0.00  0.00    -0.083 Cl
ATOM     28  C   UNL     1      -3.881 -11.016  15.001  0.00  0.00    +0.036 A 
ATOM     29  C   UNL     1      -3.385 -10.735  13.728  0.00  0.00    +0.043 A 
ATOM     30  C   UNL     1      -3.061 -10.858  16.119  0.00  0.00    +0.023 A 
ATOM     31  C   UNL     1      -2.069 -10.297  13.573  0.00  0.00    +0.043 A 
ATOM     32  C   UNL     1      -1.747 -10.420  15.964  0.00  0.00    +0.003 A 
ATOM     33  C   UNL     1      -1.250 -10.140  14.691  0.00  0.00    +0.020 A 
ENDBRANCH  10  28
ENDBRANCH  17   9
ENDBRANCH  12  17
BRANCH  14  20
ATOM     20  C   UNL     1      -7.007 -10.862  18.940  0.00  0.00    +0.190 C 
BRANCH  20   5
ATOM      5  O   UNL     1      -6.757  -9.922  19.974  0.00  0.00    -0.392 OA
ATOM     36  H   UNL     1      -6.876 -10.387  20.819  0.00  0.00    +0.210 HD
ENDBRANCH  20   5
ENDBRANCH  14  20
TORSDOF 8
ENDMDL
MODEL 2
REMARK VINA RESULT:      -6.9      5.836      7.902
REMARK  Name = 28961874
REMARK  8 active torsions:
REMARK  status: ('A' for Active; 'I' for Inactive)
REMARK    1  A    between atoms: O_4  and  C_13
REMARK    2  A    between atoms: O_5  and  C_20
REMARK    3  A    between atoms: N_7  and  C_11
REMARK    4  A    between atoms: N_8  and  C_21
REMARK    5  A    between atoms: N_9  and  C_17
REMARK    6  A    between atoms: N_10  and  C_28
REMARK    7  A    between atoms: C_12  and  C_17
REMARK    8  A    between atoms: C_14  and  C_20
REMARK                            x       y       z     vdW  Elec       q    Type
REMARK                         _______ _______ _______ _____ _____    ______ ____
ROOT
ATOM      3  O   UNL     1      -1.603 -12.369  13.405  0.00  0.00    -0.365 OA
ATOM     11  C   UNL     1      -2.958 -11.917  11.501  0.00  0.00    +0.118 C 
ATOM     12  C   UNL     1      -2.094 -11.277  12.596  0.00  0.00    +0.155 C 
ATOM     13  C   UNL     1      -3.414 -13.219  12.142  0.00  0.00    +0.165 C 
ATOM     14  C   UNL     1      -2.162 -13.604  12.920  0.00  0.00    +0.174 C 
ENDROOT
BRANCH  11   7
ATOM      7  N   UNL     1      -4.018 -11.090  10.954  0.00  0.00    -0.292 NA
ATOM      8  N   UNL     1      -5.555  -9.847   8.891  0.00  0.00    -0.327 N 
ATOM     15  C   UNL     1      -3.455  -9.979  10.175  0.00  0.00    +0.104 C 
ATOM     16  C   UNL     1      -4.912 -11.890  10.108  0.00  0.00    +0.104 C 
ATOM     18  C   UNL     1      -4.562  -9.068   9.639  0.00  0.00    +0.120 C 
ATOM     19  C   UNL     1      -6.067 -11.042   9.571  0.00  0.00    +0.120 C 
BRANCH   8  21
ATOM      2  F   UNL     1      -8.758  -7.179   5.259  0.00  0.00    -0.205 F 
ATOM     21  C   UNL     1      -6.366  -9.172   7.973  0.00  0.00    +0.030 A 
ATOM     23  C   UNL     1      -6.332  -9.524   6.623  0.00  0.00    +0.026 A 
ATOM     24  C   UNL     1      -7.208  -8.147   8.405  0.00  0.00    +0.026 A 
ATOM     25  C   UNL     1      -7.139  -8.851   5.706  0.00  0.00    +0.040 A 
ATOM     26  C   UNL     1      -8.016  -7.474   7.488  0.00  0.00    +0.040 A 
ATOM     27  C   UNL     1      -7.981  -7.826   6.139  0.00  0.00    +0.124 A 
ENDBRANCH   8  21
ENDBRANCH  11   7
BRANCH  13   4
ATOM      4  O   UNL     1      -4.505 -13.006  13.030  0.00  0.00    -0.388 OA
ATOM     34  H   UNL     1      -5.287 -13.434  12.642  0.00  0.00    +0.210 HD
ENDBRANCH  13   4
BRANCH  12  17
ATOM     17  C   UNL     1      -2.794 -10.299  13.532  0.00  0.00    +0.139 C 
BRANCH  17   9
ATOM      6  O   UNL     1      -5.196 -10.119  15.082  0.00  0.00    -0.253 OA
ATOM      9  N   UNL     1      -3.033 -10.893  14.814  0.00  0.00    -0.297 N 
ATOM     10  N   UNL     1      -4.186 -11.446  16.733  0.00  0.00    -0.269 N 
ATOM     22  C   UNL     1      -4.243 -10.761  15.517  0.00  0.00    +0.304 C 
ATOM     35  H   UNL     1      -2.292 -11.449  15.229  0.00  0.00    +0.150 HD
ATOM     37  H   UNL     1      -3.316 -11.929  16.943  0.00  0.00    +0.156 HD
BRANCH  10  28
ATOM      1 CL   UNL     1      -8.381 -13.858  18.449  0.00  0.00    -0.083 Cl
ATOM     28  C   UNL     1      -5.195 -11.552  17.718  0.00  0.00    +0.036 A 
ATOM     29  C   UNL     1      -6.176 -12.537  17.610  0.00  0.00    +0.043 A 
ATOM     30  C   UNL     1      -5.208 -10.672  18.801  0.00  0.00    +0.023 A 
ATOM     31  C   UNL     1      -7.171 -12.642  18.582  0.00  0.00    +0.043 A 
ATOM     32  C   UNL     1      -6.202 -10.776  19.773  0.00  0.00    +0.003 A 
ATOM     33  C   UNL     1      -7.184 -11.761  19.663  0.00  0.00    +0.020 A 
ENDBRANCH  10  28
ENDBRANCH  17   9
ENDBRANCH  12  17
BRANCH  14  20
ATOM     20  C   UNL     1      -2.384 -14.546  14.088  0.00  0.00    +0.190 C 
BRANCH  20   5
ATOM      5  O   UNL     1      -2.957 -13.817  15.163  0.00  0.00    -0.392 OA
ATOM     36  H   UNL     1      -3.235 -12.956  14.808  0.00  0.00    +0.210 HD
ENDBRANCH  20   5
ENDBRANCH  14  20
TORSDOF 8
ENDMDL
MODEL 3
REMARK VINA RESULT:      -6.8      2.269      3.502
REMARK  Name = 28961874
REMARK  8 active torsions:
REMARK  status: ('A' for Active; 'I' for Inactive)
REMARK    1  A    between atoms: O_4  and  C_13
REMARK    2  A    between atoms: O_5  and  C_20
REMARK    3  A    between atoms: N_7  and  C_11
REMARK    4  A    between atoms: N_8  and  C_21
REMARK    5  A    between atoms: N_9  and  C_17
REMARK    6  A    between atoms: N_10  and  C_28
REMARK    7  A    between atoms: C_12  and  C_17
REMARK    8  A    between atoms: C_14  and  C_20
REMARK                            x       y       z     vdW  Elec       q    Type
REMARK                         _______ _______ _______ _____ _____    ______ ____
ROOT
ATOM      3  O   UNL     1     -11.059  -9.934  16.104  0.00  0.00    -0.365 OA
ATOM     11  C   UNL     1     -12.379  -8.241  15.074  0.00  0.00    +0.118 C 
ATOM     12  C   UNL     1     -11.344  -9.344  14.816  0.00  0.00    +0.155 C 
ATOM     13  C   UNL     1     -12.118  -7.859  16.523  0.00  0.00    +0.165 C 
ATOM     14  C   UNL     1     -11.792  -9.223  17.120  0.00  0.00    +0.174 C 
ENDROOT
BRANCH  11   7
ATOM      7  N   UNL     1     -12.388  -7.135  14.133  0.00  0.00    -0.292 NA
ATOM      8  N   UNL     1     -13.563  -5.240  12.348  0.00  0.00    -0.327 N 
ATOM     15  C   UNL     1     -12.918  -7.569  12.834  0.00  0.00    +0.104 C 
ATOM     16  C   UNL     1     -13.190  -6.022  14.653  0.00  0.00    +0.104 C 
ATOM     18  C   UNL     1     -12.880  -6.426  11.817  0.00  0.00    +0.120 C 
ATOM     19  C   UNL     1     -13.161  -4.828  13.697  0.00  0.00    +0.120 C 
BRANCH   8  21
ATOM      2  F   UNL     1     -15.370  -1.450   8.751  0.00  0.00    -0.205 F 
ATOM     21  C   UNL     1     -14.019  -4.281  11.437  0.00  0.00    +0.030 A 
ATOM     23  C   UNL     1     -15.033  -3.397  11.806  0.00  0.00    +0.026 A 
ATOM     24  C   UNL     1     -13.462  -4.209  10.160  0.00  0.00    +0.026 A 
ATOM     25  C   UNL     1     -15.490  -2.440  10.900  0.00  0.00    +0.040 A 
ATOM     26  C   UNL     1     -13.919  -3.252   9.253  0.00  0.00    +0.040 A 
ATOM     27  C   UNL     1     -14.932  -2.368   9.623  0.00  0.00    +0.124 A 
ENDBRANCH   8  21
ENDBRANCH  11   7
BRANCH  13   4
ATOM      4  O   UNL     1     -10.999  -6.987  16.637  0.00  0.00    -0.388 OA
ATOM     34  H   UNL     1     -10.260  -7.503  17.002  0.00  0.00    +0.210 HD
ENDBRANCH  13   4
BRANCH  12  17
ATOM     17  C   UNL     1     -10.014  -8.905  14.216  0.00  0.00    +0.139 C 
BRANCH  17   9
ATOM      6  O   UNL     1      -7.920 -10.777  14.777  0.00  0.00    -0.253 OA
ATOM      9  N   UNL     1      -9.006  -8.785  15.227  0.00  0.00    -0.297 N 
ATOM     10  N   UNL     1      -7.167  -9.364  16.493  0.00  0.00    -0.269 N 
ATOM     22  C   UNL     1      -8.006  -9.749  15.444  0.00  0.00    +0.304 C 
ATOM     35  H   UNL     1      -9.008  -7.953  15.809  0.00  0.00    +0.150 HD
ATOM     37  H   UNL     1      -7.379  -8.478  16.944  0.00  0.00    +0.156 HD
BRANCH  10  28
ATOM      1 CL   UNL     1      -2.268 -10.798  15.938  0.00  0.00    -0.083 Cl
ATOM     28  C   UNL     1      -6.050 -10.060  17.012  0.00  0.00    +0.036 A 
ATOM     29  C   UNL     1      -4.850 -10.084  16.302  0.00  0.00    +0.043 A 
ATOM     30  C   UNL     1      -6.149 -10.722  18.236  0.00  0.00    +0.023 A 
ATOM     31  C   UNL     1      -3.749 -10.769  16.815  0.00  0.00    +0.043 A 
ATOM     32  C   UNL     1      -5.049 -11.407  18.749  0.00  0.00    +0.003 A 
ATOM     33  C   UNL     1      -3.849 -11.432  18.038  0.00  0.00    +0.020 A 
ENDBRANCH  10  28
ENDBRANCH  17   9
ENDBRANCH  12  17
BRANCH  14  20
ATOM     20  C   UNL     1     -10.977  -9.197  18.400  0.00  0.00    +0.190 C 
BRANCH  20   5
ATOM      5  O   UNL     1      -9.641  -8.835  18.085  0.00  0.00    -0.392 OA
ATOM     36  H   UNL     1      -9.364  -8.169  18.737  0.00  0.00    +0.210 HD
ENDBRANCH  20   5
ENDBRANCH  14  20
TORSDOF 8
ENDMDL
MODEL 4
REMARK VINA RESULT:      -6.7      5.810      7.681
REMARK  Name = 28961874
REMARK  8 active torsions:
REMARK  status: ('A' for Active; 'I' for Inactive)
REMARK    1  A    between atoms: O_4  and  C_13
REMARK    2  A    between atoms: O_5  and  C_20
REMARK    3  A    between atoms: N_7  and  C_11
REMARK    4  A    between atoms: N_8  and  C_21
REMARK    5  A    between atoms: N_9  and  C_17
REMARK    6  A    between atoms: N_10  and  C_28
REMARK    7  A    between atoms: C_12  and  C_17
REMARK    8  A    between atoms: C_14  and  C_20
REMARK                            x       y       z     vdW  Elec       q    Type
REMARK                         _______ _______ _______ _____ _____    ______ ____
ROOT
ATOM      3  O   UNL     1      -3.785 -10.041  12.142  0.00  0.00    -0.365 OA
ATOM     11  C   UNL     1      -4.644  -9.613   9.964  0.00  0.00    +0.118 C 
ATOM     12  C   UNL     1      -4.809  -9.288  11.454  0.00  0.00    +0.155 C 
ATOM     13  C   UNL     1      -3.992 -10.987   9.983  0.00  0.00    +0.165 C 
ATOM     14  C   UNL     1      -3.067 -10.843  11.185  0.00  0.00    +0.174 C 
ENDROOT
BRANCH  11   7
ATOM      7  N   UNL     1      -5.840  -9.505   9.148  0.00  0.00    -0.292 NA
ATOM      8  N   UNL     1      -7.506  -8.426   7.092  0.00  0.00    -0.327 N 
ATOM     15  C   UNL     1      -6.456  -8.181   9.309  0.00  0.00    +0.104 C 
ATOM     16  C   UNL     1      -5.522  -9.738   7.734  0.00  0.00    +0.104 C 
ATOM     18  C   UNL     1      -7.749  -8.075   8.497  0.00  0.00    +0.120 C 
ATOM     19  C   UNL     1      -6.783  -9.683   6.869  0.00  0.00    +0.120 C 
BRANCH   8  21
ATOM      2  F   UNL     1     -11.102  -6.624   3.299  0.00  0.00    -0.205 F 
ATOM     21  C   UNL     1      -8.416  -7.970   6.133  0.00  0.00    +0.030 A 
ATOM     23  C   UNL     1      -8.094  -8.040   4.778  0.00  0.00    +0.026 A 
ATOM     24  C   UNL     1      -9.646  -7.446   6.531  0.00  0.00    +0.026 A 
ATOM     25  C   UNL     1      -9.000  -7.585   3.820  0.00  0.00    +0.040 A 
ATOM     26  C   UNL     1     -10.553  -6.991   5.573  0.00  0.00    +0.040 A 
ATOM     27  C   UNL     1     -10.230  -7.061   4.218  0.00  0.00    +0.124 A 
ENDBRANCH   8  21
ENDBRANCH  11   7
BRANCH  13   4
ATOM      4  O   UNL     1      -4.950 -12.013  10.212  0.00  0.00    -0.388 OA
ATOM     34  H   UNL     1      -5.683 -11.623  10.718  0.00  0.00    +0.210 HD
ENDBRANCH  13   4
BRANCH  12  17
ATOM     17  C   UNL     1      -6.144  -9.655  12.090  0.00  0.00    +0.139 C 
BRANCH  17   9
ATOM      6  O   UNL     1      -6.047 -11.429  14.337  0.00  0.00    -0.253 OA
ATOM      9  N   UNL     1      -6.175  -9.287  13.474  0.00  0.00    -0.297 N 
ATOM     10  N   UNL     1      -6.170  -9.569  15.763  0.00  0.00    -0.269 N 
ATOM     22  C   UNL     1      -6.123 -10.218  14.527  0.00  0.00    +0.304 C 
ATOM     35  H   UNL     1      -6.224  -8.300  13.706  0.00  0.00    +0.150 HD
ATOM     37  H   UNL     1      -6.233  -8.555  15.743  0.00  0.00    +0.156 HD
BRANCH  10  28
ATOM      1 CL   UNL     1      -3.491 -12.031  19.386  0.00  0.00    -0.083 Cl
ATOM     28  C   UNL     1      -6.141 -10.153  17.051  0.00  0.00    +0.036 A 
ATOM     29  C   UNL     1      -4.968 -10.737  17.527  0.00  0.00    +0.043 A 
ATOM     30  C   UNL     1      -7.287 -10.143  17.847  0.00  0.00    +0.023 A 
ATOM     31  C   UNL     1      -4.940 -11.311  18.798  0.00  0.00    +0.043 A 
ATOM     32  C   UNL     1      -7.259 -10.717  19.116  0.00  0.00    +0.003 A 
ATOM     33  C   UNL     1      -6.086 -11.302  19.592  0.00  0.00    +0.020 A 
ENDBRANCH  10  28
ENDBRANCH  17   9
ENDBRANCH  12  17
BRANCH  14  20
ATOM     20  C   UNL     1      -2.643 -12.145  11.840  0.00  0.00    +0.190 C 
BRANCH  20   5
ATOM      5  O   UNL     1      -3.607 -12.501  12.819  0.00  0.00    -0.392 OA
ATOM     36  H   UNL     1      -3.676 -11.754  13.438  0.00  0.00    +0.210 HD
ENDBRANCH  20   5
ENDBRANCH  14  20
TORSDOF 8
ENDMDL
MODEL 5
REMARK VINA RESULT:      -6.6      5.245     10.177
REMARK  Name = 28961874
REMARK  8 active torsions:
REMARK  status: ('A' for Active; 'I' for Inactive)
REMARK    1  A    between atoms: O_4  and  C_13
REMARK    2  A    between atoms: O_5  and  C_20
REMARK    3  A    between atoms: N_7  and  C_11
REMARK    4  A    between atoms: N_8  and  C_21
REMARK    5  A    between atoms: N_9  and  C_17
REMARK    6  A    between atoms: N_10  and  C_28
REMARK    7  A    between atoms: C_12  and  C_17
REMARK    8  A    between atoms: C_14  and  C_20
REMARK                            x       y       z     vdW  Elec       q    Type
REMARK                         _______ _______ _______ _____ _____    ______ ____
ROOT
ATOM      3  O   UNL     1     -13.668  -6.540  15.659  0.00  0.00    -0.365 OA
ATOM     11  C   UNL     1     -12.207  -8.097  16.713  0.00  0.00    +0.118 C 
ATOM     12  C   UNL     1     -12.298  -6.697  16.092  0.00  0.00    +0.155 C 
ATOM     13  C   UNL     1     -13.325  -8.855  16.012  0.00  0.00    +0.165 C 
ATOM     14  C   UNL     1     -14.384  -7.764  15.911  0.00  0.00    +0.174 C 
ENDROOT
BRANCH  11   7
ATOM      7  N   UNL     1     -10.904  -8.735  16.670  0.00  0.00    -0.292 NA
ATOM      8  N   UNL     1      -8.484  -9.799  17.754  0.00  0.00    -0.327 N 
ATOM     15  C   UNL     1      -9.873  -7.837  17.206  0.00  0.00    +0.104 C 
ATOM     16  C   UNL     1     -10.919  -9.990  17.432  0.00  0.00    +0.104 C 
ATOM     18  C   UNL     1      -8.486  -8.477  17.115  0.00  0.00    +0.120 C 
ATOM     19  C   UNL     1      -9.567 -10.701  17.349  0.00  0.00    +0.120 C 
BRANCH   8  21
ATOM      2  F   UNL     1      -3.634 -11.896  19.381  0.00  0.00    -0.205 F 
ATOM     21  C   UNL     1      -7.257 -10.329  18.165  0.00  0.00    +0.030 A 
ATOM     23  C   UNL     1      -7.139 -10.919  19.424  0.00  0.00    +0.026 A 
ATOM     24  C   UNL     1      -6.151 -10.269  17.318  0.00  0.00    +0.026 A 
ATOM     25  C   UNL     1      -5.916 -11.448  19.836  0.00  0.00    +0.040 A 
ATOM     26  C   UNL     1      -4.927 -10.798  17.729  0.00  0.00    +0.040 A 
ATOM     27  C   UNL     1      -4.810 -11.388  18.988  0.00  0.00    +0.124 A 
ENDBRANCH   8  21
ENDBRANCH  11   7
BRANCH  13   4
ATOM      4  O   UNL     1     -12.928  -9.284  14.716  0.00  0.00    -0.388 OA
ATOM     34  H   UNL     1     -11.957  -9.273  14.687  0.00  0.00    +0.210 HD
ENDBRANCH  13   4
BRANCH  12  17
ATOM     17  C   UNL     1     -11.408  -6.426  14.885  0.00  0.00    +0.139 C 
BRANCH  17   9
ATOM      6  O   UNL     1     -12.626  -6.273  12.297  0.00  0.00    -0.253 OA
ATOM      9  N   UNL     1     -11.817  -5.236  14.200  0.00  0.00    -0.297 N 
ATOM     10  N   UNL     1     -12.702  -3.937  12.512  0.00  0.00    -0.269 N 
ATOM     22  C   UNL     1     -12.411  -5.240  12.925  0.00  0.00    +0.304 C 
ATOM     35  H   UNL     1     -11.682  -4.344  14.666  0.00  0.00    +0.150 HD
ATOM     37  H   UNL     1     -12.458  -3.189  13.156  0.00  0.00    +0.156 HD
BRANCH  10  28
ATOM      1 CL   UNL     1     -16.747  -1.881  10.108  0.00  0.00    -0.083 Cl
ATOM     28  C   UNL     1     -13.299  -3.525  11.298  0.00  0.00    +0.036 A 
ATOM     29  C   UNL     1     -14.579  -2.972  11.301  0.00  0.00    +0.043 A 
ATOM     30  C   UNL     1     -12.606  -3.670  10.096  0.00  0.00    +0.023 A 
ATOM     31  C   UNL     1     -15.167  -2.564  10.104  0.00  0.00    +0.043 A 
ATOM     32  C   UNL     1     -13.193  -3.263   8.899  0.00  0.00    +0.003 A 
ATOM     33  C   UNL     1     -14.474  -2.711   8.902  0.00  0.00    +0.020 A 
ENDBRANCH  10  28
ENDBRANCH  17   9
ENDBRANCH  12  17
BRANCH  14  20
ATOM     20  C   UNL     1     -15.426  -7.965  14.826  0.00  0.00    +0.190 C 
BRANCH  20   5
ATOM      5  O   UNL     1     -14.922  -7.449  13.604  0.00  0.00    -0.392 OA
ATOM     36  H   UNL     1     -15.563  -7.677  12.910  0.00  0.00    +0.210 HD
ENDBRANCH  20   5
ENDBRANCH  14  20
TORSDOF 8
ENDMDL
MODEL 6
REMARK VINA RESULT:      -6.6      4.912      9.804
REMARK  Name = 28961874
REMARK  8 active torsions:
REMARK  status: ('A' for Active; 'I' for Inactive)
REMARK    1  A    between atoms: O_4  and  C_13
REMARK    2  A    between atoms: O_5  and  C_20
REMARK    3  A    between atoms: N_7  and  C_11
REMARK    4  A    between atoms: N_8  and  C_21
REMARK    5  A    between atoms: N_9  and  C_17
REMARK    6  A    between atoms: N_10  and  C_28
REMARK    7  A    between atoms: C_12  and  C_17
REMARK    8  A    between atoms: C_14  and  C_20
REMARK                            x       y       z     vdW  Elec       q    Type
REMARK                         _______ _______ _______ _____ _____    ______ ____
ROOT
ATOM      3  O   UNL     1      -7.696 -10.914  19.843  0.00  0.00    -0.365 OA
ATOM     11  C   UNL     1      -6.753 -12.560  18.406  0.00  0.00    +0.118 C 
ATOM     12  C   UNL     1      -6.585 -11.134  18.946  0.00  0.00    +0.155 C 
ATOM     13  C   UNL     1      -8.252 -12.795  18.519  0.00  0.00    +0.165 C 
ATOM     14  C   UNL     1      -8.552 -12.072  19.827  0.00  0.00    +0.174 C 
ENDROOT
BRANCH  11   7
ATOM      7  N   UNL     1      -6.182 -12.823  17.097  0.00  0.00    -0.292 NA
ATOM      8  N   UNL     1      -4.398 -14.041  15.227  0.00  0.00    -0.327 N 
ATOM     15  C   UNL     1      -4.763 -12.445  17.070  0.00  0.00    +0.104 C 
ATOM     16  C   UNL     1      -6.327 -14.240  16.746  0.00  0.00    +0.104 C 
ATOM     18  C   UNL     1      -4.163 -12.664  15.679  0.00  0.00    +0.120 C 
ATOM     19  C   UNL     1      -5.780 -14.520  15.345  0.00  0.00    +0.120 C 
BRANCH   8  21
ATOM      2  F   UNL     1      -1.121 -16.070  11.264  0.00  0.00    -0.205 F 
ATOM     21  C   UNL     1      -3.569 -14.555  14.225  0.00  0.00    +0.030 A 
ATOM     23  C   UNL     1      -3.581 -13.986  12.951  0.00  0.00    +0.026 A 
ATOM     24  C   UNL     1      -2.729 -15.635  14.498  0.00  0.00    +0.026 A 
ATOM     25  C   UNL     1      -2.755 -14.498  11.950  0.00  0.00    +0.040 A 
ATOM     26  C   UNL     1      -1.902 -16.146  13.497  0.00  0.00    +0.040 A 
ATOM     27  C   UNL     1      -1.916 -15.577  12.224  0.00  0.00    +0.124 A 
ENDBRANCH   8  21
ENDBRANCH  11   7
BRANCH  13   4
ATOM      4  O   UNL     1      -8.955 -12.187  17.443  0.00  0.00    -0.388 OA
ATOM     34  H   UNL     1      -8.446 -12.348  16.630  0.00  0.00    +0.210 HD
ENDBRANCH  13   4
BRANCH  12  17
ATOM     17  C   UNL     1      -6.602 -10.008  17.920  0.00  0.00    +0.139 C 
BRANCH  17   9
ATOM      6  O   UNL     1      -8.644  -9.449  15.990  0.00  0.00    -0.253 OA
ATOM      9  N   UNL     1      -7.744  -9.162  18.101  0.00  0.00    -0.297 N 
ATOM     10  N   UNL     1      -9.703  -8.069  17.566  0.00  0.00    -0.269 N 
ATOM     22  C   UNL     1      -8.708  -8.935  17.104  0.00  0.00    +0.304 C 
ATOM     35  H   UNL     1      -7.868  -8.713  19.003  0.00  0.00    +0.150 HD
ATOM     37  H   UNL     1      -9.605  -7.730  18.520  0.00  0.00    +0.156 HD
BRANCH  10  28
ATOM      1 CL   UNL     1     -14.615  -8.764  16.243  0.00  0.00    -0.083 Cl
ATOM     28  C   UNL     1     -10.839  -7.600  16.867  0.00  0.00    +0.036 A 
ATOM     29  C   UNL     1     -12.027  -8.329  16.896  0.00  0.00    +0.043 A 
ATOM     30  C   UNL     1     -10.771  -6.406  16.148  0.00  0.00    +0.023 A 
ATOM     31  C   UNL     1     -13.147  -7.865  16.206  0.00  0.00    +0.043 A 
ATOM     32  C   UNL     1     -11.890  -5.942  15.459  0.00  0.00    +0.003 A 
ATOM     33  C   UNL     1     -13.079  -6.672  15.488  0.00  0.00    +0.020 A 
ENDBRANCH  10  28
ENDBRANCH  17   9
ENDBRANCH  12  17
BRANCH  14  20
ATOM     20  C   UNL     1      -9.993 -11.633  20.013  0.00  0.00    +0.190 C 
BRANCH  20   5
ATOM      5  O   UNL     1     -10.070 -10.227  19.835  0.00  0.00    -0.392 OA
ATOM     36  H   UNL     1     -10.602  -9.874  20.568  0.00  0.00    +0.210 HD
ENDBRANCH  20   5
ENDBRANCH  14  20
TORSDOF 8
ENDMDL
MODEL 7
REMARK VINA RESULT:      -6.5     25.951     29.485
REMARK  Name = 28961874
REMARK  8 active torsions:
REMARK  status: ('A' for Active; 'I' for Inactive)
REMARK    1  A    between atoms: O_4  and  C_13
REMARK    2  A    between atoms: O_5  and  C_20
REMARK    3  A    between atoms: N_7  and  C_11
REMARK    4  A    between atoms: N_8  and  C_21
REMARK    5  A    between atoms: N_9  and  C_17
REMARK    6  A    between atoms: N_10  and  C_28
REMARK    7  A    between atoms: C_12  and  C_17
REMARK    8  A    between atoms: C_14  and  C_20
REMARK                            x       y       z     vdW  Elec       q    Type
REMARK                         _______ _______ _______ _____ _____    ______ ____
ROOT
ATOM      3  O   UNL     1      13.497   6.631  -0.058  0.00  0.00    -0.365 OA
ATOM     11  C   UNL     1      11.980   6.395   1.761  0.00  0.00    +0.118 C 
ATOM     12  C   UNL     1      13.407   6.802   1.374  0.00  0.00    +0.155 C 
ATOM     13  C   UNL     1      11.588   5.428   0.654  0.00  0.00    +0.165 C 
ATOM     14  C   UNL     1      12.256   6.088  -0.546  0.00  0.00    +0.174 C 
ENDROOT
BRANCH  11   7
ATOM      7  N   UNL     1      11.797   5.897   3.112  0.00  0.00    -0.292 NA
ATOM      8  N   UNL     1      10.518   5.666   5.656  0.00  0.00    -0.327 N 
ATOM     15  C   UNL     1      11.867   6.998   4.081  0.00  0.00    +0.104 C 
ATOM     16  C   UNL     1      10.510   5.202   3.237  0.00  0.00    +0.104 C 
ATOM     18  C   UNL     1      11.732   6.479   5.514  0.00  0.00    +0.120 C 
ATOM     19  C   UNL     1      10.330   4.623   4.642  0.00  0.00    +0.120 C 
BRANCH   8  21
ATOM      2  F   UNL     1       8.443   4.960  10.732  0.00  0.00    -0.205 F 
ATOM     21  C   UNL     1       9.994   5.487   6.941  0.00  0.00    +0.030 A 
ATOM     23  C   UNL     1       9.427   6.566   7.619  0.00  0.00    +0.026 A 
ATOM     24  C   UNL     1      10.035   4.229   7.543  0.00  0.00    +0.026 A 
ATOM     25  C   UNL     1       8.904   6.389   8.899  0.00  0.00    +0.040 A 
ATOM     26  C   UNL     1       9.511   4.052   8.824  0.00  0.00    +0.040 A 
ATOM     27  C   UNL     1       8.946   5.132   9.502  0.00  0.00    +0.124 A 
ENDBRANCH   8  21
ENDBRANCH  11   7
BRANCH  13   4
ATOM      4  O   UNL     1      12.134   4.134   0.877  0.00  0.00    -0.388 OA
ATOM     34  H   UNL     1      11.614   3.500   0.354  0.00  0.00    +0.210 HD
ENDBRANCH  13   4
BRANCH  12  17
ATOM     17  C   UNL     1      14.540   5.996   1.998  0.00  0.00    +0.139 C 
BRANCH  17   9
ATOM      6  O   UNL     1      15.326   7.051   4.543  0.00  0.00    -0.253 OA
ATOM      9  N   UNL     1      15.677   6.826   2.268  0.00  0.00    -0.297 N 
ATOM     10  N   UNL     1      17.158   8.088   3.505  0.00  0.00    -0.269 N 
ATOM     22  C   UNL     1      16.000   7.307   3.548  0.00  0.00    +0.304 C 
ATOM     35  H   UNL     1      16.287   7.067   1.493  0.00  0.00    +0.150 HD
ATOM     37  H   UNL     1      17.597   8.202   2.595  0.00  0.00    +0.156 HD
BRANCH  10  28
ATOM      1 CL   UNL     1      20.885   8.070   7.037  0.00  0.00    -0.083 Cl
ATOM     28  C   UNL     1      17.802   8.745   4.578  0.00  0.00    +0.036 A 
ATOM     29  C   UNL     1      18.897   8.152   5.205  0.00  0.00    +0.043 A 
ATOM     30  C   UNL     1      17.341   9.990   5.010  0.00  0.00    +0.023 A 
ATOM     31  C   UNL     1      19.532   8.802   6.264  0.00  0.00    +0.043 A 
ATOM     32  C   UNL     1      17.976  10.640   6.068  0.00  0.00    +0.003 A 
ATOM     33  C   UNL     1      19.071  10.046   6.695  0.00  0.00    +0.020 A 
ENDBRANCH  10  28
ENDBRANCH  17   9
ENDBRANCH  12  17
BRANCH  14  20
ATOM     20  C   UNL     1      12.539   5.170  -1.721  0.00  0.00    +0.190 C 
BRANCH  20   5
ATOM      5  O   UNL     1      11.416   4.326  -1.925  0.00  0.00    -0.392 OA
ATOM     36  H   UNL     1      11.016   4.167  -1.053  0.00  0.00    +0.210 HD
ENDBRANCH  20   5
ENDBRANCH  14  20
TORSDOF 8
ENDMDL
MODEL 8
REMARK VINA RESULT:      -6.5      4.645      5.540
REMARK  Name = 28961874
REMARK  8 active torsions:
REMARK  status: ('A' for Active; 'I' for Inactive)
REMARK    1  A    between atoms: O_4  and  C_13
REMARK    2  A    between atoms: O_5  and  C_20
REMARK    3  A    between atoms: N_7  and  C_11
REMARK    4  A    between atoms: N_8  and  C_21
REMARK    5  A    between atoms: N_9  and  C_17
REMARK    6  A    between atoms: N_10  and  C_28
REMARK    7  A    between atoms: C_12  and  C_17
REMARK    8  A    between atoms: C_14  and  C_20
REMARK                            x       y       z     vdW  Elec       q    Type
REMARK                         _______ _______ _______ _____ _____    ______ ____
ROOT
ATOM      3  O   UNL     1      -9.381 -12.486  18.998  0.00  0.00    -0.365 OA
ATOM     11  C   UNL     1      -8.881 -12.024  16.716  0.00  0.00    +0.118 C 
ATOM     12  C   UNL     1      -8.388 -12.742  17.979  0.00  0.00    +0.155 C 
ATOM     13  C   UNL     1      -9.748 -10.906  17.275  0.00  0.00    +0.165 C 
ATOM     14  C   UNL     1     -10.394 -11.614  18.459  0.00  0.00    +0.174 C 
ENDROOT
BRANCH  11   7
ATOM      7  N   UNL     1      -7.859 -11.605  15.775  0.00  0.00    -0.292 NA
ATOM      8  N   UNL     1      -6.833 -10.735  13.254  0.00  0.00    -0.327 N 
ATOM     15  C   UNL     1      -7.791 -12.535  14.641  0.00  0.00    +0.104 C 
ATOM     16  C   UNL     1      -8.129 -10.246  15.291  0.00  0.00    +0.104 C 
ATOM     18  C   UNL     1      -6.678 -12.135  13.669  0.00  0.00    +0.120 C 
ATOM     19  C   UNL     1      -7.028  -9.770  14.341  0.00  0.00    +0.120 C 
BRANCH   8  21
ATOM      2  F   UNL     1      -4.386  -9.124   8.566  0.00  0.00    -0.205 F 
ATOM     21  C   UNL     1      -6.214 -10.328  12.068  0.00  0.00    +0.030 A 
ATOM     23  C   UNL     1      -5.960  -8.975  11.844  0.00  0.00    +0.026 A 
ATOM     24  C   UNL     1      -5.851 -11.274  11.109  0.00  0.00    +0.026 A 
ATOM     25  C   UNL     1      -5.343  -8.567  10.661  0.00  0.00    +0.040 A 
ATOM     26  C   UNL     1      -5.233 -10.866   9.926  0.00  0.00    +0.040 A 
ATOM     27  C   UNL     1      -4.979  -9.513   9.703  0.00  0.00    +0.124 A 
ENDBRANCH   8  21
ENDBRANCH  11   7
BRANCH  13   4
ATOM      4  O   UNL     1      -8.959  -9.810  17.721  0.00  0.00    -0.388 OA
ATOM     34  H   UNL     1      -8.164  -9.773  17.163  0.00  0.00    +0.210 HD
ENDBRANCH  13   4
BRANCH  12  17
ATOM     17  C   UNL     1      -7.043 -12.294  18.538  0.00  0.00    +0.139 C 
BRANCH  17   9
ATOM      6  O   UNL     1      -5.192 -10.334  17.568  0.00  0.00    -0.253 OA
ATOM      9  N   UNL     1      -5.993 -12.504  17.585  0.00  0.00    -0.297 N 
ATOM     10  N   UNL     1      -4.202 -11.986  16.227  0.00  0.00    -0.269 N 
ATOM     22  C   UNL     1      -5.120 -11.489  17.155  0.00  0.00    +0.304 C 
ATOM     35  H   UNL     1      -5.867 -13.439  17.211  0.00  0.00    +0.150 HD
ATOM     37  H   UNL     1      -4.281 -12.973  15.992  0.00  0.00    +0.156 HD
BRANCH  10  28
ATOM      1 CL   UNL     1      -2.264 -10.181  11.828  0.00  0.00    -0.083 Cl
ATOM     28  C   UNL     1      -3.169 -11.284  15.566  0.00  0.00    +0.036 A 
ATOM     29  C   UNL     1      -3.220 -11.101  14.185  0.00  0.00    +0.043 A 
ATOM     30  C   UNL     1      -2.096 -10.771  16.297  0.00  0.00    +0.023 A 
ATOM     31  C   UNL     1      -2.200 -10.407  13.534  0.00  0.00    +0.043 A 
ATOM     32  C   UNL     1      -1.077 -10.077  15.647  0.00  0.00    +0.003 A 
ATOM     33  C   UNL     1      -1.129  -9.895  14.265  0.00  0.00    +0.020 A 
ENDBRANCH  10  28
ENDBRANCH  17   9
ENDBRANCH  12  17
BRANCH  14  20
ATOM     20  C   UNL     1     -10.909 -10.706  19.561  0.00  0.00    +0.190 C 
BRANCH  20   5
ATOM      5  O   UNL     1      -9.830 -10.368  20.419  0.00  0.00    -0.392 OA
ATOM     36  H   UNL     1      -9.655 -11.145  20.978  0.00  0.00    +0.210 HD
ENDBRANCH  20   5
ENDBRANCH  14  20
TORSDOF 8
ENDMDL
MODEL 9
REMARK VINA RESULT:      -6.4     25.605     29.233
REMARK  Name = 28961874
REMARK  8 active torsions:
REMARK  status: ('A' for Active; 'I' for Inactive)
REMARK    1  A    between atoms: O_4  and  C_13
REMARK    2  A    between atoms: O_5  and  C_20
REMARK    3  A    between atoms: N_7  and  C_11
REMARK    4  A    between atoms: N_8  and  C_21
REMARK    5  A    between atoms: N_9  and  C_17
REMARK    6  A    between atoms: N_10  and  C_28
REMARK    7  A    between atoms: C_12  and  C_17
REMARK    8  A    between atoms: C_14  and  C_20
REMARK                            x       y       z     vdW  Elec       q    Type
REMARK                         _______ _______ _______ _____ _____    ______ ____
ROOT
ATOM      3  O   UNL     1       8.983   5.854   6.810  0.00  0.00    -0.365 OA
ATOM     11  C   UNL     1      10.982   7.122   6.557  0.00  0.00    +0.118 C 
ATOM     12  C   UNL     1       9.914   6.316   5.806  0.00  0.00    +0.155 C 
ATOM     13  C   UNL     1      10.944   6.523   7.954  0.00  0.00    +0.165 C 
ATOM     14  C   UNL     1       9.450   6.264   8.109  0.00  0.00    +0.174 C 
ENDROOT
BRANCH  11   7
ATOM      7  N   UNL     1      12.295   7.178   5.942  0.00  0.00    -0.292 NA
ATOM      8  N   UNL     1      14.818   8.345   5.280  0.00  0.00    -0.327 N 
ATOM     15  C   UNL     1      12.371   8.293   4.988  0.00  0.00    +0.104 C 
ATOM     16  C   UNL     1      13.338   7.325   6.964  0.00  0.00    +0.104 C 
ATOM     18  C   UNL     1      13.732   8.328   4.291  0.00  0.00    +0.120 C 
ATOM     19  C   UNL     1      14.732   7.328   6.333  0.00  0.00    +0.120 C 
BRANCH   8  21
ATOM      2  F   UNL     1      19.763  10.223   3.674  0.00  0.00    -0.205 F 
ATOM     21  C   UNL     1      16.069   8.820   4.874  0.00  0.00    +0.030 A 
ATOM     23  C   UNL     1      16.229   9.364   3.599  0.00  0.00    +0.026 A 
ATOM     24  C   UNL     1      17.158   8.751   5.744  0.00  0.00    +0.026 A 
ATOM     25  C   UNL     1      17.476   9.837   3.193  0.00  0.00    +0.040 A 
ATOM     26  C   UNL     1      18.406   9.225   5.337  0.00  0.00    +0.040 A 
ATOM     27  C   UNL     1      18.564   9.768   4.062  0.00  0.00    +0.124 A 
ENDBRANCH   8  21
ENDBRANCH  11   7
BRANCH  13   4
ATOM      4  O   UNL     1      11.668   5.300   8.015  0.00  0.00    -0.388 OA
ATOM     34  H   UNL     1      11.597   4.873   7.144  0.00  0.00    +0.210 HD
ENDBRANCH  13   4
BRANCH  12  17
ATOM     17  C   UNL     1      10.397   5.091   5.039  0.00  0.00    +0.139 C 
BRANCH  17   9
ATOM      6  O   UNL     1      11.292   3.291   2.999  0.00  0.00    -0.253 OA
ATOM      9  N   UNL     1      10.716   5.424   3.683  0.00  0.00    -0.297 N 
ATOM     10  N   UNL     1      11.383   5.094   1.500  0.00  0.00    -0.269 N 
ATOM     22  C   UNL     1      11.150   4.482   2.734  0.00  0.00    +0.304 C 
ATOM     35  H   UNL     1      10.609   6.390   3.389  0.00  0.00    +0.150 HD
ATOM     37  H   UNL     1      11.216   6.096   1.450  0.00  0.00    +0.156 HD
BRANCH  10  28
ATOM      1 CL   UNL     1      10.234   3.273  -3.161  0.00  0.00    -0.083 Cl
ATOM     28  C   UNL     1      11.827   4.490   0.301  0.00  0.00    +0.036 A 
ATOM     29  C   UNL     1      10.918   4.211  -0.719  0.00  0.00    +0.043 A 
ATOM     30  C   UNL     1      13.176   4.173   0.138  0.00  0.00    +0.023 A 
ATOM     31  C   UNL     1      11.356   3.616  -1.902  0.00  0.00    +0.043 A 
ATOM     32  C   UNL     1      13.614   3.578  -1.044  0.00  0.00    +0.003 A 
ATOM     33  C   UNL     1      12.705   3.299  -2.064  0.00  0.00    +0.020 A 
ENDBRANCH  10  28
ENDBRANCH  17   9
ENDBRANCH  12  17
BRANCH  14  20
ATOM     20  C   UNL     1       9.074   5.208   9.133  0.00  0.00    +0.190 C 
BRANCH  20   5
ATOM      5  O   UNL     1       9.421   3.930   8.622  0.00  0.00    -0.392 OA
ATOM     36  H   UNL     1       9.794   3.419   9.359  0.00  0.00    +0.210 HD
ENDBRANCH  20   5
ENDBRANCH  14  20
TORSDOF 8
ENDMDL
MODEL 10
REMARK VINA RESULT:      -6.4      7.249     11.796
REMARK  Name = 28961874
REMARK  8 active torsions:
REMARK  status: ('A' for Active; 'I' for Inactive)
REMARK    1  A    between atoms: O_4  and  C_13
REMARK    2  A    between atoms: O_5  and  C_20
REMARK    3  A    between atoms: N_7  and  C_11
REMARK    4  A    between atoms: N_8  and  C_21
REMARK    5  A    between atoms: N_9  and  C_17
REMARK    6  A    between atoms: N_10  and  C_28
REMARK    7  A    between atoms: C_12  and  C_17
REMARK    8  A    between atoms: C_14  and  C_20
REMARK                            x       y       z     vdW  Elec       q    Type
REMARK                         _______ _______ _______ _____ _____    ______ ____
ROOT
ATOM      3  O   UNL     1      -9.572  -8.549   5.445  0.00  0.00    -0.365 OA
ATOM     11  C   UNL     1      -7.753  -9.415   6.712  0.00  0.00    +0.118 C 
ATOM     12  C   UNL     1      -9.106  -8.699   6.805  0.00  0.00    +0.155 C 
ATOM     13  C   UNL     1      -7.260  -9.038   5.323  0.00  0.00    +0.165 C 
ATOM     14  C   UNL     1      -8.570  -9.058   4.545  0.00  0.00    +0.174 C 
ENDROOT
BRANCH  11   7
ATOM      7  N   UNL     1      -6.817  -9.161   7.792  0.00  0.00    -0.292 NA
ATOM      8  N   UNL     1      -5.058  -9.852   9.935  0.00  0.00    -0.327 N 
ATOM     15  C   UNL     1      -7.356  -9.652   9.067  0.00  0.00    +0.104 C 
ATOM     16  C   UNL     1      -5.525  -9.803   7.517  0.00  0.00    +0.104 C 
ATOM     18  C   UNL     1      -6.403  -9.339  10.223  0.00  0.00    +0.120 C 
ATOM     19  C   UNL     1      -4.511  -9.496   8.621  0.00  0.00    +0.120 C 
BRANCH   8  21
ATOM      2  F   UNL     1      -1.633 -10.697  14.193  0.00  0.00    -0.205 F 
ATOM     21  C   UNL     1      -4.191 -10.065  11.012  0.00  0.00    +0.030 A 
ATOM     23  C   UNL     1      -4.706 -10.381  12.269  0.00  0.00    +0.026 A 
ATOM     24  C   UNL     1      -2.811  -9.964  10.829  0.00  0.00    +0.026 A 
ATOM     25  C   UNL     1      -3.843 -10.594  13.344  0.00  0.00    +0.040 A 
ATOM     26  C   UNL     1      -1.948 -10.178  11.904  0.00  0.00    +0.040 A 
ATOM     27  C   UNL     1      -2.464 -10.493  13.161  0.00  0.00    +0.124 A 
ENDBRANCH   8  21
ENDBRANCH  11   7
BRANCH  13   4
ATOM      4  O   UNL     1      -6.694  -7.734   5.309  0.00  0.00    -0.388 OA
ATOM     34  H   UNL     1      -6.608  -7.460   4.380  0.00  0.00    +0.210 HD
ENDBRANCH  13   4
BRANCH  12  17
ATOM     17  C   UNL     1      -9.103  -7.312   7.437  0.00  0.00    +0.139 C 
BRANCH  17   9
ATOM      6  O   UNL     1     -10.080  -4.869   8.569  0.00  0.00    -0.253 OA
ATOM      9  N   UNL     1     -10.174  -7.173   8.379  0.00  0.00    -0.297 N 
ATOM     10  N   UNL     1     -11.658  -6.109   9.787  0.00  0.00    -0.269 N 
ATOM     22  C   UNL     1     -10.599  -5.935   8.892  0.00  0.00    +0.304 C 
ATOM     35  H   UNL     1     -10.658  -8.012   8.681  0.00  0.00    +0.150 HD
ATOM     37  H   UNL     1     -11.970  -7.064   9.945  0.00  0.00    +0.156 HD
BRANCH  10  28
ATOM      1 CL   UNL     1     -15.112  -2.309   9.764  0.00  0.00    -0.083 Cl
ATOM     28  C   UNL     1     -12.358  -5.114  10.508  0.00  0.00    +0.036 A 
ATOM     29  C   UNL     1     -13.281  -4.297   9.856  0.00  0.00    +0.043 A 
ATOM     30  C   UNL     1     -12.124  -4.949  11.874  0.00  0.00    +0.023 A 
ATOM     31  C   UNL     1     -13.971  -3.316  10.569  0.00  0.00    +0.043 A 
ATOM     32  C   UNL     1     -12.813  -3.969  12.586  0.00  0.00    +0.003 A 
ATOM     33  C   UNL     1     -13.737  -3.152  11.934  0.00  0.00    +0.020 A 
ENDBRANCH  10  28
ENDBRANCH  17   9
ENDBRANCH  12  17
BRANCH  14  20
ATOM     20  C   UNL     1      -8.581  -8.239   3.267  0.00  0.00    +0.190 C 
BRANCH  20   5
ATOM      5  O   UNL     1      -8.802  -6.877   3.598  0.00  0.00    -0.392 OA
ATOM     36  H   UNL     1      -8.744  -6.368   2.772  0.00  0.00    +0.210 HD
ENDBRANCH  20   5
ENDBRANCH  14  20
TORSDOF 8
ENDMDL
