REMARK  Name = 11867377
REMARK  12 active torsions:
REMARK  status: ('A' for Active; 'I' for Inactive)
REMARK    1  A    between atoms: O_3  and  C_14
REMARK    2  A    between atoms: O_3  and  C_18
REMARK    3  A    between atoms: O_6  and  C_28
REMARK    4  A    between atoms: O_6  and  C_33
REMARK    5  A    between atoms: O_7  and  C_29
REMARK    6  A    between atoms: O_7  and  C_34
REMARK    7  A    between atoms: N_8  and  C_13
REMARK    8  A    between atoms: N_9  and  C_22
REMARK    9  A    between atoms: N_10  and  C_25
REMARK   10  A    between atoms: N_10  and  C_31
REMARK   11  A    between atoms: N_10  and  C_32
REMARK   12  A    between atoms: C_17  and  C_19
REMARK                            x       y       z     vdW  Elec       q    Type
REMARK                         _______ _______ _______ _____ _____    ______ ____
ROOT
ATOM      1  O   UNL     1      -0.384   1.832   0.945  0.00  0.00    -0.368 OA
ATOM      2  O   UNL     1      -0.851   3.844  -1.321  0.00  0.00    -0.368 OA
ATOM     11  C   UNL     1      -1.394   2.529  -1.084  0.00  0.00    +0.173 C 
ATOM     12  C   UNL     1      -0.280   1.696  -0.482  0.00  0.00    +0.192 C 
ATOM     13  C   UNL     1      -2.435   2.586   0.009  0.00  0.00    +0.130 C 
ATOM     14  C   UNL     1       0.959   2.371  -1.019  0.00  0.00    +0.235 C 
ATOM     15  C   UNL     1      -1.584   2.552   1.267  0.00  0.00    +0.185 C 
ATOM     16  C   UNL     1       0.553   3.827  -1.024  0.00  0.00    +0.207 C 
ENDROOT
BRANCH  13   8
ATOM      4  O   UNL     1      -5.129   2.457   0.997  0.00  0.00    -0.270 OA
ATOM      8  N   UNL     1      -3.323   1.450  -0.055  0.00  0.00    -0.304 N 
ATOM     17  C   UNL     1      -4.614   1.484   0.453  0.00  0.00    +0.244 C 
ATOM     35  H   UNL     1      -2.932   0.577  -0.393  0.00  0.00    +0.149 HD
BRANCH  17  19
ATOM     19  C   UNL     1      -5.393   0.224   0.333  0.00  0.00    +0.037 A 
ATOM     20  C   UNL     1      -5.107  -0.678  -0.692  0.00  0.00    +0.015 A 
ATOM     21  C   UNL     1      -6.410  -0.057   1.245  0.00  0.00    +0.015 A 
ATOM     23  C   UNL     1      -5.838  -1.861  -0.804  0.00  0.00    +0.024 A 
ATOM     24  C   UNL     1      -7.141  -1.239   1.133  0.00  0.00    +0.024 A 
ATOM     25  C   UNL     1      -6.855  -2.141   0.108  0.00  0.00    +0.029 A 
BRANCH  25  10
ATOM     10  N   UNL     1      -7.595  -3.336  -0.007  0.00  0.00    -0.336 N 
ATOM     31  C   UNL     1      -7.315  -4.273  -1.077  0.00  0.00    +0.129 C 
ATOM     32  C   UNL     1      -8.655  -3.637   0.935  0.00  0.00    +0.129 C 
ENDBRANCH  25  10
ENDBRANCH  17  19
ENDBRANCH  13   8
BRANCH  14   3
ATOM      3  O   UNL     1       2.109   2.143  -0.235  0.00  0.00    -0.442 OA
BRANCH   3  18
ATOM      5  O   UNL     1       2.657   0.355  -1.552  0.00  0.00    -0.226 OA
ATOM      9  N   UNL     1       3.986   0.998   0.265  0.00  0.00    -0.251 N 
ATOM     18  C   UNL     1       2.911   1.081  -0.598  0.00  0.00    +0.405 C 
ATOM     36  H   UNL     1       4.026   1.697   1.003  0.00  0.00    +0.158 HD
BRANCH   9  22
ATOM     22  C   UNL     1       5.043   0.059   0.250  0.00  0.00    +0.043 A 
ATOM     26  C   UNL     1       5.077  -0.938  -0.725  0.00  0.00    +0.069 A 
ATOM     27  C   UNL     1       6.053   0.131   1.210  0.00  0.00    +0.069 A 
ATOM     28  C   UNL     1       7.096  -0.794   1.195  0.00  0.00    +0.125 A 
ATOM     29  C   UNL     1       6.121  -1.863  -0.740  0.00  0.00    +0.125 A 
ATOM     30  C   UNL     1       7.130  -1.791   0.220  0.00  0.00    +0.091 A 
BRANCH  28   6
ATOM      6  O   UNL     1       8.083  -0.724   2.131  0.00  0.00    -0.495 OA
ATOM     33  C   UNL     1       9.119  -1.702   2.057  0.00  0.00    +0.277 C 
ENDBRANCH  28   6
BRANCH  29   7
ATOM      7  O   UNL     1       6.155  -2.835  -1.692  0.00  0.00    -0.495 OA
ATOM     34  C   UNL     1       7.251  -3.748  -1.649  0.00  0.00    +0.277 C 
ENDBRANCH  29   7
ENDBRANCH   9  22
ENDBRANCH   3  18
ENDBRANCH  14   3
TORSDOF 8
