MODEL 1
REMARK VINA RESULT:      -8.3      0.000      0.000
REMARK  Name = 45783846
REMARK  6 active torsions:
REMARK  status: ('A' for Active; 'I' for Inactive)
REMARK    1  A    between atoms: O_3  and  C_23
REMARK    2  A    between atoms: C_10  and  C_15
REMARK    3  A    between atoms: C_16  and  C_17
REMARK    4  A    between atoms: C_17  and  C_19
REMARK    5  A    between atoms: C_19  and  C_23
REMARK    6  A    between atoms: C_20  and  C_21
REMARK                            x       y       z     vdW  Elec       q    Type
REMARK                         _______ _______ _______ _____ _____    ______ ____
ROOT
ATOM      2  O   UNL     1      12.241   8.360  22.071  0.00  0.00    -0.276 OA
ATOM      5  N   UNL     1      13.087   9.061  20.017  0.00  0.00    -0.284 N 
ATOM      6  N   UNL     1      13.293  10.696  16.669  0.00  0.00    -0.347 N 
ATOM      7  N   UNL     1      12.472   8.759  15.916  0.00  0.00    -0.240 NA
ATOM     10  C   UNL     1      13.185   7.658  19.485  0.00  0.00    +0.171 C 
ATOM     11  C   UNL     1      12.443   7.514  18.121  0.00  0.00    +0.089 C 
ATOM     12  C   UNL     1      13.575  10.168  19.147  0.00  0.00    +0.163 C 
ATOM     13  C   UNL     1      13.201   9.871  17.751  0.00  0.00    +0.056 A 
ATOM     14  C   UNL     1      12.698   8.691  17.262  0.00  0.00    +0.066 A 
ATOM     16  C   UNL     1      12.647   9.260  21.332  0.00  0.00    +0.217 C 
ATOM     18  C   UNL     1      12.843   9.981  15.588  0.00  0.00    +0.197 A 
ATOM     32  H   UNL     1      13.631  11.649  16.660  0.00  0.00    +0.167 HD
ENDROOT
BRANCH  10  15
ATOM      1  O   UNL     1      15.026   6.357  18.513  0.00  0.00    -0.336 OA
ATOM      8  N   UNL     1      15.561   7.402  20.421  0.00  0.00    -0.190 NA
ATOM      9  N   UNL     1      16.366   6.038  18.770  0.00  0.00    -0.056 NA
ATOM     15  C   UNL     1      14.629   7.163  19.532  0.00  0.00    +0.249 A 
ATOM     20  C   UNL     1      16.607   6.690  19.912  0.00  0.00    +0.202 A 
BRANCH  20  21
ATOM     21  C   UNL     1      17.883   6.654  20.567  0.00  0.00    +0.023 A 
ATOM     22  C   UNL     1      18.831   5.702  20.194  0.00  0.00    +0.020 A 
ATOM     24  C   UNL     1      20.085   5.654  20.825  0.00  0.00    -0.017 A 
ATOM     25  C   UNL     1      18.173   7.571  21.574  0.00  0.00    +0.012 A 
ATOM     26  C   UNL     1      20.381   6.586  21.849  0.00  0.00    -0.018 A 
ATOM     27  C   UNL     1      19.414   7.538  22.211  0.00  0.00    +0.009 A 
ATOM     28  C   UNL     1      21.052   4.702  20.463  0.00  0.00    +0.008 A 
ATOM     29  C   UNL     1      21.634   6.538  22.480  0.00  0.00    +0.008 A 
ATOM     30  C   UNL     1      22.293   4.669  21.101  0.00  0.00    +0.001 A 
ATOM     31  C   UNL     1      22.583   5.585  22.108  0.00  0.00    +0.001 A 
ENDBRANCH  20  21
ENDBRANCH  10  15
BRANCH  16  17
ATOM     17  C   UNL     1      12.683  10.676  21.848  0.00  0.00    +0.107 C 
BRANCH  17  19
ATOM     19  C   UNL     1      11.270  11.172  22.086  0.00  0.00    +0.129 C 
BRANCH  19  23
ATOM      4  O   UNL     1      10.549  12.347  24.070  0.00  0.00    -0.251 OA
ATOM     23  C   UNL     1      10.987  11.325  23.560  0.00  0.00    +0.305 C 
BRANCH  23   3
ATOM      3  O   UNL     1      11.292  10.209  24.269  0.00  0.00    -0.481 OA
ATOM     33  H   UNL     1      10.523   9.874  24.775  0.00  0.00    +0.295 HD
ENDBRANCH  23   3
ENDBRANCH  19  23
ENDBRANCH  17  19
ENDBRANCH  16  17
TORSDOF 6
ENDMDL
MODEL 2
REMARK VINA RESULT:      -7.8     13.502     18.032
REMARK  Name = 45783846
REMARK  6 active torsions:
REMARK  status: ('A' for Active; 'I' for Inactive)
REMARK    1  A    between atoms: O_3  and  C_23
REMARK    2  A    between atoms: C_10  and  C_15
REMARK    3  A    between atoms: C_16  and  C_17
REMARK    4  A    between atoms: C_17  and  C_19
REMARK    5  A    between atoms: C_19  and  C_23
REMARK    6  A    between atoms: C_20  and  C_21
REMARK                            x       y       z     vdW  Elec       q    Type
REMARK                         _______ _______ _______ _____ _____    ______ ____
ROOT
ATOM      2  O   UNL     1       8.886   7.508   6.980  0.00  0.00    -0.276 OA
ATOM      5  N   UNL     1      11.157   7.107   6.641  0.00  0.00    -0.284 N 
ATOM      6  N   UNL     1      14.864   7.378   6.963  0.00  0.00    -0.347 N 
ATOM      7  N   UNL     1      14.672   8.913   5.351  0.00  0.00    -0.240 NA
ATOM     10  C   UNL     1      11.112   7.583   5.216  0.00  0.00    +0.171 C 
ATOM     11  C   UNL     1      12.181   8.687   4.951  0.00  0.00    +0.089 C 
ATOM     12  C   UNL     1      12.451   6.579   7.157  0.00  0.00    +0.163 C 
ATOM     13  C   UNL     1      13.547   7.402   6.611  0.00  0.00    +0.056 A 
ATOM     14  C   UNL     1      13.457   8.348   5.619  0.00  0.00    +0.066 A 
ATOM     16  C   UNL     1       9.970   7.079   7.385  0.00  0.00    +0.217 C 
ATOM     18  C   UNL     1      15.500   8.306   6.177  0.00  0.00    +0.197 A 
ATOM     32  H   UNL     1      15.293   6.791   7.666  0.00  0.00    +0.167 HD
ENDROOT
BRANCH  10  15
ATOM      1  O   UNL     1      10.481   5.270   4.684  0.00  0.00    -0.336 OA
ATOM      8  N   UNL     1      11.613   6.302   3.049  0.00  0.00    -0.190 NA
ATOM      9  N   UNL     1      10.601   4.338   3.644  0.00  0.00    -0.056 NA
ATOM     15  C   UNL     1      11.103   6.398   4.252  0.00  0.00    +0.249 A 
ATOM     20  C   UNL     1      11.281   5.021   2.718  0.00  0.00    +0.202 A 
BRANCH  20  21
ATOM     21  C   UNL     1      11.641   4.453   1.450  0.00  0.00    +0.023 A 
ATOM     22  C   UNL     1      10.817   4.645   0.342  0.00  0.00    +0.020 A 
ATOM     24  C   UNL     1      11.156   4.096  -0.906  0.00  0.00    -0.017 A 
ATOM     25  C   UNL     1      12.814   3.713   1.329  0.00  0.00    +0.012 A 
ATOM     26  C   UNL     1      12.349   3.343  -1.031  0.00  0.00    -0.018 A 
ATOM     27  C   UNL     1      13.167   3.162   0.097  0.00  0.00    +0.009 A 
ATOM     28  C   UNL     1      10.339   4.278  -2.033  0.00  0.00    +0.008 A 
ATOM     29  C   UNL     1      12.688   2.795  -2.278  0.00  0.00    +0.008 A 
ATOM     30  C   UNL     1      10.691   3.726  -3.265  0.00  0.00    +0.001 A 
ATOM     31  C   UNL     1      11.863   2.986  -3.387  0.00  0.00    +0.001 A 
ENDBRANCH  20  21
ENDBRANCH  10  15
BRANCH  16  17
ATOM     17  C   UNL     1      10.054   6.482   8.767  0.00  0.00    +0.107 C 
BRANCH  17  19
ATOM     19  C   UNL     1       9.043   5.361   8.905  0.00  0.00    +0.129 C 
BRANCH  19  23
ATOM      4  O   UNL     1      10.167   4.218  10.714  0.00  0.00    -0.251 OA
ATOM     23  C   UNL     1       9.139   4.704  10.260  0.00  0.00    +0.305 C 
BRANCH  23   3
ATOM      3  O   UNL     1       7.953   4.686  10.918  0.00  0.00    -0.481 OA
ATOM     33  H   UNL     1       7.416   3.900  10.685  0.00  0.00    +0.295 HD
ENDBRANCH  23   3
ENDBRANCH  19  23
ENDBRANCH  17  19
ENDBRANCH  16  17
TORSDOF 6
ENDMDL
MODEL 3
REMARK VINA RESULT:      -7.6      3.176      5.478
REMARK  Name = 45783846
REMARK  6 active torsions:
REMARK  status: ('A' for Active; 'I' for Inactive)
REMARK    1  A    between atoms: O_3  and  C_23
REMARK    2  A    between atoms: C_10  and  C_15
REMARK    3  A    between atoms: C_16  and  C_17
REMARK    4  A    between atoms: C_17  and  C_19
REMARK    5  A    between atoms: C_19  and  C_23
REMARK    6  A    between atoms: C_20  and  C_21
REMARK                            x       y       z     vdW  Elec       q    Type
REMARK                         _______ _______ _______ _____ _____    ______ ____
ROOT
ATOM      2  O   UNL     1      11.008   9.183  20.135  0.00  0.00    -0.276 OA
ATOM      5  N   UNL     1      11.399  10.185  22.203  0.00  0.00    -0.284 N 
ATOM      6  N   UNL     1      10.765  11.821  25.495  0.00  0.00    -0.347 N 
ATOM      7  N   UNL     1      10.836  13.719  24.318  0.00  0.00    -0.240 NA
ATOM     10  C   UNL     1      12.074  11.379  21.588  0.00  0.00    +0.171 C 
ATOM     11  C   UNL     1      11.422  12.712  22.070  0.00  0.00    +0.089 C 
ATOM     12  C   UNL     1      11.331  10.113  23.690  0.00  0.00    +0.163 C 
ATOM     13  C   UNL     1      11.074  11.468  24.215  0.00  0.00    +0.056 A 
ATOM     14  C   UNL     1      11.114  12.649  23.515  0.00  0.00    +0.066 A 
ATOM     16  C   UNL     1      10.961   9.148  21.368  0.00  0.00    +0.217 C 
ATOM     18  C   UNL     1      10.631  13.187  25.506  0.00  0.00    +0.197 A 
ATOM     32  H   UNL     1      10.658  11.201  26.287  0.00  0.00    +0.167 HD
ENDROOT
BRANCH  10  15
ATOM      1  O   UNL     1      14.233  12.369  22.214  0.00  0.00    -0.336 OA
ATOM      8  N   UNL     1      14.383  10.268  21.453  0.00  0.00    -0.190 NA
ATOM      9  N   UNL     1      15.593  12.036  22.254  0.00  0.00    -0.056 NA
ATOM     15  C   UNL     1      13.592  11.273  21.731  0.00  0.00    +0.249 A 
ATOM     20  C   UNL     1      15.601  10.783  21.789  0.00  0.00    +0.202 A 
BRANCH  20  21
ATOM     21  C   UNL     1      16.807  10.018  21.651  0.00  0.00    +0.023 A 
ATOM     22  C   UNL     1      16.754   8.717  21.152  0.00  0.00    +0.020 A 
ATOM     24  C   UNL     1      17.925   7.956  21.011  0.00  0.00    -0.017 A 
ATOM     25  C   UNL     1      18.029  10.577  22.015  0.00  0.00    +0.012 A 
ATOM     26  C   UNL     1      19.169   8.523  21.380  0.00  0.00    -0.018 A 
ATOM     27  C   UNL     1      19.203   9.835  21.880  0.00  0.00    +0.009 A 
ATOM     28  C   UNL     1      17.890   6.644  20.510  0.00  0.00    +0.008 A 
ATOM     29  C   UNL     1      20.339   7.762  21.239  0.00  0.00    +0.008 A 
ATOM     30  C   UNL     1      19.065   5.902  20.376  0.00  0.00    +0.001 A 
ATOM     31  C   UNL     1      20.287   6.459  20.740  0.00  0.00    +0.001 A 
ENDBRANCH  20  21
ENDBRANCH  10  15
BRANCH  16  17
ATOM     17  C   UNL     1      10.399   7.926  22.048  0.00  0.00    +0.107 C 
BRANCH  17  19
ATOM     19  C   UNL     1      11.483   6.877  22.197  0.00  0.00    +0.129 C 
BRANCH  19  23
ATOM      4  O   UNL     1      10.745   4.664  21.567  0.00  0.00    -0.251 OA
ATOM     23  C   UNL     1      11.262   5.726  21.247  0.00  0.00    +0.305 C 
BRANCH  23   3
ATOM      3  O   UNL     1      11.722   5.985  19.997  0.00  0.00    -0.481 OA
ATOM     33  H   UNL     1      11.461   6.877  19.687  0.00  0.00    +0.295 HD
ENDBRANCH  23   3
ENDBRANCH  19  23
ENDBRANCH  17  19
ENDBRANCH  16  17
TORSDOF 6
ENDMDL
MODEL 4
REMARK VINA RESULT:      -7.5      3.206      7.691
REMARK  Name = 45783846
REMARK  6 active torsions:
REMARK  status: ('A' for Active; 'I' for Inactive)
REMARK    1  A    between atoms: O_3  and  C_23
REMARK    2  A    between atoms: C_10  and  C_15
REMARK    3  A    between atoms: C_16  and  C_17
REMARK    4  A    between atoms: C_17  and  C_19
REMARK    5  A    between atoms: C_19  and  C_23
REMARK    6  A    between atoms: C_20  and  C_21
REMARK                            x       y       z     vdW  Elec       q    Type
REMARK                         _______ _______ _______ _____ _____    ______ ____
ROOT
ATOM      2  O   UNL     1      16.160   5.827  19.321  0.00  0.00    -0.276 OA
ATOM      5  N   UNL     1      14.553   7.256  20.220  0.00  0.00    -0.284 N 
ATOM      6  N   UNL     1      11.982   8.644  22.540  0.00  0.00    -0.347 N 
ATOM      7  N   UNL     1      10.547   7.446  21.316  0.00  0.00    -0.240 NA
ATOM     10  C   UNL     1      13.597   7.027  19.082  0.00  0.00    +0.171 C 
ATOM     11  C   UNL     1      12.195   6.578  19.600  0.00  0.00    +0.089 C 
ATOM     12  C   UNL     1      14.157   8.229  21.276  0.00  0.00    +0.163 C 
ATOM     13  C   UNL     1      12.712   8.081  21.535  0.00  0.00    +0.056 A 
ATOM     14  C   UNL     1      11.809   7.354  20.798  0.00  0.00    +0.066 A 
ATOM     16  C   UNL     1      15.809   6.634  20.186  0.00  0.00    +0.217 C 
ATOM     18  C   UNL     1      10.685   8.232  22.365  0.00  0.00    +0.197 A 
ATOM     32  H   UNL     1      12.326   9.251  23.272  0.00  0.00    +0.167 HD
ENDROOT
BRANCH  10  15
ATOM      1  O   UNL     1      12.438   8.532  17.526  0.00  0.00    -0.336 OA
ATOM      8  N   UNL     1      14.623   8.971  17.757  0.00  0.00    -0.190 NA
ATOM      9  N   UNL     1      12.706   9.628  16.694  0.00  0.00    -0.056 NA
ATOM     15  C   UNL     1      13.619   8.209  18.114  0.00  0.00    +0.249 A 
ATOM     20  C   UNL     1      14.014   9.826  16.885  0.00  0.00    +0.202 A 
BRANCH  20  21
ATOM     21  C   UNL     1      14.742  10.870  16.223  0.00  0.00    +0.023 A 
ATOM     22  C   UNL     1      14.907  10.834  14.839  0.00  0.00    +0.020 A 
ATOM     24  C   UNL     1      15.617  11.849  14.175  0.00  0.00    -0.017 A 
ATOM     25  C   UNL     1      15.281  11.919  16.963  0.00  0.00    +0.012 A 
ATOM     26  C   UNL     1      16.165  12.915  14.927  0.00  0.00    -0.018 A 
ATOM     27  C   UNL     1      15.988  12.935  16.320  0.00  0.00    +0.009 A 
ATOM     28  C   UNL     1      15.793  11.828  12.782  0.00  0.00    +0.008 A 
ATOM     29  C   UNL     1      16.874  13.929  14.264  0.00  0.00    +0.008 A 
ATOM     30  C   UNL     1      16.500  12.845  12.139  0.00  0.00    +0.001 A 
ATOM     31  C   UNL     1      17.040  13.894  12.879  0.00  0.00    +0.001 A 
ENDBRANCH  20  21
ENDBRANCH  10  15
BRANCH  16  17
ATOM     17  C   UNL     1      16.769   6.993  21.292  0.00  0.00    +0.107 C 
BRANCH  17  19
ATOM     19  C   UNL     1      18.093   7.433  20.700  0.00  0.00    +0.129 C 
BRANCH  19  23
ATOM      4  O   UNL     1      19.889   6.204  21.749  0.00  0.00    -0.251 OA
ATOM     23  C   UNL     1      19.126   6.338  20.802  0.00  0.00    +0.305 C 
BRANCH  23   3
ATOM      3  O   UNL     1      19.136   5.526  19.715  0.00  0.00    -0.481 OA
ATOM     33  H   UNL     1      19.972   5.600  19.209  0.00  0.00    +0.295 HD
ENDBRANCH  23   3
ENDBRANCH  19  23
ENDBRANCH  17  19
ENDBRANCH  16  17
TORSDOF 6
ENDMDL
MODEL 5
REMARK VINA RESULT:      -7.2     13.493     19.161
REMARK  Name = 45783846
REMARK  6 active torsions:
REMARK  status: ('A' for Active; 'I' for Inactive)
REMARK    1  A    between atoms: O_3  and  C_23
REMARK    2  A    between atoms: C_10  and  C_15
REMARK    3  A    between atoms: C_16  and  C_17
REMARK    4  A    between atoms: C_17  and  C_19
REMARK    5  A    between atoms: C_19  and  C_23
REMARK    6  A    between atoms: C_20  and  C_21
REMARK                            x       y       z     vdW  Elec       q    Type
REMARK                         _______ _______ _______ _____ _____    ______ ____
ROOT
ATOM      2  O   UNL     1      11.076   7.135   8.052  0.00  0.00    -0.276 OA
ATOM      5  N   UNL     1      10.610   6.233   5.955  0.00  0.00    -0.284 N 
ATOM      6  N   UNL     1      10.857   4.082   2.917  0.00  0.00    -0.347 N 
ATOM      7  N   UNL     1      12.233   5.676   2.168  0.00  0.00    -0.240 NA
ATOM     10  C   UNL     1      10.948   7.512   5.240  0.00  0.00    +0.171 C 
ATOM     11  C   UNL     1      12.006   7.274   4.118  0.00  0.00    +0.089 C 
ATOM     12  C   UNL     1      10.116   5.090   5.137  0.00  0.00    +0.163 C 
ATOM     13  C   UNL     1      10.866   5.059   3.867  0.00  0.00    +0.056 A 
ATOM     14  C   UNL     1      11.714   6.025   3.382  0.00  0.00    +0.066 A 
ATOM     16  C   UNL     1      10.672   6.201   7.354  0.00  0.00    +0.217 C 
ATOM     18  C   UNL     1      11.696   4.499   1.913  0.00  0.00    +0.197 A 
ATOM     32  H   UNL     1      10.334   3.217   2.941  0.00  0.00    +0.167 HD
ENDROOT
BRANCH  10  15
ATOM      1  O   UNL     1       9.059   8.978   5.800  0.00  0.00    -0.336 OA
ATOM      8  N   UNL     1       9.079   8.297   3.666  0.00  0.00    -0.190 NA
ATOM      9  N   UNL     1       7.936   9.557   5.196  0.00  0.00    -0.056 NA
ATOM     15  C   UNL     1       9.676   8.253   4.831  0.00  0.00    +0.249 A 
ATOM     20  C   UNL     1       8.016   9.107   3.939  0.00  0.00    +0.202 A 
BRANCH  20  21
ATOM     21  C   UNL     1       7.053   9.452   2.933  0.00  0.00    +0.023 A 
ATOM     22  C   UNL     1       7.359   9.271   1.585  0.00  0.00    +0.020 A 
ATOM     24  C   UNL     1       6.428   9.603   0.587  0.00  0.00    -0.017 A 
ATOM     25  C   UNL     1       5.813   9.965   3.304  0.00  0.00    +0.012 A 
ATOM     26  C   UNL     1       5.167  10.125   0.964  0.00  0.00    -0.018 A 
ATOM     27  C   UNL     1       4.876  10.299   2.327  0.00  0.00    +0.009 A 
ATOM     28  C   UNL     1       6.719   9.428  -0.775  0.00  0.00    +0.008 A 
ATOM     29  C   UNL     1       4.235  10.456  -0.032  0.00  0.00    +0.008 A 
ATOM     30  C   UNL     1       5.781   9.763  -1.752  0.00  0.00    +0.001 A 
ATOM     31  C   UNL     1       4.542  10.276  -1.382  0.00  0.00    +0.001 A 
ENDBRANCH  20  21
ENDBRANCH  10  15
BRANCH  16  17
ATOM     17  C   UNL     1      10.209   4.931   8.021  0.00  0.00    +0.107 C 
BRANCH  17  19
ATOM     19  C   UNL     1       8.999   5.216   8.887  0.00  0.00    +0.129 C 
BRANCH  19  23
ATOM      4  O   UNL     1      10.301   4.399  10.751  0.00  0.00    -0.251 OA
ATOM     23  C   UNL     1       9.214   4.733  10.300  0.00  0.00    +0.305 C 
BRANCH  23   3
ATOM      3  O   UNL     1       8.064   4.687  11.017  0.00  0.00    -0.481 OA
ATOM     33  H   UNL     1       7.276   4.857  10.459  0.00  0.00    +0.295 HD
ENDBRANCH  23   3
ENDBRANCH  19  23
ENDBRANCH  17  19
ENDBRANCH  16  17
TORSDOF 6
ENDMDL
MODEL 6
REMARK VINA RESULT:      -7.1     26.639     28.934
REMARK  Name = 45783846
REMARK  6 active torsions:
REMARK  status: ('A' for Active; 'I' for Inactive)
REMARK    1  A    between atoms: O_3  and  C_23
REMARK    2  A    between atoms: C_10  and  C_15
REMARK    3  A    between atoms: C_16  and  C_17
REMARK    4  A    between atoms: C_17  and  C_19
REMARK    5  A    between atoms: C_19  and  C_23
REMARK    6  A    between atoms: C_20  and  C_21
REMARK                            x       y       z     vdW  Elec       q    Type
REMARK                         _______ _______ _______ _____ _____    ______ ____
ROOT
ATOM      2  O   UNL     1     -12.110  10.645  18.691  0.00  0.00    -0.276 OA
ATOM      5  N   UNL     1     -12.213   8.878  20.206  0.00  0.00    -0.284 N 
ATOM      6  N   UNL     1     -12.677   5.437  21.571  0.00  0.00    -0.347 N 
ATOM      7  N   UNL     1     -14.809   6.059  21.819  0.00  0.00    -0.240 NA
ATOM     10  C   UNL     1     -13.379   9.473  20.946  0.00  0.00    +0.171 C 
ATOM     11  C   UNL     1     -14.560   8.460  21.054  0.00  0.00    +0.089 C 
ATOM     12  C   UNL     1     -11.638   7.604  20.724  0.00  0.00    +0.163 C 
ATOM     13  C   UNL     1     -12.742   6.745  21.192  0.00  0.00    +0.056 A 
ATOM     14  C   UNL     1     -14.058   7.102  21.356  0.00  0.00    +0.066 A 
ATOM     16  C   UNL     1     -11.653   9.589  19.136  0.00  0.00    +0.217 C 
ATOM     18  C   UNL     1     -13.947   5.069  21.939  0.00  0.00    +0.197 A 
ATOM     32  H   UNL     1     -11.854   4.848  21.583  0.00  0.00    +0.167 HD
ENDROOT
BRANCH  10  15
ATOM      1  O   UNL     1     -12.364  11.358  22.148  0.00  0.00    -0.336 OA
ATOM      8  N   UNL     1     -12.969   9.656  23.473  0.00  0.00    -0.190 NA
ATOM      9  N   UNL     1     -12.023  11.739  23.453  0.00  0.00    -0.056 NA
ATOM     15  C   UNL     1     -12.915  10.121  22.250  0.00  0.00    +0.249 A 
ATOM     20  C   UNL     1     -12.410  10.683  24.175  0.00  0.00    +0.202 A 
BRANCH  20  21
ATOM     21  C   UNL     1     -12.254  10.624  25.600  0.00  0.00    +0.023 A 
ATOM     22  C   UNL     1     -13.379  10.603  26.424  0.00  0.00    +0.020 A 
ATOM     24  C   UNL     1     -13.243  10.545  27.821  0.00  0.00    -0.017 A 
ATOM     25  C   UNL     1     -10.979  10.586  26.159  0.00  0.00    +0.012 A 
ATOM     26  C   UNL     1     -11.947  10.507  28.390  0.00  0.00    -0.018 A 
ATOM     27  C   UNL     1     -10.826  10.527  27.544  0.00  0.00    +0.009 A 
ATOM     28  C   UNL     1     -14.365  10.524  28.666  0.00  0.00    +0.008 A 
ATOM     29  C   UNL     1     -11.812  10.448  29.786  0.00  0.00    +0.008 A 
ATOM     30  C   UNL     1     -14.211  10.466  30.052  0.00  0.00    +0.001 A 
ATOM     31  C   UNL     1     -12.937  10.428  30.610  0.00  0.00    +0.001 A 
ENDBRANCH  20  21
ENDBRANCH  10  15
BRANCH  16  17
ATOM     17  C   UNL     1     -10.415   9.000  18.509  0.00  0.00    +0.107 C 
BRANCH  17  19
ATOM     19  C   UNL     1     -10.165   9.647  17.162  0.00  0.00    +0.129 C 
BRANCH  19  23
ATOM      4  O   UNL     1     -10.948   9.039  14.958  0.00  0.00    -0.251 OA
ATOM     23  C   UNL     1     -10.475   8.695  16.033  0.00  0.00    +0.305 C 
BRANCH  23   3
ATOM      3  O   UNL     1     -10.196   7.406  16.346  0.00  0.00    -0.481 OA
ATOM     33  H   UNL     1     -10.672   7.111  17.150  0.00  0.00    +0.295 HD
ENDBRANCH  23   3
ENDBRANCH  19  23
ENDBRANCH  17  19
ENDBRANCH  16  17
TORSDOF 6
ENDMDL
MODEL 7
REMARK VINA RESULT:      -7.1     27.306     29.630
REMARK  Name = 45783846
REMARK  6 active torsions:
REMARK  status: ('A' for Active; 'I' for Inactive)
REMARK    1  A    between atoms: O_3  and  C_23
REMARK    2  A    between atoms: C_10  and  C_15
REMARK    3  A    between atoms: C_16  and  C_17
REMARK    4  A    between atoms: C_17  and  C_19
REMARK    5  A    between atoms: C_19  and  C_23
REMARK    6  A    between atoms: C_20  and  C_21
REMARK                            x       y       z     vdW  Elec       q    Type
REMARK                         _______ _______ _______ _____ _____    ______ ____
ROOT
ATOM      2  O   UNL     1      -2.594 -10.409  16.283  0.00  0.00    -0.276 OA
ATOM      5  N   UNL     1      -3.242 -12.080  14.794  0.00  0.00    -0.284 N 
ATOM      6  N   UNL     1      -4.047 -15.458  13.429  0.00  0.00    -0.347 N 
ATOM      7  N   UNL     1      -1.879 -15.516  12.891  0.00  0.00    -0.240 NA
ATOM     10  C   UNL     1      -2.057 -11.853  13.896  0.00  0.00    +0.171 C 
ATOM     11  C   UNL     1      -1.271 -13.176  13.646  0.00  0.00    +0.089 C 
ATOM     12  C   UNL     1      -4.245 -13.099  14.376  0.00  0.00    +0.163 C 
ATOM     13  C   UNL     1      -3.532 -14.244  13.777  0.00  0.00    +0.056 A 
ATOM     14  C   UNL     1      -2.204 -14.305  13.434  0.00  0.00    +0.066 A 
ATOM     16  C   UNL     1      -3.409 -11.260  15.918  0.00  0.00    +0.217 C 
ATOM     18  C   UNL     1      -3.012 -16.188  12.900  0.00  0.00    +0.197 A 
ATOM     32  H   UNL     1      -5.005 -15.763  13.536  0.00  0.00    +0.167 HD
ENDROOT
BRANCH  10  15
ATOM      1  O   UNL     1      -1.518 -10.245  12.120  0.00  0.00    -0.336 OA
ATOM      8  N   UNL     1      -3.610 -11.040  12.021  0.00  0.00    -0.190 NA
ATOM      9  N   UNL     1      -2.116  -9.631  11.012  0.00  0.00    -0.056 NA
ATOM     15  C   UNL     1      -2.465 -11.058  12.657  0.00  0.00    +0.249 A 
ATOM     20  C   UNL     1      -3.348 -10.151  11.020  0.00  0.00    +0.202 A 
BRANCH  20  21
ATOM     21  C   UNL     1      -4.339  -9.804  10.042  0.00  0.00    +0.023 A 
ATOM     22  C   UNL     1      -4.342 -10.437   8.800  0.00  0.00    +0.020 A 
ATOM     24  C   UNL     1      -5.306 -10.109   7.831  0.00  0.00    -0.017 A 
ATOM     25  C   UNL     1      -5.297  -8.837  10.336  0.00  0.00    +0.012 A 
ATOM     26  C   UNL     1      -6.280  -9.126   8.129  0.00  0.00    -0.018 A 
ATOM     27  C   UNL     1      -6.262  -8.500   9.387  0.00  0.00    +0.009 A 
ATOM     28  C   UNL     1      -5.324 -10.735   6.575  0.00  0.00    +0.008 A 
ATOM     29  C   UNL     1      -7.243  -8.799   7.162  0.00  0.00    +0.008 A 
ATOM     30  C   UNL     1      -6.289 -10.397   5.625  0.00  0.00    +0.001 A 
ATOM     31  C   UNL     1      -7.247  -9.431   5.918  0.00  0.00    +0.001 A 
ENDBRANCH  20  21
ENDBRANCH  10  15
BRANCH  16  17
ATOM     17  C   UNL     1      -4.675 -11.456  16.714  0.00  0.00    +0.107 C 
BRANCH  17  19
ATOM     19  C   UNL     1      -4.429 -11.102  18.166  0.00  0.00    +0.129 C 
BRANCH  19  23
ATOM      4  O   UNL     1      -3.277 -12.254  19.951  0.00  0.00    -0.251 OA
ATOM     23  C   UNL     1      -3.986 -12.310  18.955  0.00  0.00    +0.305 C 
BRANCH  23   3
ATOM      3  O   UNL     1      -4.440 -13.474  18.427  0.00  0.00    -0.481 OA
ATOM     33  H   UNL     1      -4.384 -13.479  17.448  0.00  0.00    +0.295 HD
ENDBRANCH  23   3
ENDBRANCH  19  23
ENDBRANCH  17  19
ENDBRANCH  16  17
TORSDOF 6
ENDMDL
MODEL 8
REMARK VINA RESULT:      -7.0     16.692     21.080
REMARK  Name = 45783846
REMARK  6 active torsions:
REMARK  status: ('A' for Active; 'I' for Inactive)
REMARK    1  A    between atoms: O_3  and  C_23
REMARK    2  A    between atoms: C_10  and  C_15
REMARK    3  A    between atoms: C_16  and  C_17
REMARK    4  A    between atoms: C_17  and  C_19
REMARK    5  A    between atoms: C_19  and  C_23
REMARK    6  A    between atoms: C_20  and  C_21
REMARK                            x       y       z     vdW  Elec       q    Type
REMARK                         _______ _______ _______ _____ _____    ______ ____
ROOT
ATOM      2  O   UNL     1      14.459   6.251  -1.524  0.00  0.00    -0.276 OA
ATOM      5  N   UNL     1      12.674   4.753  -1.566  0.00  0.00    -0.284 N 
ATOM      6  N   UNL     1      10.420   1.997  -2.679  0.00  0.00    -0.347 N 
ATOM      7  N   UNL     1       9.378   3.607  -3.827  0.00  0.00    -0.240 NA
ATOM     10  C   UNL     1      11.658   5.844  -1.761  0.00  0.00    +0.171 C 
ATOM     11  C   UNL     1      10.757   5.566  -3.004  0.00  0.00    +0.089 C 
ATOM     12  C   UNL     1      12.176   3.356  -1.428  0.00  0.00    +0.163 C 
ATOM     13  C   UNL     1      11.046   3.164  -2.357  0.00  0.00    +0.056 A 
ATOM     14  C   UNL     1      10.387   4.135  -3.071  0.00  0.00    +0.066 A 
ATOM     16  C   UNL     1      14.023   5.102  -1.417  0.00  0.00    +0.217 C 
ATOM     18  C   UNL     1       9.423   2.316  -3.567  0.00  0.00    +0.197 A 
ATOM     32  H   UNL     1      10.642   1.073  -2.332  0.00  0.00    +0.167 HD
ENDROOT
BRANCH  10  15
ATOM      1  O   UNL     1       9.930   7.060  -0.510  0.00  0.00    -0.336 OA
ATOM      8  N   UNL     1      11.139   5.653   0.745  0.00  0.00    -0.190 NA
ATOM      9  N   UNL     1       9.427   7.169   0.793  0.00  0.00    -0.056 NA
ATOM     15  C   UNL     1      10.934   6.147  -0.450  0.00  0.00    +0.249 A 
ATOM     20  C   UNL     1      10.192   6.309   1.474  0.00  0.00    +0.202 A 
BRANCH  20  21
ATOM     21  C   UNL     1      10.033   6.082   2.882  0.00  0.00    +0.023 A 
ATOM     22  C   UNL     1       9.434   7.055   3.681  0.00  0.00    +0.020 A 
ATOM     24  C   UNL     1       9.271   6.848   5.061  0.00  0.00    -0.017 A 
ATOM     25  C   UNL     1      10.476   4.889   3.447  0.00  0.00    +0.012 A 
ATOM     26  C   UNL     1       9.721   5.635   5.637  0.00  0.00    -0.018 A 
ATOM     27  C   UNL     1      10.321   4.666   4.816  0.00  0.00    +0.009 A 
ATOM     28  C   UNL     1       8.671   7.816   5.882  0.00  0.00    +0.008 A 
ATOM     29  C   UNL     1       9.558   5.428   7.016  0.00  0.00    +0.008 A 
ATOM     30  C   UNL     1       8.517   7.593   7.251  0.00  0.00    +0.001 A 
ATOM     31  C   UNL     1       8.960   6.401   7.816  0.00  0.00    +0.001 A 
ENDBRANCH  20  21
ENDBRANCH  10  15
BRANCH  16  17
ATOM     17  C   UNL     1      14.979   3.978  -1.106  0.00  0.00    +0.107 C 
BRANCH  17  19
ATOM     19  C   UNL     1      15.725   4.278   0.179  0.00  0.00    +0.129 C 
BRANCH  19  23
ATOM      4  O   UNL     1      14.143   3.078   1.557  0.00  0.00    -0.251 OA
ATOM     23  C   UNL     1      14.841   4.069   1.383  0.00  0.00    +0.305 C 
BRANCH  23   3
ATOM      3  O   UNL     1      14.883   5.111   2.250  0.00  0.00    -0.481 OA
ATOM     33  H   UNL     1      14.667   4.837   3.166  0.00  0.00    +0.295 HD
ENDBRANCH  23   3
ENDBRANCH  19  23
ENDBRANCH  17  19
ENDBRANCH  16  17
TORSDOF 6
ENDMDL
MODEL 9
REMARK VINA RESULT:      -7.0     27.168     29.827
REMARK  Name = 45783846
REMARK  6 active torsions:
REMARK  status: ('A' for Active; 'I' for Inactive)
REMARK    1  A    between atoms: O_3  and  C_23
REMARK    2  A    between atoms: C_10  and  C_15
REMARK    3  A    between atoms: C_16  and  C_17
REMARK    4  A    between atoms: C_17  and  C_19
REMARK    5  A    between atoms: C_19  and  C_23
REMARK    6  A    between atoms: C_20  and  C_21
REMARK                            x       y       z     vdW  Elec       q    Type
REMARK                         _______ _______ _______ _____ _____    ______ ____
ROOT
ATOM      2  O   UNL     1      -7.393 -13.147  18.211  0.00  0.00    -0.276 OA
ATOM      5  N   UNL     1      -8.098 -11.037  17.517  0.00  0.00    -0.284 N 
ATOM      6  N   UNL     1      -9.720  -7.678  17.565  0.00  0.00    -0.347 N 
ATOM      7  N   UNL     1     -11.505  -8.771  16.783  0.00  0.00    -0.240 NA
ATOM     10  C   UNL     1      -8.985 -11.598  16.440  0.00  0.00    +0.171 C 
ATOM     11  C   UNL     1     -10.443 -11.060  16.568  0.00  0.00    +0.089 C 
ATOM     12  C   UNL     1      -7.997  -9.555  17.633  0.00  0.00    +0.163 C 
ATOM     13  C   UNL     1      -9.329  -8.972  17.385  0.00  0.00    +0.056 A 
ATOM     14  C   UNL     1     -10.440  -9.619  16.902  0.00  0.00    +0.066 A 
ATOM     16  C   UNL     1      -7.328 -11.918  18.290  0.00  0.00    +0.217 C 
ATOM     18  C   UNL     1     -11.038  -7.607  17.190  0.00  0.00    +0.197 A 
ATOM     32  H   UNL     1      -9.151  -6.915  17.907  0.00  0.00    +0.167 HD
ENDROOT
BRANCH  10  15
ATOM      1  O   UNL     1      -8.962 -12.048  14.026  0.00  0.00    -0.336 OA
ATOM      8  N   UNL     1      -7.214 -10.843  14.742  0.00  0.00    -0.190 NA
ATOM      9  N   UNL     1      -8.178 -11.786  12.894  0.00  0.00    -0.056 NA
ATOM     15  C   UNL     1      -8.324 -11.457  15.070  0.00  0.00    +0.249 A 
ATOM     20  C   UNL     1      -7.167 -11.073  13.399  0.00  0.00    +0.202 A 
BRANCH  20  21
ATOM     21  C   UNL     1      -6.095 -10.572  12.587  0.00  0.00    +0.023 A 
ATOM     22  C   UNL     1      -4.775 -10.708  13.015  0.00  0.00    +0.020 A 
ATOM     24  C   UNL     1      -3.714 -10.224  12.231  0.00  0.00    -0.017 A 
ATOM     25  C   UNL     1      -6.374  -9.953  11.371  0.00  0.00    +0.012 A 
ATOM     26  C   UNL     1      -3.997  -9.594  10.995  0.00  0.00    -0.018 A 
ATOM     27  C   UNL     1      -5.333  -9.468  10.580  0.00  0.00    +0.009 A 
ATOM     28  C   UNL     1      -2.379 -10.351  12.647  0.00  0.00    +0.008 A 
ATOM     29  C   UNL     1      -2.937  -9.111  10.212  0.00  0.00    +0.008 A 
ATOM     30  C   UNL     1      -1.337  -9.864  11.855  0.00  0.00    +0.001 A 
ATOM     31  C   UNL     1      -1.616  -9.246  10.640  0.00  0.00    +0.001 A 
ENDBRANCH  20  21
ENDBRANCH  10  15
BRANCH  16  17
ATOM     17  C   UNL     1      -6.371 -11.292  19.272  0.00  0.00    +0.107 C 
BRANCH  17  19
ATOM     19  C   UNL     1      -4.989 -11.204  18.658  0.00  0.00    +0.129 C 
BRANCH  19  23
ATOM      4  O   UNL     1      -3.247 -12.216  19.992  0.00  0.00    -0.251 OA
ATOM     23  C   UNL     1      -4.108 -12.334  19.131  0.00  0.00    +0.305 C 
BRANCH  23   3
ATOM      3  O   UNL     1      -4.358 -13.498  18.481  0.00  0.00    -0.481 OA
ATOM     33  H   UNL     1      -3.919 -13.531  17.606  0.00  0.00    +0.295 HD
ENDBRANCH  23   3
ENDBRANCH  19  23
ENDBRANCH  17  19
ENDBRANCH  16  17
TORSDOF 6
ENDMDL
MODEL 10
REMARK VINA RESULT:      -6.9     13.801     15.873
REMARK  Name = 45783846
REMARK  6 active torsions:
REMARK  status: ('A' for Active; 'I' for Inactive)
REMARK    1  A    between atoms: O_3  and  C_23
REMARK    2  A    between atoms: C_10  and  C_15
REMARK    3  A    between atoms: C_16  and  C_17
REMARK    4  A    between atoms: C_17  and  C_19
REMARK    5  A    between atoms: C_19  and  C_23
REMARK    6  A    between atoms: C_20  and  C_21
REMARK                            x       y       z     vdW  Elec       q    Type
REMARK                         _______ _______ _______ _____ _____    ______ ____
ROOT
ATOM      2  O   UNL     1       8.897   7.889   3.684  0.00  0.00    -0.276 OA
ATOM      5  N   UNL     1       9.809   6.696   5.466  0.00  0.00    -0.284 N 
ATOM      6  N   UNL     1      10.253   4.078   8.087  0.00  0.00    -0.347 N 
ATOM      7  N   UNL     1       9.016   5.445   9.351  0.00  0.00    -0.240 NA
ATOM     10  C   UNL     1       9.589   7.822   6.438  0.00  0.00    +0.171 C 
ATOM     11  C   UNL     1       8.792   7.344   7.690  0.00  0.00    +0.089 C 
ATOM     12  C   UNL     1      10.493   5.470   5.965  0.00  0.00    +0.163 C 
ATOM     13  C   UNL     1      10.021   5.192   7.335  0.00  0.00    +0.056 A 
ATOM     14  C   UNL     1       9.264   6.014   8.133  0.00  0.00    +0.066 A 
ATOM     16  C   UNL     1       9.462   6.883   4.121  0.00  0.00    +0.217 C 
ATOM     18  C   UNL     1       9.627   4.278   9.292  0.00  0.00    +0.197 A 
ATOM     32  H   UNL     1      10.784   3.262   7.814  0.00  0.00    +0.167 HD
ENDROOT
BRANCH  10  15
ATOM      1  O   UNL     1      10.882   9.472   7.717  0.00  0.00    -0.336 OA
ATOM      8  N   UNL     1      12.051   8.461   6.096  0.00  0.00    -0.190 NA
ATOM      9  N   UNL     1      12.173  10.015   7.770  0.00  0.00    -0.056 NA
ATOM     15  C   UNL     1      10.897   8.566   6.705  0.00  0.00    +0.249 A 
ATOM     20  C   UNL     1      12.802   9.369   6.783  0.00  0.00    +0.202 A 
BRANCH  20  21
ATOM     21  C   UNL     1      14.179   9.607   6.460  0.00  0.00    +0.023 A 
ATOM     22  C   UNL     1      14.888   8.675   5.703  0.00  0.00    +0.020 A 
ATOM     24  C   UNL     1      16.237   8.893   5.378  0.00  0.00    -0.017 A 
ATOM     25  C   UNL     1      14.807  10.768   6.903  0.00  0.00    +0.012 A 
ATOM     26  C   UNL     1      16.876  10.074   5.828  0.00  0.00    -0.018 A 
ATOM     27  C   UNL     1      16.146  11.001   6.589  0.00  0.00    +0.009 A 
ATOM     28  C   UNL     1      16.966   7.966   4.616  0.00  0.00    +0.008 A 
ATOM     29  C   UNL     1      18.224  10.292   5.503  0.00  0.00    +0.008 A 
ATOM     30  C   UNL     1      18.306   8.199   4.303  0.00  0.00    +0.001 A 
ATOM     31  C   UNL     1      18.934   9.359   4.745  0.00  0.00    +0.001 A 
ENDBRANCH  20  21
ENDBRANCH  10  15
BRANCH  16  17
ATOM     17  C   UNL     1       9.813   5.765   3.172  0.00  0.00    +0.107 C 
BRANCH  17  19
ATOM     19  C   UNL     1      10.894   6.225   2.214  0.00  0.00    +0.129 C 
BRANCH  19  23
ATOM      4  O   UNL     1      12.735   4.665   2.093  0.00  0.00    -0.251 OA
ATOM     23  C   UNL     1      12.240   5.663   2.599  0.00  0.00    +0.305 C 
BRANCH  23   3
ATOM      3  O   UNL     1      12.838   6.370   3.590  0.00  0.00    -0.481 OA
ATOM     33  H   UNL     1      13.813   6.387   3.492  0.00  0.00    +0.295 HD
ENDBRANCH  23   3
ENDBRANCH  19  23
ENDBRANCH  17  19
ENDBRANCH  16  17
TORSDOF 6
ENDMDL
