MODEL 1
REMARK VINA RESULT:      -7.5      0.000      0.000
REMARK  Name = 45783818
REMARK  8 active torsions:
REMARK  status: ('A' for Active; 'I' for Inactive)
REMARK    1  A    between atoms: N_5  and  C_14
REMARK    2  A    between atoms: N_9  and  C_28
REMARK    3  A    between atoms: N_9  and  C_29
REMARK    4  A    between atoms: N_9  and  C_30
REMARK    5  A    between atoms: C_10  and  C_15
REMARK    6  A    between atoms: C_14  and  C_16
REMARK    7  A    between atoms: C_19  and  C_23
REMARK    8  A    between atoms: C_22  and  C_24
REMARK                            x       y       z     vdW  Elec       q    Type
REMARK                         _______ _______ _______ _____ _____    ______ ____
ROOT
ATOM      5  N   UNL     1      12.498   8.620  18.570  0.00  0.00    -0.287 NA
ATOM     10  C   UNL     1      13.581   7.710  18.147  0.00  0.00    +0.146 C 
ATOM     11  C   UNL     1      13.868   8.096  16.684  0.00  0.00    +0.030 C 
ATOM     12  C   UNL     1      12.858   9.188  16.356  0.00  0.00    +0.017 C 
ATOM     13  C   UNL     1      11.748   8.960  17.361  0.00  0.00    +0.085 C 
ENDROOT
BRANCH  10  15
ATOM      4  O   UNL     1      14.914   8.933  19.790  0.00  0.00    -0.336 OA
ATOM      6  N   UNL     1      15.800   6.971  19.172  0.00  0.00    -0.190 NA
ATOM      7  N   UNL     1      16.110   8.802  20.508  0.00  0.00    -0.056 NA
ATOM     15  C   UNL     1      14.807   7.812  19.029  0.00  0.00    +0.245 A 
ATOM     19  C   UNL     1      16.574   7.621  20.089  0.00  0.00    +0.204 A 
BRANCH  19  23
ATOM      8  N   UNL     1      19.647   7.156  22.131  0.00  0.00    -0.240 NA
ATOM     23  C   UNL     1      17.806   7.062  20.566  0.00  0.00    +0.041 A 
ATOM     25  C   UNL     1      18.356   5.930  19.976  0.00  0.00    +0.016 A 
ATOM     26  C   UNL     1      18.483   7.633  21.632  0.00  0.00    +0.124 A 
ATOM     27  C   UNL     1      19.551   5.411  20.461  0.00  0.00    +0.044 A 
ATOM     28  C   UNL     1      20.152   6.055  21.531  0.00  0.00    +0.121 A 
BRANCH  28   9
ATOM      9  N   UNL     1      21.367   5.514  22.014  0.00  0.00    -0.321 N 
ATOM     29  C   UNL     1      21.828   5.835  23.347  0.00  0.00    +0.130 C 
ATOM     30  C   UNL     1      22.161   4.643  21.176  0.00  0.00    +0.130 C 
ENDBRANCH  28   9
ENDBRANCH  19  23
ENDBRANCH  10  15
BRANCH   5  14
ATOM     14  C   UNL     1      11.643   8.053  19.606  0.00  0.00    +0.120 C 
BRANCH  14  16
ATOM     16  C   UNL     1      11.512   8.972  20.790  0.00  0.00    -0.033 A 
ATOM     17  C   UNL     1      11.974  10.286  20.708  0.00  0.00    +0.005 A 
ATOM     18  C   UNL     1      10.927   8.512  21.970  0.00  0.00    +0.005 A 
ATOM     20  C   UNL     1      11.852  11.138  21.805  0.00  0.00    +0.012 A 
ATOM     21  C   UNL     1      10.806   9.363  23.068  0.00  0.00    +0.012 A 
ATOM     22  C   UNL     1      11.268  10.677  22.985  0.00  0.00    +0.055 A 
BRANCH  22  24
ATOM      1  F   UNL     1      10.093  12.466  24.052  0.00  0.00    -0.166 F 
ATOM      2  F   UNL     1      12.245  12.362  24.349  0.00  0.00    -0.166 F 
ATOM      3  F   UNL     1      10.934  10.937  25.340  0.00  0.00    -0.166 F 
ATOM     24  C   UNL     1      11.135  11.589  24.157  0.00  0.00    +0.417 C 
ENDBRANCH  22  24
ENDBRANCH  14  16
ENDBRANCH   5  14
TORSDOF 6
ENDMDL
MODEL 2
REMARK VINA RESULT:      -7.0      4.623      8.730
REMARK  Name = 45783818
REMARK  8 active torsions:
REMARK  status: ('A' for Active; 'I' for Inactive)
REMARK    1  A    between atoms: N_5  and  C_14
REMARK    2  A    between atoms: N_9  and  C_28
REMARK    3  A    between atoms: N_9  and  C_29
REMARK    4  A    between atoms: N_9  and  C_30
REMARK    5  A    between atoms: C_10  and  C_15
REMARK    6  A    between atoms: C_14  and  C_16
REMARK    7  A    between atoms: C_19  and  C_23
REMARK    8  A    between atoms: C_22  and  C_24
REMARK                            x       y       z     vdW  Elec       q    Type
REMARK                         _______ _______ _______ _____ _____    ______ ____
ROOT
ATOM      5  N   UNL     1      12.875   7.845  20.612  0.00  0.00    -0.287 NA
ATOM     10  C   UNL     1      11.676   8.707  20.591  0.00  0.00    +0.146 C 
ATOM     11  C   UNL     1      10.580   7.869  21.276  0.00  0.00    +0.030 C 
ATOM     12  C   UNL     1      11.239   6.533  21.590  0.00  0.00    +0.017 C 
ATOM     13  C   UNL     1      12.392   6.464  20.609  0.00  0.00    +0.085 C 
ENDROOT
BRANCH  10  15
ATOM      4  O   UNL     1      12.340  11.057  20.485  0.00  0.00    -0.336 OA
ATOM      6  N   UNL     1      11.744  10.366  22.531  0.00  0.00    -0.190 NA
ATOM      7  N   UNL     1      12.477  12.168  21.327  0.00  0.00    -0.056 NA
ATOM     15  C   UNL     1      11.904  10.039  21.273  0.00  0.00    +0.245 A 
ATOM     19  C   UNL     1      12.108  11.682  22.515  0.00  0.00    +0.204 A 
BRANCH  19  23
ATOM      8  N   UNL     1      13.244  14.001  25.190  0.00  0.00    -0.240 NA
ATOM     23  C   UNL     1      12.089  12.482  23.705  0.00  0.00    +0.041 A 
ATOM     25  C   UNL     1      10.961  12.535  24.516  0.00  0.00    +0.016 A 
ATOM     26  C   UNL     1      13.195  13.227  24.082  0.00  0.00    +0.124 A 
ATOM     27  C   UNL     1      10.973  13.320  25.664  0.00  0.00    +0.044 A 
ATOM     28  C   UNL     1      12.129  14.028  25.954  0.00  0.00    +0.121 A 
BRANCH  28   9
ATOM      9  N   UNL     1      12.125  14.823  27.125  0.00  0.00    -0.321 N 
ATOM     29  C   UNL     1      10.922  15.520  27.527  0.00  0.00    +0.130 C 
ATOM     30  C   UNL     1      13.324  14.951  27.923  0.00  0.00    +0.130 C 
ENDBRANCH  28   9
ENDBRANCH  19  23
ENDBRANCH  10  15
BRANCH   5  14
ATOM     14  C   UNL     1      13.791   8.109  19.509  0.00  0.00    +0.120 C 
BRANCH  14  16
ATOM     16  C   UNL     1      15.180   7.608  19.800  0.00  0.00    -0.033 A 
ATOM     17  C   UNL     1      15.921   8.172  20.839  0.00  0.00    +0.005 A 
ATOM     18  C   UNL     1      15.726   6.579  19.033  0.00  0.00    +0.005 A 
ATOM     20  C   UNL     1      17.207   7.708  21.110  0.00  0.00    +0.012 A 
ATOM     21  C   UNL     1      17.014   6.116  19.303  0.00  0.00    +0.012 A 
ATOM     22  C   UNL     1      17.753   6.680  20.342  0.00  0.00    +0.055 A 
BRANCH  22  24
ATOM      1  F   UNL     1      19.416   6.117  21.968  0.00  0.00    -0.166 F 
ATOM      2  F   UNL     1      20.100   6.973  20.089  0.00  0.00    -0.166 F 
ATOM      3  F   UNL     1      19.370   4.925  20.156  0.00  0.00    -0.166 F 
ATOM     24  C   UNL     1      19.129   6.182  20.633  0.00  0.00    +0.417 C 
ENDBRANCH  22  24
ENDBRANCH  14  16
ENDBRANCH   5  14
TORSDOF 6
ENDMDL
MODEL 3
REMARK VINA RESULT:      -7.0      3.879      5.255
REMARK  Name = 45783818
REMARK  8 active torsions:
REMARK  status: ('A' for Active; 'I' for Inactive)
REMARK    1  A    between atoms: N_5  and  C_14
REMARK    2  A    between atoms: N_9  and  C_28
REMARK    3  A    between atoms: N_9  and  C_29
REMARK    4  A    between atoms: N_9  and  C_30
REMARK    5  A    between atoms: C_10  and  C_15
REMARK    6  A    between atoms: C_14  and  C_16
REMARK    7  A    between atoms: C_19  and  C_23
REMARK    8  A    between atoms: C_22  and  C_24
REMARK                            x       y       z     vdW  Elec       q    Type
REMARK                         _______ _______ _______ _____ _____    ______ ____
ROOT
ATOM      5  N   UNL     1      12.332   8.875  20.275  0.00  0.00    -0.287 NA
ATOM     10  C   UNL     1      13.083   8.225  21.368  0.00  0.00    +0.146 C 
ATOM     11  C   UNL     1      12.097   7.205  21.967  0.00  0.00    +0.030 C 
ATOM     12  C   UNL     1      10.803   7.398  21.187  0.00  0.00    +0.017 C 
ATOM     13  C   UNL     1      10.919   8.808  20.647  0.00  0.00    +0.085 C 
ENDROOT
BRANCH  10  15
ATOM      4  O   UNL     1      14.262   6.701  19.865  0.00  0.00    -0.336 OA
ATOM      6  N   UNL     1      15.592   7.753  21.328  0.00  0.00    -0.190 NA
ATOM      7  N   UNL     1      15.562   6.247  19.606  0.00  0.00    -0.056 NA
ATOM     15  C   UNL     1      14.369   7.584  20.892  0.00  0.00    +0.245 A 
ATOM     19  C   UNL     1      16.288   6.912  20.509  0.00  0.00    +0.204 A 
BRANCH  19  23
ATOM      8  N   UNL     1      19.816   7.593  21.470  0.00  0.00    -0.240 NA
ATOM     23  C   UNL     1      17.711   6.761  20.618  0.00  0.00    +0.041 A 
ATOM     25  C   UNL     1      18.367   5.694  20.016  0.00  0.00    +0.016 A 
ATOM     26  C   UNL     1      18.473   7.676  21.327  0.00  0.00    +0.124 A 
ATOM     27  C   UNL     1      19.747   5.575  20.139  0.00  0.00    +0.044 A 
ATOM     28  C   UNL     1      20.419   6.542  20.870  0.00  0.00    +0.121 A 
BRANCH  28   9
ATOM      9  N   UNL     1      21.824   6.407  20.988  0.00  0.00    -0.321 N 
ATOM     29  C   UNL     1      22.697   7.464  20.528  0.00  0.00    +0.130 C 
ATOM     30  C   UNL     1      22.394   5.206  21.559  0.00  0.00    +0.130 C 
ENDBRANCH  28   9
ENDBRANCH  19  23
ENDBRANCH  10  15
BRANCH   5  14
ATOM     14  C   UNL     1      12.768  10.242  20.014  0.00  0.00    +0.120 C 
BRANCH  14  16
ATOM     16  C   UNL     1      13.450  10.368  18.679  0.00  0.00    -0.033 A 
ATOM     17  C   UNL     1      13.130   9.485  17.646  0.00  0.00    +0.005 A 
ATOM     18  C   UNL     1      14.400  11.368  18.471  0.00  0.00    +0.005 A 
ATOM     20  C   UNL     1      13.762   9.602  16.409  0.00  0.00    +0.012 A 
ATOM     21  C   UNL     1      15.032  11.484  17.234  0.00  0.00    +0.012 A 
ATOM     22  C   UNL     1      14.712  10.602  16.202  0.00  0.00    +0.055 A 
BRANCH  22  24
ATOM      1  F   UNL     1      16.635  11.276  14.949  0.00  0.00    -0.166 F 
ATOM      2  F   UNL     1      14.690  11.517  14.007  0.00  0.00    -0.166 F 
ATOM      3  F   UNL     1      15.557   9.536  14.233  0.00  0.00    -0.166 F 
ATOM     24  C   UNL     1      15.386  10.728  14.877  0.00  0.00    +0.417 C 
ENDBRANCH  22  24
ENDBRANCH  14  16
ENDBRANCH   5  14
TORSDOF 6
ENDMDL
MODEL 4
REMARK VINA RESULT:      -6.9     27.478     29.115
REMARK  Name = 45783818
REMARK  8 active torsions:
REMARK  status: ('A' for Active; 'I' for Inactive)
REMARK    1  A    between atoms: N_5  and  C_14
REMARK    2  A    between atoms: N_9  and  C_28
REMARK    3  A    between atoms: N_9  and  C_29
REMARK    4  A    between atoms: N_9  and  C_30
REMARK    5  A    between atoms: C_10  and  C_15
REMARK    6  A    between atoms: C_14  and  C_16
REMARK    7  A    between atoms: C_19  and  C_23
REMARK    8  A    between atoms: C_22  and  C_24
REMARK                            x       y       z     vdW  Elec       q    Type
REMARK                         _______ _______ _______ _____ _____    ______ ____
ROOT
ATOM      5  N   UNL     1      -5.097  -9.641   9.253  0.00  0.00    -0.287 NA
ATOM     10  C   UNL     1      -6.051  -8.713   9.893  0.00  0.00    +0.146 C 
ATOM     11  C   UNL     1      -7.252  -8.662   8.931  0.00  0.00    +0.030 C 
ATOM     12  C   UNL     1      -6.857  -9.543   7.754  0.00  0.00    +0.017 C 
ATOM     13  C   UNL     1      -5.343  -9.560   7.814  0.00  0.00    +0.085 C 
ENDROOT
BRANCH  10  15
ATOM      4  O   UNL     1      -7.763  -9.358  11.513  0.00  0.00    -0.336 OA
ATOM      6  N   UNL     1      -5.681  -9.351  12.337  0.00  0.00    -0.190 NA
ATOM      7  N   UNL     1      -7.874  -9.745  12.856  0.00  0.00    -0.056 NA
ATOM     15  C   UNL     1      -6.440  -9.147  11.290  0.00  0.00    +0.245 A 
ATOM     19  C   UNL     1      -6.605  -9.716  13.273  0.00  0.00    +0.204 A 
BRANCH  19  23
ATOM      8  N   UNL     1      -6.820 -10.179  16.956  0.00  0.00    -0.240 NA
ATOM     23  C   UNL     1      -6.226 -10.048  14.616  0.00  0.00    +0.041 A 
ATOM     25  C   UNL     1      -4.959 -10.544  14.902  0.00  0.00    +0.016 A 
ATOM     26  C   UNL     1      -7.113  -9.886  15.668  0.00  0.00    +0.124 A 
ATOM     27  C   UNL     1      -4.621 -10.856  16.214  0.00  0.00    +0.044 A 
ATOM     28  C   UNL     1      -5.579 -10.658  17.196  0.00  0.00    +0.121 A 
BRANCH  28   9
ATOM      9  N   UNL     1      -5.220 -10.982  18.527  0.00  0.00    -0.321 N 
ATOM     29  C   UNL     1      -4.018 -11.741  18.791  0.00  0.00    +0.130 C 
ATOM     30  C   UNL     1      -6.057 -10.564  19.630  0.00  0.00    +0.130 C 
ENDBRANCH  28   9
ENDBRANCH  19  23
ENDBRANCH  10  15
BRANCH   5  14
ATOM     14  C   UNL     1      -3.708  -9.359   9.591  0.00  0.00    +0.120 C 
BRANCH  14  16
ATOM     16  C   UNL     1      -3.200 -10.264  10.681  0.00  0.00    -0.033 A 
ATOM     17  C   UNL     1      -2.302  -9.776  11.631  0.00  0.00    +0.005 A 
ATOM     18  C   UNL     1      -3.627 -11.590  10.743  0.00  0.00    +0.005 A 
ATOM     20  C   UNL     1      -1.831 -10.614  12.641  0.00  0.00    +0.012 A 
ATOM     21  C   UNL     1      -3.156 -12.429  11.753  0.00  0.00    +0.012 A 
ATOM     22  C   UNL     1      -2.259 -11.940  12.702  0.00  0.00    +0.055 A 
BRANCH  22  24
ATOM      1  F   UNL     1      -0.726 -13.642  13.392  0.00  0.00    -0.166 F 
ATOM      2  F   UNL     1      -2.721 -13.679  14.257  0.00  0.00    -0.166 F 
ATOM      3  F   UNL     1      -1.289 -12.165  14.878  0.00  0.00    -0.166 F 
ATOM     24  C   UNL     1      -1.757 -12.836  13.784  0.00  0.00    +0.417 C 
ENDBRANCH  22  24
ENDBRANCH  14  16
ENDBRANCH   5  14
TORSDOF 6
ENDMDL
MODEL 5
REMARK VINA RESULT:      -6.8     27.782     30.091
REMARK  Name = 45783818
REMARK  8 active torsions:
REMARK  status: ('A' for Active; 'I' for Inactive)
REMARK    1  A    between atoms: N_5  and  C_14
REMARK    2  A    between atoms: N_9  and  C_28
REMARK    3  A    between atoms: N_9  and  C_29
REMARK    4  A    between atoms: N_9  and  C_30
REMARK    5  A    between atoms: C_10  and  C_15
REMARK    6  A    between atoms: C_14  and  C_16
REMARK    7  A    between atoms: C_19  and  C_23
REMARK    8  A    between atoms: C_22  and  C_24
REMARK                            x       y       z     vdW  Elec       q    Type
REMARK                         _______ _______ _______ _____ _____    ______ ____
ROOT
ATOM      5  N   UNL     1     -10.426 -11.903  19.109  0.00  0.00    -0.287 NA
ATOM     10  C   UNL     1      -9.228 -12.349  19.847  0.00  0.00    +0.146 C 
ATOM     11  C   UNL     1      -9.251 -13.885  19.738  0.00  0.00    +0.030 C 
ATOM     12  C   UNL     1     -10.529 -14.210  18.975  0.00  0.00    +0.017 C 
ATOM     13  C   UNL     1     -11.399 -12.991  19.202  0.00  0.00    +0.085 C 
ENDROOT
BRANCH  10  15
ATOM      4  O   UNL     1      -7.249 -10.948  20.154  0.00  0.00    -0.336 OA
ATOM      6  N   UNL     1      -7.408 -11.873  18.120  0.00  0.00    -0.190 NA
ATOM      7  N   UNL     1      -6.126 -10.512  19.438  0.00  0.00    -0.056 NA
ATOM     15  C   UNL     1      -7.950 -11.745  19.305  0.00  0.00    +0.245 A 
ATOM     19  C   UNL     1      -6.291 -11.099  18.249  0.00  0.00    +0.204 A 
BRANCH  19  23
ATOM      8  N   UNL     1      -4.965 -10.389  14.849  0.00  0.00    -0.240 NA
ATOM     23  C   UNL     1      -5.360 -10.936  17.171  0.00  0.00    +0.041 A 
ATOM     25  C   UNL     1      -3.999 -11.148  17.360  0.00  0.00    +0.016 A 
ATOM     26  C   UNL     1      -5.789 -10.561  15.908  0.00  0.00    +0.124 A 
ATOM     27  C   UNL     1      -3.120 -10.982  16.295  0.00  0.00    +0.044 A 
ATOM     28  C   UNL     1      -3.649 -10.604  15.071  0.00  0.00    +0.121 A 
BRANCH  28   9
ATOM      9  N   UNL     1      -2.741 -10.438  13.997  0.00  0.00    -0.321 N 
ATOM     29  C   UNL     1      -1.380 -10.023  14.253  0.00  0.00    +0.130 C 
ATOM     30  C   UNL     1      -3.172 -10.673  12.636  0.00  0.00    +0.130 C 
ENDBRANCH  28   9
ENDBRANCH  19  23
ENDBRANCH  10  15
BRANCH   5  14
ATOM     14  C   UNL     1     -10.965 -10.640  19.600  0.00  0.00    +0.120 C 
BRANCH  14  16
ATOM     16  C   UNL     1     -11.011  -9.592  18.521  0.00  0.00    -0.033 A 
ATOM     17  C   UNL     1      -9.837  -8.955  18.116  0.00  0.00    +0.005 A 
ATOM     18  C   UNL     1     -12.227  -9.258  17.923  0.00  0.00    +0.005 A 
ATOM     20  C   UNL     1      -9.880  -7.985  17.116  0.00  0.00    +0.012 A 
ATOM     21  C   UNL     1     -12.269  -8.286  16.924  0.00  0.00    +0.012 A 
ATOM     22  C   UNL     1     -11.095  -7.651  16.520  0.00  0.00    +0.055 A 
BRANCH  22  24
ATOM      1  F   UNL     1     -12.102  -5.664  15.647  0.00  0.00    -0.166 F 
ATOM      2  F   UNL     1     -11.398  -7.143  14.216  0.00  0.00    -0.166 F 
ATOM      3  F   UNL     1      -9.974  -5.916  15.311  0.00  0.00    -0.166 F 
ATOM     24  C   UNL     1     -11.140  -6.614  15.448  0.00  0.00    +0.417 C 
ENDBRANCH  22  24
ENDBRANCH  14  16
ENDBRANCH   5  14
TORSDOF 6
ENDMDL
MODEL 6
REMARK VINA RESULT:      -6.8     27.483     29.822
REMARK  Name = 45783818
REMARK  8 active torsions:
REMARK  status: ('A' for Active; 'I' for Inactive)
REMARK    1  A    between atoms: N_5  and  C_14
REMARK    2  A    between atoms: N_9  and  C_28
REMARK    3  A    between atoms: N_9  and  C_29
REMARK    4  A    between atoms: N_9  and  C_30
REMARK    5  A    between atoms: C_10  and  C_15
REMARK    6  A    between atoms: C_14  and  C_16
REMARK    7  A    between atoms: C_19  and  C_23
REMARK    8  A    between atoms: C_22  and  C_24
REMARK                            x       y       z     vdW  Elec       q    Type
REMARK                         _______ _______ _______ _____ _____    ______ ____
ROOT
ATOM      5  N   UNL     1      -8.244  -8.401   6.992  0.00  0.00    -0.287 NA
ATOM     10  C   UNL     1      -7.259  -9.478   7.216  0.00  0.00    +0.146 C 
ATOM     11  C   UNL     1      -6.458  -9.554   5.903  0.00  0.00    +0.030 C 
ATOM     12  C   UNL     1      -7.104  -8.526   4.983  0.00  0.00    +0.017 C 
ATOM     13  C   UNL     1      -8.498  -8.365   5.552  0.00  0.00    +0.085 C 
ENDROOT
BRANCH  10  15
ATOM      4  O   UNL     1      -6.255  -7.931   8.819  0.00  0.00    -0.336 OA
ATOM      6  N   UNL     1      -5.708 -10.078   9.154  0.00  0.00    -0.190 NA
ATOM      7  N   UNL     1      -5.407  -7.948   9.935  0.00  0.00    -0.056 NA
ATOM     15  C   UNL     1      -6.381  -9.225   8.422  0.00  0.00    +0.245 A 
ATOM     19  C   UNL     1      -5.128  -9.248  10.069  0.00  0.00    +0.204 A 
BRANCH  19  23
ATOM      8  N   UNL     1      -4.038 -10.578  13.366  0.00  0.00    -0.240 NA
ATOM     23  C   UNL     1      -4.274  -9.751  11.106  0.00  0.00    +0.041 A 
ATOM     25  C   UNL     1      -2.909  -9.906  10.899  0.00  0.00    +0.016 A 
ATOM     26  C   UNL     1      -4.786 -10.098  12.346  0.00  0.00    +0.124 A 
ATOM     27  C   UNL     1      -2.107 -10.396  11.924  0.00  0.00    +0.044 A 
ATOM     28  C   UNL     1      -2.715 -10.715  13.128  0.00  0.00    +0.121 A 
BRANCH  28   9
ATOM      9  N   UNL     1      -1.885 -11.214  14.161  0.00  0.00    -0.321 N 
ATOM     29  C   UNL     1      -1.406 -10.329  15.200  0.00  0.00    +0.130 C 
ATOM     30  C   UNL     1      -1.505 -12.609  14.180  0.00  0.00    +0.130 C 
ENDBRANCH  28   9
ENDBRANCH  19  23
ENDBRANCH  10  15
BRANCH   5  14
ATOM     14  C   UNL     1      -9.469  -8.575   7.762  0.00  0.00    +0.120 C 
BRANCH  14  16
ATOM     16  C   UNL     1     -10.075  -7.256   8.159  0.00  0.00    -0.033 A 
ATOM     17  C   UNL     1     -11.458  -7.137   8.299  0.00  0.00    +0.005 A 
ATOM     18  C   UNL     1      -9.254  -6.151   8.389  0.00  0.00    +0.005 A 
ATOM     20  C   UNL     1     -12.019  -5.915   8.667  0.00  0.00    +0.012 A 
ATOM     21  C   UNL     1      -9.816  -4.929   8.756  0.00  0.00    +0.012 A 
ATOM     22  C   UNL     1     -11.198  -4.811   8.896  0.00  0.00    +0.055 A 
BRANCH  22  24
ATOM      1  F   UNL     1     -13.165  -3.498   9.259  0.00  0.00    -0.166 F 
ATOM      2  F   UNL     1     -11.409  -2.479   8.479  0.00  0.00    -0.166 F 
ATOM      3  F   UNL     1     -11.472  -3.112  10.559  0.00  0.00    -0.166 F 
ATOM     24  C   UNL     1     -11.799  -3.505   9.292  0.00  0.00    +0.417 C 
ENDBRANCH  22  24
ENDBRANCH  14  16
ENDBRANCH   5  14
TORSDOF 6
ENDMDL
MODEL 7
REMARK VINA RESULT:      -6.7     16.000     19.527
REMARK  Name = 45783818
REMARK  8 active torsions:
REMARK  status: ('A' for Active; 'I' for Inactive)
REMARK    1  A    between atoms: N_5  and  C_14
REMARK    2  A    between atoms: N_9  and  C_28
REMARK    3  A    between atoms: N_9  and  C_29
REMARK    4  A    between atoms: N_9  and  C_30
REMARK    5  A    between atoms: C_10  and  C_15
REMARK    6  A    between atoms: C_14  and  C_16
REMARK    7  A    between atoms: C_19  and  C_23
REMARK    8  A    between atoms: C_22  and  C_24
REMARK                            x       y       z     vdW  Elec       q    Type
REMARK                         _______ _______ _______ _____ _____    ______ ____
ROOT
ATOM      5  N   UNL     1       9.472   7.650   6.285  0.00  0.00    -0.287 NA
ATOM     10  C   UNL     1      10.592   6.696   6.412  0.00  0.00    +0.146 C 
ATOM     11  C   UNL     1      10.379   6.022   7.779  0.00  0.00    +0.030 C 
ATOM     12  C   UNL     1       9.153   6.703   8.372  0.00  0.00    +0.017 C 
ATOM     13  C   UNL     1       9.098   8.032   7.647  0.00  0.00    +0.085 C 
ENDROOT
BRANCH  10  15
ATOM      4  O   UNL     1      10.021   4.512   5.477  0.00  0.00    -0.336 OA
ATOM      6  N   UNL     1      11.208   5.815   4.095  0.00  0.00    -0.190 NA
ATOM      7  N   UNL     1      10.201   3.771   4.302  0.00  0.00    -0.056 NA
ATOM     15  C   UNL     1      10.643   5.702   5.271  0.00  0.00    +0.245 A 
ATOM     19  C   UNL     1      10.910   4.606   3.536  0.00  0.00    +0.204 A 
BRANCH  19  23
ATOM      8  N   UNL     1      10.792   4.027  -0.135  0.00  0.00    -0.240 NA
ATOM     23  C   UNL     1      11.335   4.265   2.209  0.00  0.00    +0.041 A 
ATOM     25  C   UNL     1      12.639   3.857   1.957  0.00  0.00    +0.016 A 
ATOM     26  C   UNL     1      10.457   4.334   1.139  0.00  0.00    +0.124 A 
ATOM     27  C   UNL     1      13.021   3.532   0.660  0.00  0.00    +0.044 A 
ATOM     28  C   UNL     1      12.068   3.633  -0.342  0.00  0.00    +0.121 A 
BRANCH  28   9
ATOM      9  N   UNL     1      12.473   3.301  -1.658  0.00  0.00    -0.321 N 
ATOM     29  C   UNL     1      11.823   2.222  -2.368  0.00  0.00    +0.130 C 
ATOM     30  C   UNL     1      13.545   4.032  -2.296  0.00  0.00    +0.130 C 
ENDBRANCH  28   9
ENDBRANCH  19  23
ENDBRANCH  10  15
BRANCH   5  14
ATOM     14  C   UNL     1       9.794   8.807   5.459  0.00  0.00    +0.120 C 
BRANCH  14  16
ATOM     16  C   UNL     1       8.715   9.092   4.449  0.00  0.00    -0.033 A 
ATOM     17  C   UNL     1       8.850   8.637   3.137  0.00  0.00    +0.005 A 
ATOM     18  C   UNL     1       7.579   9.811   4.824  0.00  0.00    +0.005 A 
ATOM     20  C   UNL     1       7.850   8.901   2.201  0.00  0.00    +0.012 A 
ATOM     21  C   UNL     1       6.580  10.076   3.887  0.00  0.00    +0.012 A 
ATOM     22  C   UNL     1       6.716   9.620   2.576  0.00  0.00    +0.055 A 
BRANCH  22  24
ATOM      1  F   UNL     1       5.542  11.221   1.241  0.00  0.00    -0.166 F 
ATOM      2  F   UNL     1       4.406   9.536   2.017  0.00  0.00    -0.166 F 
ATOM      3  F   UNL     1       5.819   9.245   0.390  0.00  0.00    -0.166 F 
ATOM     24  C   UNL     1       5.646   9.900   1.576  0.00  0.00    +0.417 C 
ENDBRANCH  22  24
ENDBRANCH  14  16
ENDBRANCH   5  14
TORSDOF 6
ENDMDL
MODEL 8
REMARK VINA RESULT:      -6.7     26.806     29.679
REMARK  Name = 45783818
REMARK  8 active torsions:
REMARK  status: ('A' for Active; 'I' for Inactive)
REMARK    1  A    between atoms: N_5  and  C_14
REMARK    2  A    between atoms: N_9  and  C_28
REMARK    3  A    between atoms: N_9  and  C_29
REMARK    4  A    between atoms: N_9  and  C_30
REMARK    5  A    between atoms: C_10  and  C_15
REMARK    6  A    between atoms: C_14  and  C_16
REMARK    7  A    between atoms: C_19  and  C_23
REMARK    8  A    between atoms: C_22  and  C_24
REMARK                            x       y       z     vdW  Elec       q    Type
REMARK                         _______ _______ _______ _____ _____    ______ ____
ROOT
ATOM      5  N   UNL     1      -3.095 -10.630  14.411  0.00  0.00    -0.287 NA
ATOM     10  C   UNL     1      -2.890 -11.284  15.719  0.00  0.00    +0.146 C 
ATOM     11  C   UNL     1      -1.599 -10.653  16.273  0.00  0.00    +0.030 C 
ATOM     12  C   UNL     1      -1.120  -9.704  15.182  0.00  0.00    +0.017 C 
ATOM     13  C   UNL     1      -1.769 -10.249  13.926  0.00  0.00    +0.085 C 
ENDROOT
BRANCH  10  15
ATOM      4  O   UNL     1      -3.851 -11.377  17.964  0.00  0.00    -0.336 OA
ATOM      6  N   UNL     1      -5.295 -10.735  16.377  0.00  0.00    -0.190 NA
ATOM      7  N   UNL     1      -5.071 -11.149  18.616  0.00  0.00    -0.056 NA
ATOM     15  C   UNL     1      -4.070 -11.109  16.651  0.00  0.00    +0.245 A 
ATOM     19  C   UNL     1      -5.871 -10.774  17.614  0.00  0.00    +0.204 A 
BRANCH  19  23
ATOM      8  N   UNL     1      -9.299 -10.753  19.056  0.00  0.00    -0.240 NA
ATOM     23  C   UNL     1      -7.249 -10.431  17.814  0.00  0.00    +0.041 A 
ATOM     25  C   UNL     1      -7.876  -9.485  17.011  0.00  0.00    +0.016 A 
ATOM     26  C   UNL     1      -7.997 -11.031  18.814  0.00  0.00    +0.124 A 
ATOM     27  C   UNL     1      -9.214  -9.173  17.228  0.00  0.00    +0.044 A 
ATOM     28  C   UNL     1      -9.874  -9.830  18.255  0.00  0.00    +0.121 A 
BRANCH  28   9
ATOM      9  N   UNL     1     -11.235  -9.500  18.465  0.00  0.00    -0.321 N 
ATOM     29  C   UNL     1     -11.959  -8.735  17.473  0.00  0.00    +0.130 C 
ATOM     30  C   UNL     1     -11.908  -9.917  19.675  0.00  0.00    +0.130 C 
ENDBRANCH  28   9
ENDBRANCH  19  23
ENDBRANCH  10  15
BRANCH   5  14
ATOM     14  C   UNL     1      -3.809 -11.469  13.457  0.00  0.00    +0.120 C 
BRANCH  14  16
ATOM     16  C   UNL     1      -4.489 -10.652  12.391  0.00  0.00    -0.033 A 
ATOM     17  C   UNL     1      -4.092 -10.774  11.059  0.00  0.00    +0.005 A 
ATOM     18  C   UNL     1      -5.519  -9.775  12.734  0.00  0.00    +0.005 A 
ATOM     20  C   UNL     1      -4.722 -10.017  10.072  0.00  0.00    +0.012 A 
ATOM     21  C   UNL     1      -6.148  -9.018  11.746  0.00  0.00    +0.012 A 
ATOM     22  C   UNL     1      -5.750  -9.140  10.415  0.00  0.00    +0.055 A 
BRANCH  22  24
ATOM      1  F   UNL     1      -7.757  -8.132   9.591  0.00  0.00    -0.166 F 
ATOM      2  F   UNL     1      -6.355  -8.917   8.126  0.00  0.00    -0.166 F 
ATOM      3  F   UNL     1      -5.899  -7.083   9.201  0.00  0.00    -0.166 F 
ATOM     24  C   UNL     1      -6.426  -8.333   9.358  0.00  0.00    +0.417 C 
ENDBRANCH  22  24
ENDBRANCH  14  16
ENDBRANCH   5  14
TORSDOF 6
ENDMDL
MODEL 9
REMARK VINA RESULT:      -6.6     15.414     17.714
REMARK  Name = 45783818
REMARK  8 active torsions:
REMARK  status: ('A' for Active; 'I' for Inactive)
REMARK    1  A    between atoms: N_5  and  C_14
REMARK    2  A    between atoms: N_9  and  C_28
REMARK    3  A    between atoms: N_9  and  C_29
REMARK    4  A    between atoms: N_9  and  C_30
REMARK    5  A    between atoms: C_10  and  C_15
REMARK    6  A    between atoms: C_14  and  C_16
REMARK    7  A    between atoms: C_19  and  C_23
REMARK    8  A    between atoms: C_22  and  C_24
REMARK                            x       y       z     vdW  Elec       q    Type
REMARK                         _______ _______ _______ _____ _____    ______ ____
ROOT
ATOM      5  N   UNL     1       9.855   6.831   5.645  0.00  0.00    -0.287 NA
ATOM     10  C   UNL     1      10.606   7.913   6.313  0.00  0.00    +0.146 C 
ATOM     11  C   UNL     1      10.024   7.971   7.738  0.00  0.00    +0.030 C 
ATOM     12  C   UNL     1       8.913   6.930   7.756  0.00  0.00    +0.017 C 
ATOM     13  C   UNL     1       8.545   6.775   6.295  0.00  0.00    +0.085 C 
ENDROOT
BRANCH  10  15
ATOM      4  O   UNL     1      12.578   6.769   7.195  0.00  0.00    -0.336 OA
ATOM      6  N   UNL     1      13.024   8.226   5.552  0.00  0.00    -0.190 NA
ATOM      7  N   UNL     1      13.965   6.724   6.999  0.00  0.00    -0.056 NA
ATOM     15  C   UNL     1      12.102   7.676   6.303  0.00  0.00    +0.245 A 
ATOM     19  C   UNL     1      14.150   7.610   6.016  0.00  0.00    +0.204 A 
BRANCH  19  23
ATOM      8  N   UNL     1      16.979   7.773   3.609  0.00  0.00    -0.240 NA
ATOM     23  C   UNL     1      15.445   7.902   5.474  0.00  0.00    +0.041 A 
ATOM     25  C   UNL     1      16.405   8.568   6.227  0.00  0.00    +0.016 A 
ATOM     26  C   UNL     1      15.778   7.529   4.181  0.00  0.00    +0.124 A 
ATOM     27  C   UNL     1      17.652   8.836   5.673  0.00  0.00    +0.044 A 
ATOM     28  C   UNL     1      17.887   8.421   4.372  0.00  0.00    +0.121 A 
BRANCH  28   9
ATOM      9  N   UNL     1      19.161   8.704   3.822  0.00  0.00    -0.321 N 
ATOM     29  C   UNL     1      20.065   9.603   4.505  0.00  0.00    +0.130 C 
ATOM     30  C   UNL     1      19.563   8.102   2.570  0.00  0.00    +0.130 C 
ENDBRANCH  28   9
ENDBRANCH  19  23
ENDBRANCH  10  15
BRANCH   5  14
ATOM     14  C   UNL     1       9.745   7.015   4.203  0.00  0.00    +0.120 C 
BRANCH  14  16
ATOM     16  C   UNL     1      10.701   6.128   3.451  0.00  0.00    -0.033 A 
ATOM     17  C   UNL     1      10.490   4.749   3.413  0.00  0.00    +0.005 A 
ATOM     18  C   UNL     1      11.797   6.684   2.791  0.00  0.00    +0.005 A 
ATOM     20  C   UNL     1      11.375   3.928   2.715  0.00  0.00    +0.012 A 
ATOM     21  C   UNL     1      12.682   5.862   2.094  0.00  0.00    +0.012 A 
ATOM     22  C   UNL     1      12.470   4.484   2.056  0.00  0.00    +0.055 A 
BRANCH  22  24
ATOM      1  F   UNL     1      14.454   3.146   2.069  0.00  0.00    -0.166 F 
ATOM      2  F   UNL     1      13.993   4.239   0.246  0.00  0.00    -0.166 F 
ATOM      3  F   UNL     1      12.830   2.485   0.791  0.00  0.00    -0.166 F 
ATOM     24  C   UNL     1      13.415   3.605   1.308  0.00  0.00    +0.417 C 
ENDBRANCH  22  24
ENDBRANCH  14  16
ENDBRANCH   5  14
TORSDOF 6
ENDMDL
MODEL 10
REMARK VINA RESULT:      -6.6      1.545      2.254
REMARK  Name = 45783818
REMARK  8 active torsions:
REMARK  status: ('A' for Active; 'I' for Inactive)
REMARK    1  A    between atoms: N_5  and  C_14
REMARK    2  A    between atoms: N_9  and  C_28
REMARK    3  A    between atoms: N_9  and  C_29
REMARK    4  A    between atoms: N_9  and  C_30
REMARK    5  A    between atoms: C_10  and  C_15
REMARK    6  A    between atoms: C_14  and  C_16
REMARK    7  A    between atoms: C_19  and  C_23
REMARK    8  A    between atoms: C_22  and  C_24
REMARK                            x       y       z     vdW  Elec       q    Type
REMARK                         _______ _______ _______ _____ _____    ______ ____
ROOT
ATOM      5  N   UNL     1      13.991   9.150  18.640  0.00  0.00    -0.287 NA
ATOM     10  C   UNL     1      13.963   7.970  19.527  0.00  0.00    +0.146 C 
ATOM     11  C   UNL     1      12.803   7.109  18.996  0.00  0.00    +0.030 C 
ATOM     12  C   UNL     1      12.202   7.914  17.852  0.00  0.00    +0.017 C 
ATOM     13  C   UNL     1      12.624   9.337  18.156  0.00  0.00    +0.085 C 
ENDROOT
BRANCH  10  15
ATOM      4  O   UNL     1      15.476   6.309  18.565  0.00  0.00    -0.336 OA
ATOM      6  N   UNL     1      16.280   7.330  20.389  0.00  0.00    -0.190 NA
ATOM      7  N   UNL     1      16.744   5.759  18.792  0.00  0.00    -0.056 NA
ATOM     15  C   UNL     1      15.281   7.226  19.549  0.00  0.00    +0.245 A 
ATOM     19  C   UNL     1      17.154   6.411  19.883  0.00  0.00    +0.204 A 
BRANCH  19  23
ATOM      8  N   UNL     1      20.524   4.961  20.492  0.00  0.00    -0.240 NA
ATOM     23  C   UNL     1      18.430   6.171  20.493  0.00  0.00    +0.041 A 
ATOM     25  C   UNL     1      18.824   6.867  21.629  0.00  0.00    +0.016 A 
ATOM     26  C   UNL     1      19.307   5.236  19.967  0.00  0.00    +0.124 A 
ATOM     27  C   UNL     1      20.067   6.612  22.198  0.00  0.00    +0.044 A 
ATOM     28  C   UNL     1      20.873   5.658  21.597  0.00  0.00    +0.121 A 
BRANCH  28   9
ATOM      9  N   UNL     1      22.135   5.410  22.187  0.00  0.00    -0.321 N 
ATOM     29  C   UNL     1      23.272   5.074  21.358  0.00  0.00    +0.130 C 
ATOM     30  C   UNL     1      22.295   5.483  23.623  0.00  0.00    +0.130 C 
ENDBRANCH  28   9
ENDBRANCH  19  23
ENDBRANCH  10  15
BRANCH   5  14
ATOM     14  C   UNL     1      14.511  10.346  19.292  0.00  0.00    +0.120 C 
BRANCH  14  16
ATOM     16  C   UNL     1      13.762  10.667  20.557  0.00  0.00    -0.033 A 
ATOM     17  C   UNL     1      12.465  11.177  20.489  0.00  0.00    +0.005 A 
ATOM     18  C   UNL     1      14.362  10.452  21.798  0.00  0.00    +0.005 A 
ATOM     20  C   UNL     1      11.770  11.474  21.661  0.00  0.00    +0.012 A 
ATOM     21  C   UNL     1      13.667  10.750  22.970  0.00  0.00    +0.012 A 
ATOM     22  C   UNL     1      12.371  11.260  22.901  0.00  0.00    +0.055 A 
BRANCH  22  24
ATOM      1  F   UNL     1      12.425  12.034  25.164  0.00  0.00    -0.166 F 
ATOM      2  F   UNL     1      10.978  10.489  24.667  0.00  0.00    -0.166 F 
ATOM      3  F   UNL     1      10.667  12.534  23.996  0.00  0.00    -0.166 F 
ATOM     24  C   UNL     1      11.627  11.575  24.155  0.00  0.00    +0.417 C 
ENDBRANCH  22  24
ENDBRANCH  14  16
ENDBRANCH   5  14
TORSDOF 6
ENDMDL
