MODEL 1
REMARK VINA RESULT:      -7.6      0.000      0.000
REMARK  Name = 56774566
REMARK  9 active torsions:
REMARK  status: ('A' for Active; 'I' for Inactive)
REMARK    1  A    between atoms: O_2  and  C_10
REMARK    2  A    between atoms: N_5  and  C_12
REMARK    3  A    between atoms: N_6  and  C_21
REMARK    4  A    between atoms: N_7  and  C_26
REMARK    5  A    between atoms: C_9  and  C_10
REMARK    6  A    between atoms: C_10  and  C_13
REMARK    7  A    between atoms: C_12  and  C_16
REMARK    8  A    between atoms: C_22  and  C_23
REMARK    9  A    between atoms: C_25  and  C_27
REMARK                            x       y       z     vdW  Elec       q    Type
REMARK                         _______ _______ _______ _____ _____    ______ ____
ROOT
ATOM     13  C   UNL     1      15.615   6.631  20.081  0.00  0.00    -0.017 A 
ATOM     17  C   UNL     1      16.334   7.019  21.212  0.00  0.00    +0.008 A 
ATOM     18  C   UNL     1      16.277   6.053  18.998  0.00  0.00    +0.008 A 
ATOM     19  C   UNL     1      17.715   6.828  21.260  0.00  0.00    +0.023 A 
ATOM     20  C   UNL     1      17.658   5.862  19.045  0.00  0.00    +0.023 A 
ATOM     21  C   UNL     1      18.377   6.249  20.177  0.00  0.00    +0.034 A 
ENDROOT
BRANCH  21   6
ATOM      4  O   UNL     1      20.214   5.966  22.529  0.00  0.00    -0.268 OA
ATOM      6  N   UNL     1      19.758   6.058  20.225  0.00  0.00    -0.280 N 
ATOM     22  C   UNL     1      20.573   5.931  21.357  0.00  0.00    +0.266 C 
ATOM     29  H   UNL     1      20.215   6.012  19.317  0.00  0.00    +0.155 HD
BRANCH  22  23
ATOM      7  N   UNL     1      22.641   4.495  21.070  0.00  0.00    -0.262 N 
ATOM      8  N   UNL     1      23.955   4.563  20.792  0.00  0.00    -0.176 NA
ATOM     23  C   UNL     1      22.017   5.707  21.081  0.00  0.00    +0.124 A 
ATOM     24  C   UNL     1      22.989   6.633  20.790  0.00  0.00    +0.057 A 
ATOM     25  C   UNL     1      24.161   5.871  20.622  0.00  0.00    +0.061 A 
ATOM     26  C   UNL     1      22.039   3.206  21.320  0.00  0.00    +0.173 C 
ATOM     27  C   UNL     1      25.510   6.364  20.295  0.00  0.00    +0.067 C 
ENDBRANCH  22  23
ENDBRANCH  21   6
BRANCH  13  10
ATOM     10  C   UNL     1      14.122   6.837  20.029  0.00  0.00    +0.167 C 
BRANCH  10   9
ATOM      1  O   UNL     1      13.914   8.476  17.605  0.00  0.00    -0.369 OA
ATOM      3  O   UNL     1      10.421   8.535  18.521  0.00  0.00    -0.273 OA
ATOM      5  N   UNL     1      12.298   8.491  19.896  0.00  0.00    -0.292 N 
ATOM      9  C   UNL     1      13.754   8.322  19.986  0.00  0.00    +0.135 C 
ATOM     11  C   UNL     1      14.432   9.022  18.813  0.00  0.00    +0.185 C 
ATOM     14  C   UNL     1      11.645   8.567  18.668  0.00  0.00    +0.242 C 
ATOM     15  C   UNL     1      12.545   8.785  17.458  0.00  0.00    +0.255 C 
BRANCH   5  12
ATOM     12  C   UNL     1      11.533   8.395  21.132  0.00  0.00    +0.105 C 
ATOM     16  C   UNL     1      12.088   9.312  22.203  0.00  0.00    +0.024 C 
ENDBRANCH   5  12
ENDBRANCH  10   9
BRANCH  10   2
ATOM      2  O   UNL     1      13.521   6.236  21.171  0.00  0.00    -0.385 OA
ATOM     28  H   UNL     1      13.911   6.615  21.976  0.00  0.00    +0.210 HD
ENDBRANCH  10   2
ENDBRANCH  13  10
TORSDOF 6
ENDMDL
MODEL 2
REMARK VINA RESULT:      -7.6      0.993      1.683
REMARK  Name = 56774566
REMARK  9 active torsions:
REMARK  status: ('A' for Active; 'I' for Inactive)
REMARK    1  A    between atoms: O_2  and  C_10
REMARK    2  A    between atoms: N_5  and  C_12
REMARK    3  A    between atoms: N_6  and  C_21
REMARK    4  A    between atoms: N_7  and  C_26
REMARK    5  A    between atoms: C_9  and  C_10
REMARK    6  A    between atoms: C_10  and  C_13
REMARK    7  A    between atoms: C_12  and  C_16
REMARK    8  A    between atoms: C_22  and  C_23
REMARK    9  A    between atoms: C_25  and  C_27
REMARK                            x       y       z     vdW  Elec       q    Type
REMARK                         _______ _______ _______ _____ _____    ______ ____
ROOT
ATOM     13  C   UNL     1      15.983   6.475  20.019  0.00  0.00    -0.017 A 
ATOM     17  C   UNL     1      16.628   5.853  18.949  0.00  0.00    +0.008 A 
ATOM     18  C   UNL     1      16.712   6.865  21.143  0.00  0.00    +0.008 A 
ATOM     19  C   UNL     1      18.003   5.621  19.004  0.00  0.00    +0.023 A 
ATOM     20  C   UNL     1      18.086   6.632  21.198  0.00  0.00    +0.023 A 
ATOM     21  C   UNL     1      18.732   6.011  20.128  0.00  0.00    +0.034 A 
ENDROOT
BRANCH  21   6
ATOM      4  O   UNL     1      20.538   5.623  22.488  0.00  0.00    -0.268 OA
ATOM      6  N   UNL     1      20.106   5.778  20.183  0.00  0.00    -0.280 N 
ATOM     22  C   UNL     1      20.907   5.603  21.319  0.00  0.00    +0.266 C 
ATOM     29  H   UNL     1      20.569   5.739  19.278  0.00  0.00    +0.155 HD
BRANCH  22  23
ATOM      7  N   UNL     1      23.297   6.297  20.840  0.00  0.00    -0.262 N 
ATOM      8  N   UNL     1      24.526   5.800  20.620  0.00  0.00    -0.176 NA
ATOM     23  C   UNL     1      22.346   5.342  21.050  0.00  0.00    +0.124 A 
ATOM     24  C   UNL     1      22.998   4.137  20.961  0.00  0.00    +0.057 A 
ATOM     25  C   UNL     1      24.337   4.480  20.694  0.00  0.00    +0.061 A 
ATOM     26  C   UNL     1      23.103   7.728  20.835  0.00  0.00    +0.173 C 
ATOM     27  C   UNL     1      25.475   3.566  20.503  0.00  0.00    +0.067 C 
ENDBRANCH  22  23
ENDBRANCH  21   6
BRANCH  13  10
ATOM     10  C   UNL     1      14.498   6.728  19.959  0.00  0.00    +0.167 C 
BRANCH  10   9
ATOM      1  O   UNL     1      13.435   7.897  17.486  0.00  0.00    -0.369 OA
ATOM      3  O   UNL     1      10.549   8.494  19.573  0.00  0.00    -0.273 OA
ATOM      5  N   UNL     1      12.804   8.511  20.148  0.00  0.00    -0.292 N 
ATOM      9  C   UNL     1      14.180   8.209  19.737  0.00  0.00    +0.135 C 
ATOM     11  C   UNL     1      14.386   8.601  18.277  0.00  0.00    +0.185 C 
ATOM     14  C   UNL     1      11.738   8.423  19.255  0.00  0.00    +0.242 C 
ATOM     15  C   UNL     1      12.122   8.315  17.785  0.00  0.00    +0.255 C 
BRANCH   5  12
ATOM     12  C   UNL     1      12.559   8.729  21.568  0.00  0.00    +0.105 C 
ATOM     16  C   UNL     1      13.570   9.686  22.166  0.00  0.00    +0.024 C 
ENDBRANCH   5  12
ENDBRANCH  10   9
BRANCH  10   2
ATOM      2  O   UNL     1      13.893   6.295  21.173  0.00  0.00    -0.385 OA
ATOM     28  H   UNL     1      14.513   5.723  21.654  0.00  0.00    +0.210 HD
ENDBRANCH  10   2
ENDBRANCH  13  10
TORSDOF 6
ENDMDL
MODEL 3
REMARK VINA RESULT:      -7.3      2.037      9.397
REMARK  Name = 56774566
REMARK  9 active torsions:
REMARK  status: ('A' for Active; 'I' for Inactive)
REMARK    1  A    between atoms: O_2  and  C_10
REMARK    2  A    between atoms: N_5  and  C_12
REMARK    3  A    between atoms: N_6  and  C_21
REMARK    4  A    between atoms: N_7  and  C_26
REMARK    5  A    between atoms: C_9  and  C_10
REMARK    6  A    between atoms: C_10  and  C_13
REMARK    7  A    between atoms: C_12  and  C_16
REMARK    8  A    between atoms: C_22  and  C_23
REMARK    9  A    between atoms: C_25  and  C_27
REMARK                            x       y       z     vdW  Elec       q    Type
REMARK                         _______ _______ _______ _____ _____    ______ ____
ROOT
ATOM     13  C   UNL     1      19.167   5.740  20.477  0.00  0.00    -0.017 A 
ATOM     17  C   UNL     1      18.643   5.276  19.270  0.00  0.00    +0.008 A 
ATOM     18  C   UNL     1      18.414   6.596  21.281  0.00  0.00    +0.008 A 
ATOM     19  C   UNL     1      17.366   5.668  18.867  0.00  0.00    +0.023 A 
ATOM     20  C   UNL     1      17.137   6.989  20.878  0.00  0.00    +0.023 A 
ATOM     21  C   UNL     1      16.613   6.523  19.671  0.00  0.00    +0.034 A 
ENDROOT
BRANCH  21   6
ATOM      4  O   UNL     1      15.406   9.259  19.451  0.00  0.00    -0.268 OA
ATOM      6  N   UNL     1      15.336   6.916  19.268  0.00  0.00    -0.280 N 
ATOM     22  C   UNL     1      14.820   8.215  19.182  0.00  0.00    +0.266 C 
ATOM     29  H   UNL     1      14.715   6.152  19.013  0.00  0.00    +0.155 HD
BRANCH  22  23
ATOM      7  N   UNL     1      12.302   8.247  19.465  0.00  0.00    -0.262 N 
ATOM      8  N   UNL     1      11.154   8.365  18.775  0.00  0.00    -0.176 NA
ATOM     23  C   UNL     1      13.421   8.313  18.689  0.00  0.00    +0.124 A 
ATOM     24  C   UNL     1      12.975   8.485  17.401  0.00  0.00    +0.057 A 
ATOM     25  C   UNL     1      11.572   8.509  17.514  0.00  0.00    +0.061 A 
ATOM     26  C   UNL     1      12.248   8.071  20.897  0.00  0.00    +0.173 C 
ATOM     27  C   UNL     1      10.588   8.671  16.431  0.00  0.00    +0.067 C 
ENDBRANCH  22  23
ENDBRANCH  21   6
BRANCH  13  10
ATOM     10  C   UNL     1      20.546   5.315  20.913  0.00  0.00    +0.167 C 
BRANCH  10   9
ATOM      1  O   UNL     1      22.851   4.840  22.665  0.00  0.00    -0.369 OA
ATOM      3  O   UNL     1      24.450   7.145  20.391  0.00  0.00    -0.273 OA
ATOM      5  N   UNL     1      22.239   7.096  21.118  0.00  0.00    -0.292 N 
ATOM      9  C   UNL     1      21.196   6.352  21.834  0.00  0.00    +0.135 C 
ATOM     11  C   UNL     1      21.786   5.690  23.074  0.00  0.00    +0.185 C 
ATOM     14  C   UNL     1      23.565   6.668  21.105  0.00  0.00    +0.242 C 
ATOM     15  C   UNL     1      23.915   5.589  22.123  0.00  0.00    +0.255 C 
BRANCH   5  12
ATOM     12  C   UNL     1      21.815   8.200  20.267  0.00  0.00    +0.105 C 
ATOM     16  C   UNL     1      21.081   9.262  21.060  0.00  0.00    +0.024 C 
ENDBRANCH   5  12
ENDBRANCH  10   9
BRANCH  10   2
ATOM      2  O   UNL     1      21.368   5.122  19.767  0.00  0.00    -0.385 OA
ATOM     28  H   UNL     1      21.659   4.196  19.734  0.00  0.00    +0.210 HD
ENDBRANCH  10   2
ENDBRANCH  13  10
TORSDOF 6
ENDMDL
MODEL 4
REMARK VINA RESULT:      -7.0      1.777      9.538
REMARK  Name = 56774566
REMARK  9 active torsions:
REMARK  status: ('A' for Active; 'I' for Inactive)
REMARK    1  A    between atoms: O_2  and  C_10
REMARK    2  A    between atoms: N_5  and  C_12
REMARK    3  A    between atoms: N_6  and  C_21
REMARK    4  A    between atoms: N_7  and  C_26
REMARK    5  A    between atoms: C_9  and  C_10
REMARK    6  A    between atoms: C_10  and  C_13
REMARK    7  A    between atoms: C_12  and  C_16
REMARK    8  A    between atoms: C_22  and  C_23
REMARK    9  A    between atoms: C_25  and  C_27
REMARK                            x       y       z     vdW  Elec       q    Type
REMARK                         _______ _______ _______ _____ _____    ______ ____
ROOT
ATOM     13  C   UNL     1      18.985   7.313  21.402  0.00  0.00    -0.017 A 
ATOM     17  C   UNL     1      18.415   6.330  20.592  0.00  0.00    +0.008 A 
ATOM     18  C   UNL     1      18.316   8.519  21.611  0.00  0.00    +0.008 A 
ATOM     19  C   UNL     1      17.176   6.554  19.991  0.00  0.00    +0.023 A 
ATOM     20  C   UNL     1      17.077   8.743  21.010  0.00  0.00    +0.023 A 
ATOM     21  C   UNL     1      16.506   7.760  20.201  0.00  0.00    +0.034 A 
ENDROOT
BRANCH  21   6
ATOM      4  O   UNL     1      13.868   6.405  20.637  0.00  0.00    -0.268 OA
ATOM      6  N   UNL     1      15.268   7.984  19.600  0.00  0.00    -0.280 N 
ATOM     22  C   UNL     1      14.059   7.319  19.841  0.00  0.00    +0.266 C 
ATOM     29  H   UNL     1      15.260   8.721  18.899  0.00  0.00    +0.155 HD
BRANCH  22  23
ATOM      7  N   UNL     1      11.679   8.149  19.572  0.00  0.00    -0.262 N 
ATOM      8  N   UNL     1      10.794   8.563  18.649  0.00  0.00    -0.176 NA
ATOM     23  C   UNL     1      12.895   7.807  19.056  0.00  0.00    +0.124 A 
ATOM     24  C   UNL     1      12.798   8.011  17.701  0.00  0.00    +0.057 A 
ATOM     25  C   UNL     1      11.483   8.475  17.508  0.00  0.00    +0.061 A 
ATOM     26  C   UNL     1      11.283   8.107  20.960  0.00  0.00    +0.173 C 
ATOM     27  C   UNL     1      10.843   8.851  16.236  0.00  0.00    +0.067 C 
ENDBRANCH  22  23
ENDBRANCH  21   6
BRANCH  13  10
ATOM     10  C   UNL     1      20.323   7.071  22.052  0.00  0.00    +0.167 C 
BRANCH  10   9
ATOM      1  O   UNL     1      22.872   8.225  21.167  0.00  0.00    -0.369 OA
ATOM      3  O   UNL     1      24.231   5.466  23.060  0.00  0.00    -0.273 OA
ATOM      5  N   UNL     1      22.264   5.567  21.820  0.00  0.00    -0.292 N 
ATOM      9  C   UNL     1      21.314   6.413  21.087  0.00  0.00    +0.135 C 
ATOM     11  C   UNL     1      22.068   7.461  20.276  0.00  0.00    +0.185 C 
ATOM     14  C   UNL     1      23.473   6.069  22.297  0.00  0.00    +0.242 C 
ATOM     15  C   UNL     1      23.883   7.428  21.744  0.00  0.00    +0.255 C 
BRANCH   5  12
ATOM     12  C   UNL     1      21.824   4.229  22.193  0.00  0.00    +0.105 C 
ATOM     16  C   UNL     1      21.302   3.461  20.996  0.00  0.00    +0.024 C 
ENDBRANCH   5  12
ENDBRANCH  10   9
BRANCH  10   2
ATOM      2  O   UNL     1      20.153   6.237  23.193  0.00  0.00    -0.385 OA
ATOM     28  H   UNL     1      19.953   5.333  22.903  0.00  0.00    +0.210 HD
ENDBRANCH  10   2
ENDBRANCH  13  10
TORSDOF 6
ENDMDL
MODEL 5
REMARK VINA RESULT:      -6.9     16.464     20.219
REMARK  Name = 56774566
REMARK  9 active torsions:
REMARK  status: ('A' for Active; 'I' for Inactive)
REMARK    1  A    between atoms: O_2  and  C_10
REMARK    2  A    between atoms: N_5  and  C_12
REMARK    3  A    between atoms: N_6  and  C_21
REMARK    4  A    between atoms: N_7  and  C_26
REMARK    5  A    between atoms: C_9  and  C_10
REMARK    6  A    between atoms: C_10  and  C_13
REMARK    7  A    between atoms: C_12  and  C_16
REMARK    8  A    between atoms: C_22  and  C_23
REMARK    9  A    between atoms: C_25  and  C_27
REMARK                            x       y       z     vdW  Elec       q    Type
REMARK                         _______ _______ _______ _____ _____    ______ ____
ROOT
ATOM     13  C   UNL     1      11.120   4.795   0.668  0.00  0.00    -0.017 A 
ATOM     17  C   UNL     1      10.411   5.914   1.106  0.00  0.00    +0.008 A 
ATOM     18  C   UNL     1      11.472   3.794   1.573  0.00  0.00    +0.008 A 
ATOM     19  C   UNL     1      10.054   6.032   2.449  0.00  0.00    +0.023 A 
ATOM     20  C   UNL     1      11.115   3.912   2.917  0.00  0.00    +0.023 A 
ATOM     21  C   UNL     1      10.405   5.031   3.354  0.00  0.00    +0.034 A 
ENDROOT
BRANCH  21   6
ATOM      4  O   UNL     1      11.778   6.455   5.606  0.00  0.00    -0.268 OA
ATOM      6  N   UNL     1      10.048   5.148   4.698  0.00  0.00    -0.280 N 
ATOM     22  C   UNL     1      10.728   5.830   5.715  0.00  0.00    +0.266 C 
ATOM     29  H   UNL     1       9.187   4.671   4.955  0.00  0.00    +0.155 HD
BRANCH  22  23
ATOM      7  N   UNL     1       9.366   6.817   7.610  0.00  0.00    -0.262 N 
ATOM      8  N   UNL     1       8.877   6.533   8.830  0.00  0.00    -0.176 NA
ATOM     23  C   UNL     1      10.077   5.796   7.051  0.00  0.00    +0.124 A 
ATOM     24  C   UNL     1      10.053   4.774   7.968  0.00  0.00    +0.057 A 
ATOM     25  C   UNL     1       9.300   5.285   9.043  0.00  0.00    +0.061 A 
ATOM     26  C   UNL     1       9.106   8.113   7.030  0.00  0.00    +0.173 C 
ATOM     27  C   UNL     1       8.961   4.602  10.303  0.00  0.00    +0.067 C 
ENDBRANCH  22  23
ENDBRANCH  21   6
BRANCH  13  10
ATOM     10  C   UNL     1      11.505   4.667  -0.784  0.00  0.00    +0.167 C 
BRANCH  10   9
ATOM      1  O   UNL     1      12.326   3.487  -3.342  0.00  0.00    -0.369 OA
ATOM      3  O   UNL     1      15.285   5.476  -2.764  0.00  0.00    -0.273 OA
ATOM      5  N   UNL     1      13.917   4.398  -1.220  0.00  0.00    -0.292 N 
ATOM      9  C   UNL     1      12.659   3.680  -0.982  0.00  0.00    +0.135 C 
ATOM     11  C   UNL     1      12.374   2.729  -2.139  0.00  0.00    +0.185 C 
ATOM     14  C   UNL     1      14.336   4.732  -2.506  0.00  0.00    +0.242 C 
ATOM     15  C   UNL     1      13.589   4.041  -3.640  0.00  0.00    +0.255 C 
BRANCH   5  12
ATOM     12  C   UNL     1      14.630   4.911  -0.058  0.00  0.00    +0.105 C 
ATOM     16  C   UNL     1      15.146   3.788   0.818  0.00  0.00    +0.024 C 
ENDBRANCH   5  12
ENDBRANCH  10   9
BRANCH  10   2
ATOM      2  O   UNL     1      11.885   5.943  -1.289  0.00  0.00    -0.385 OA
ATOM     28  H   UNL     1      12.179   6.504  -0.554  0.00  0.00    +0.210 HD
ENDBRANCH  10   2
ENDBRANCH  13  10
TORSDOF 6
ENDMDL
MODEL 6
REMARK VINA RESULT:      -6.6     28.247     32.005
REMARK  Name = 56774566
REMARK  9 active torsions:
REMARK  status: ('A' for Active; 'I' for Inactive)
REMARK    1  A    between atoms: O_2  and  C_10
REMARK    2  A    between atoms: N_5  and  C_12
REMARK    3  A    between atoms: N_6  and  C_21
REMARK    4  A    between atoms: N_7  and  C_26
REMARK    5  A    between atoms: C_9  and  C_10
REMARK    6  A    between atoms: C_10  and  C_13
REMARK    7  A    between atoms: C_12  and  C_16
REMARK    8  A    between atoms: C_22  and  C_23
REMARK    9  A    between atoms: C_25  and  C_27
REMARK                            x       y       z     vdW  Elec       q    Type
REMARK                         _______ _______ _______ _____ _____    ______ ____
ROOT
ATOM     13  C   UNL     1     -12.959   7.573  19.995  0.00  0.00    -0.017 A 
ATOM     17  C   UNL     1     -14.338   7.367  19.918  0.00  0.00    +0.008 A 
ATOM     18  C   UNL     1     -12.186   6.801  20.863  0.00  0.00    +0.008 A 
ATOM     19  C   UNL     1     -14.942   6.389  20.708  0.00  0.00    +0.023 A 
ATOM     20  C   UNL     1     -12.791   5.823  21.653  0.00  0.00    +0.023 A 
ATOM     21  C   UNL     1     -14.169   5.616  21.575  0.00  0.00    +0.034 A 
ENDROOT
BRANCH  21   6
ATOM      4  O   UNL     1     -16.196   5.877  23.768  0.00  0.00    -0.268 OA
ATOM      6  N   UNL     1     -14.773   4.639  22.366  0.00  0.00    -0.280 N 
ATOM     22  C   UNL     1     -15.720   4.815  23.383  0.00  0.00    +0.266 C 
ATOM     29  H   UNL     1     -14.475   3.686  22.169  0.00  0.00    +0.155 HD
BRANCH  22  23
ATOM      7  N   UNL     1     -17.111   2.700  23.500  0.00  0.00    -0.262 N 
ATOM      8  N   UNL     1     -17.376   1.642  24.286  0.00  0.00    -0.176 NA
ATOM     23  C   UNL     1     -16.200   3.565  24.030  0.00  0.00    +0.124 A 
ATOM     24  C   UNL     1     -15.843   3.037  25.247  0.00  0.00    +0.057 A 
ATOM     25  C   UNL     1     -16.599   1.854  25.351  0.00  0.00    +0.061 A 
ATOM     26  C   UNL     1     -17.783   2.819  22.227  0.00  0.00    +0.173 C 
ATOM     27  C   UNL     1     -16.604   0.890  26.465  0.00  0.00    +0.067 C 
ENDBRANCH  22  23
ENDBRANCH  21   6
BRANCH  13  10
ATOM     10  C   UNL     1     -12.306   8.629  19.141  0.00  0.00    +0.167 C 
BRANCH  10   9
ATOM      1  O   UNL     1     -10.134  10.292  18.079  0.00  0.00    -0.369 OA
ATOM      3  O   UNL     1     -12.324  12.972  19.110  0.00  0.00    -0.273 OA
ATOM      5  N   UNL     1     -11.998  10.885  20.088  0.00  0.00    -0.292 N 
ATOM      9  C   UNL     1     -11.401   9.549  19.965  0.00  0.00    +0.135 C 
ATOM     11  C   UNL     1     -10.013   9.653  19.344  0.00  0.00    +0.185 C 
ATOM     14  C   UNL     1     -11.730  11.893  19.164  0.00  0.00    +0.242 C 
ATOM     15  C   UNL     1     -10.558  11.629  18.227  0.00  0.00    +0.255 C 
BRANCH   5  12
ATOM     12  C   UNL     1     -13.023  11.073  21.106  0.00  0.00    +0.105 C 
ATOM     16  C   UNL     1     -12.646  10.394  22.406  0.00  0.00    +0.024 C 
ENDBRANCH   5  12
ENDBRANCH  10   9
BRANCH  10   2
ATOM      2  O   UNL     1     -13.309   9.408  18.498  0.00  0.00    -0.385 OA
ATOM     28  H   UNL     1     -13.534   9.001  17.645  0.00  0.00    +0.210 HD
ENDBRANCH  10   2
ENDBRANCH  13  10
TORSDOF 6
ENDMDL
MODEL 7
REMARK VINA RESULT:      -6.4     27.820     31.073
REMARK  Name = 56774566
REMARK  9 active torsions:
REMARK  status: ('A' for Active; 'I' for Inactive)
REMARK    1  A    between atoms: O_2  and  C_10
REMARK    2  A    between atoms: N_5  and  C_12
REMARK    3  A    between atoms: N_6  and  C_21
REMARK    4  A    between atoms: N_7  and  C_26
REMARK    5  A    between atoms: C_9  and  C_10
REMARK    6  A    between atoms: C_10  and  C_13
REMARK    7  A    between atoms: C_12  and  C_16
REMARK    8  A    between atoms: C_22  and  C_23
REMARK    9  A    between atoms: C_25  and  C_27
REMARK                            x       y       z     vdW  Elec       q    Type
REMARK                         _______ _______ _______ _____ _____    ______ ____
ROOT
ATOM     13  C   UNL     1      -8.655 -11.214  18.836  0.00  0.00    -0.017 A 
ATOM     17  C   UNL     1      -7.440 -10.648  19.225  0.00  0.00    +0.008 A 
ATOM     18  C   UNL     1      -8.858 -11.586  17.507  0.00  0.00    +0.008 A 
ATOM     19  C   UNL     1      -6.428 -10.456  18.284  0.00  0.00    +0.023 A 
ATOM     20  C   UNL     1      -7.846 -11.393  16.566  0.00  0.00    +0.023 A 
ATOM     21  C   UNL     1      -6.631 -10.829  16.955  0.00  0.00    +0.034 A 
ENDROOT
BRANCH  21   6
ATOM      4  O   UNL     1      -4.453 -12.677  16.045  0.00  0.00    -0.268 OA
ATOM      6  N   UNL     1      -5.619 -10.636  16.014  0.00  0.00    -0.280 N 
ATOM     22  C   UNL     1      -4.621 -11.538  15.623  0.00  0.00    +0.266 C 
ATOM     29  H   UNL     1      -5.617  -9.721  15.570  0.00  0.00    +0.155 HD
BRANCH  22  23
ATOM      7  N   UNL     1      -2.410 -10.639  14.771  0.00  0.00    -0.262 N 
ATOM      8  N   UNL     1      -1.783 -10.241  13.651  0.00  0.00    -0.176 NA
ATOM     23  C   UNL     1      -3.695 -11.046  14.569  0.00  0.00    +0.124 A 
ATOM     24  C   UNL     1      -3.927 -10.903  13.222  0.00  0.00    +0.057 A 
ATOM     25  C   UNL     1      -2.715 -10.404  12.708  0.00  0.00    +0.061 A 
ATOM     26  C   UNL     1      -1.699 -10.603  16.028  0.00  0.00    +0.173 C 
ATOM     27  C   UNL     1      -2.407 -10.068  11.308  0.00  0.00    +0.067 C 
ENDBRANCH  22  23
ENDBRANCH  21   6
BRANCH  13  10
ATOM     10  C   UNL     1      -9.748 -11.423  19.853  0.00  0.00    +0.167 C 
BRANCH  10   9
ATOM      1  O   UNL     1     -12.088 -12.631  21.148  0.00  0.00    -0.369 OA
ATOM      3  O   UNL     1     -13.466  -9.328  20.661  0.00  0.00    -0.273 OA
ATOM      5  N   UNL     1     -11.976 -10.509  19.318  0.00  0.00    -0.292 N 
ATOM      9  C   UNL     1     -11.103 -11.682  19.187  0.00  0.00    +0.135 C 
ATOM     11  C   UNL     1     -11.783 -12.908  19.786  0.00  0.00    +0.185 C 
ATOM     14  C   UNL     1     -12.838 -10.358  20.402  0.00  0.00    +0.242 C 
ATOM     15  C   UNL     1     -13.051 -11.605  21.251  0.00  0.00    +0.255 C 
BRANCH   5  12
ATOM     12  C   UNL     1     -11.783  -9.418  18.373  0.00  0.00    +0.105 C 
ATOM     16  C   UNL     1     -12.161  -9.828  16.965  0.00  0.00    +0.024 C 
ENDBRANCH   5  12
ENDBRANCH  10   9
BRANCH  10   2
ATOM      2  O   UNL     1      -9.847 -10.275  20.688  0.00  0.00    -0.385 OA
ATOM     28  H   UNL     1      -9.266 -10.387  21.458  0.00  0.00    +0.210 HD
ENDBRANCH  10   2
ENDBRANCH  13  10
TORSDOF 6
ENDMDL
MODEL 8
REMARK VINA RESULT:      -6.4      2.105      2.341
REMARK  Name = 56774566
REMARK  9 active torsions:
REMARK  status: ('A' for Active; 'I' for Inactive)
REMARK    1  A    between atoms: O_2  and  C_10
REMARK    2  A    between atoms: N_5  and  C_12
REMARK    3  A    between atoms: N_6  and  C_21
REMARK    4  A    between atoms: N_7  and  C_26
REMARK    5  A    between atoms: C_9  and  C_10
REMARK    6  A    between atoms: C_10  and  C_13
REMARK    7  A    between atoms: C_12  and  C_16
REMARK    8  A    between atoms: C_22  and  C_23
REMARK    9  A    between atoms: C_25  and  C_27
REMARK                            x       y       z     vdW  Elec       q    Type
REMARK                         _______ _______ _______ _____ _____    ______ ____
ROOT
ATOM     13  C   UNL     1      16.950   6.921  20.179  0.00  0.00    -0.017 A 
ATOM     17  C   UNL     1      17.269   8.027  20.968  0.00  0.00    +0.008 A 
ATOM     18  C   UNL     1      17.921   5.959  19.901  0.00  0.00    +0.008 A 
ATOM     19  C   UNL     1      18.559   8.170  21.478  0.00  0.00    +0.023 A 
ATOM     20  C   UNL     1      19.211   6.102  20.412  0.00  0.00    +0.023 A 
ATOM     21  C   UNL     1      19.530   7.208  21.201  0.00  0.00    +0.034 A 
ENDROOT
BRANCH  21   6
ATOM      4  O   UNL     1      22.097   7.898  19.815  0.00  0.00    -0.268 OA
ATOM      6  N   UNL     1      20.820   7.351  21.712  0.00  0.00    -0.280 N 
ATOM     22  C   UNL     1      21.992   7.677  21.017  0.00  0.00    +0.266 C 
ATOM     29  H   UNL     1      20.903   7.192  22.713  0.00  0.00    +0.155 HD
BRANCH  22  23
ATOM      7  N   UNL     1      24.076   6.760  22.130  0.00  0.00    -0.262 N 
ATOM      8  N   UNL     1      25.113   7.118  22.907  0.00  0.00    -0.176 NA
ATOM     23  C   UNL     1      23.218   7.783  21.850  0.00  0.00    +0.124 A 
ATOM     24  C   UNL     1      23.729   8.887  22.488  0.00  0.00    +0.057 A 
ATOM     25  C   UNL     1      24.895   8.418  23.123  0.00  0.00    +0.061 A 
ATOM     26  C   UNL     1      23.969   5.391  21.683  0.00  0.00    +0.173 C 
ATOM     27  C   UNL     1      25.837   9.191  23.951  0.00  0.00    +0.067 C 
ENDBRANCH  22  23
ENDBRANCH  21   6
BRANCH  13  10
ATOM     10  C   UNL     1      15.555   6.765  19.628  0.00  0.00    +0.167 C 
BRANCH  10   9
ATOM      1  O   UNL     1      13.679   7.593  17.529  0.00  0.00    -0.369 OA
ATOM      3  O   UNL     1      11.300   7.389  20.240  0.00  0.00    -0.273 OA
ATOM      5  N   UNL     1      13.540   8.021  20.297  0.00  0.00    -0.292 N 
ATOM      9  C   UNL     1      14.813   8.104  19.571  0.00  0.00    +0.135 C 
ATOM     11  C   UNL     1      14.564   8.531  18.129  0.00  0.00    +0.185 C 
ATOM     14  C   UNL     1      12.359   7.643  19.661  0.00  0.00    +0.242 C 
ATOM     15  C   UNL     1      12.407   7.638  18.138  0.00  0.00    +0.255 C 
BRANCH   5  12
ATOM     12  C   UNL     1      13.580   8.169  21.745  0.00  0.00    +0.105 C 
ATOM     16  C   UNL     1      13.923   9.588  22.150  0.00  0.00    +0.024 C 
ENDBRANCH   5  12
ENDBRANCH  10   9
BRANCH  10   2
ATOM      2  O   UNL     1      14.822   5.856  20.441  0.00  0.00    -0.385 OA
ATOM     28  H   UNL     1      14.613   5.060  19.925  0.00  0.00    +0.210 HD
ENDBRANCH  10   2
ENDBRANCH  13  10
TORSDOF 6
ENDMDL
MODEL 9
REMARK VINA RESULT:      -6.4     27.729     31.629
REMARK  Name = 56774566
REMARK  9 active torsions:
REMARK  status: ('A' for Active; 'I' for Inactive)
REMARK    1  A    between atoms: O_2  and  C_10
REMARK    2  A    between atoms: N_5  and  C_12
REMARK    3  A    between atoms: N_6  and  C_21
REMARK    4  A    between atoms: N_7  and  C_26
REMARK    5  A    between atoms: C_9  and  C_10
REMARK    6  A    between atoms: C_10  and  C_13
REMARK    7  A    between atoms: C_12  and  C_16
REMARK    8  A    between atoms: C_22  and  C_23
REMARK    9  A    between atoms: C_25  and  C_27
REMARK                            x       y       z     vdW  Elec       q    Type
REMARK                         _______ _______ _______ _____ _____    ______ ____
ROOT
ATOM     13  C   UNL     1      -5.073 -10.453  16.924  0.00  0.00    -0.017 A 
ATOM     17  C   UNL     1      -6.081  -9.654  16.384  0.00  0.00    +0.008 A 
ATOM     18  C   UNL     1      -5.318 -11.203  18.074  0.00  0.00    +0.008 A 
ATOM     19  C   UNL     1      -7.335  -9.606  16.994  0.00  0.00    +0.023 A 
ATOM     20  C   UNL     1      -6.571 -11.155  18.685  0.00  0.00    +0.023 A 
ATOM     21  C   UNL     1      -7.580 -10.357  18.144  0.00  0.00    +0.034 A 
ENDROOT
BRANCH  21   6
ATOM      4  O   UNL     1     -10.152 -11.704  17.397  0.00  0.00    -0.268 OA
ATOM      6  N   UNL     1      -8.833 -10.309  18.754  0.00  0.00    -0.280 N 
ATOM     22  C   UNL     1     -10.009 -10.961  18.363  0.00  0.00    +0.266 C 
ATOM     29  H   UNL     1      -8.883  -9.720  19.582  0.00  0.00    +0.155 HD
BRANCH  22  23
ATOM      7  N   UNL     1     -11.580 -11.543  20.265  0.00  0.00    -0.262 N 
ATOM      8  N   UNL     1     -12.680 -11.113  20.907  0.00  0.00    -0.176 NA
ATOM     23  C   UNL     1     -11.188 -10.733  19.240  0.00  0.00    +0.124 A 
ATOM     24  C   UNL     1     -12.094  -9.701  19.209  0.00  0.00    +0.057 A 
ATOM     25  C   UNL     1     -12.989  -9.988  20.257  0.00  0.00    +0.061 A 
ATOM     26  C   UNL     1     -10.943 -12.764  20.698  0.00  0.00    +0.173 C 
ATOM     27  C   UNL     1     -14.164  -9.202  20.672  0.00  0.00    +0.067 C 
ENDBRANCH  22  23
ENDBRANCH  21   6
BRANCH  13  10
ATOM     10  C   UNL     1      -3.718 -10.505  16.264  0.00  0.00    +0.167 C 
BRANCH  10   9
ATOM      1  O   UNL     1      -1.454 -11.034  14.474  0.00  0.00    -0.369 OA
ATOM      3  O   UNL     1      -2.798 -14.385  14.543  0.00  0.00    -0.273 OA
ATOM      5  N   UNL     1      -3.924 -12.350  14.640  0.00  0.00    -0.292 N 
ATOM      9  C   UNL     1      -3.820 -10.893  14.786  0.00  0.00    +0.135 C 
ATOM     11  C   UNL     1      -2.622 -10.375  13.999  0.00  0.00    +0.185 C 
ATOM     14  C   UNL     1      -2.794 -13.153  14.497  0.00  0.00    +0.242 C 
ATOM     15  C   UNL     1      -1.499 -12.413  14.183  0.00  0.00    +0.255 C 
BRANCH   5  12
ATOM     12  C   UNL     1      -5.236 -12.954  14.832  0.00  0.00    +0.105 C 
ATOM     16  C   UNL     1      -6.266 -12.353  13.898  0.00  0.00    +0.024 C 
ENDBRANCH   5  12
ENDBRANCH  10   9
BRANCH  10   2
ATOM      2  O   UNL     1      -2.895 -11.448  16.942  0.00  0.00    -0.385 OA
ATOM     28  H   UNL     1      -2.859 -11.222  17.886  0.00  0.00    +0.210 HD
ENDBRANCH  10   2
ENDBRANCH  13  10
TORSDOF 6
ENDMDL
MODEL 10
REMARK VINA RESULT:      -6.4     27.915     31.114
REMARK  Name = 56774566
REMARK  9 active torsions:
REMARK  status: ('A' for Active; 'I' for Inactive)
REMARK    1  A    between atoms: O_2  and  C_10
REMARK    2  A    between atoms: N_5  and  C_12
REMARK    3  A    between atoms: N_6  and  C_21
REMARK    4  A    between atoms: N_7  and  C_26
REMARK    5  A    between atoms: C_9  and  C_10
REMARK    6  A    between atoms: C_10  and  C_13
REMARK    7  A    between atoms: C_12  and  C_16
REMARK    8  A    between atoms: C_22  and  C_23
REMARK    9  A    between atoms: C_25  and  C_27
REMARK                            x       y       z     vdW  Elec       q    Type
REMARK                         _______ _______ _______ _____ _____    ______ ____
ROOT
ATOM     13  C   UNL     1      -3.267 -10.675  10.566  0.00  0.00    -0.017 A 
ATOM     17  C   UNL     1      -3.916 -11.605   9.753  0.00  0.00    +0.008 A 
ATOM     18  C   UNL     1      -3.388  -9.311  10.301  0.00  0.00    +0.008 A 
ATOM     19  C   UNL     1      -4.687 -11.170   8.674  0.00  0.00    +0.023 A 
ATOM     20  C   UNL     1      -4.159  -8.876   9.222  0.00  0.00    +0.023 A 
ATOM     21  C   UNL     1      -4.809  -9.806   8.410  0.00  0.00    +0.034 A 
ENDROOT
BRANCH  21   6
ATOM      4  O   UNL     1      -7.770  -9.949   7.961  0.00  0.00    -0.268 OA
ATOM      6  N   UNL     1      -5.580  -9.371   7.331  0.00  0.00    -0.280 N 
ATOM     22  C   UNL     1      -6.968  -9.462   7.170  0.00  0.00    +0.266 C 
ATOM     29  H   UNL     1      -5.052  -8.940   6.575  0.00  0.00    +0.155 HD
BRANCH  22  23
ATOM      7  N   UNL     1      -8.237  -7.732   5.822  0.00  0.00    -0.262 N 
ATOM      8  N   UNL     1      -8.601  -7.418   4.566  0.00  0.00    -0.176 NA
ATOM     23  C   UNL     1      -7.504  -8.878   5.912  0.00  0.00    +0.124 A 
ATOM     24  C   UNL     1      -7.379  -9.347   4.627  0.00  0.00    +0.057 A 
ATOM     25  C   UNL     1      -8.075  -8.409   3.842  0.00  0.00    +0.061 A 
ATOM     26  C   UNL     1      -8.636  -6.868   6.909  0.00  0.00    +0.173 C 
ATOM     27  C   UNL     1      -8.259  -8.424   2.380  0.00  0.00    +0.067 C 
ENDBRANCH  22  23
ENDBRANCH  21   6
BRANCH  13  10
ATOM     10  C   UNL     1      -2.435 -11.145  11.732  0.00  0.00    +0.167 C 
BRANCH  10   9
ATOM      1  O   UNL     1      -1.381 -12.472  14.127  0.00  0.00    -0.369 OA
ATOM      3  O   UNL     1      -3.781 -10.341  15.782  0.00  0.00    -0.273 OA
ATOM      5  N   UNL     1      -3.916 -11.357  13.692  0.00  0.00    -0.292 N 
ATOM      9  C   UNL     1      -3.215 -12.101  12.639  0.00  0.00    +0.135 C 
ATOM     11  C   UNL     1      -2.291 -13.142  13.263  0.00  0.00    +0.185 C 
ATOM     14  C   UNL     1      -3.321 -11.099  14.925  0.00  0.00    +0.242 C 
ATOM     15  C   UNL     1      -2.056 -11.896  15.223  0.00  0.00    +0.255 C 
BRANCH   5  12
ATOM     12  C   UNL     1      -5.188 -10.737  13.346  0.00  0.00    +0.105 C 
ATOM     16  C   UNL     1      -6.144 -11.738  12.730  0.00  0.00    +0.024 C 
ENDBRANCH   5  12
ENDBRANCH  10   9
BRANCH  10   2
ATOM      2  O   UNL     1      -2.004 -10.021  12.492  0.00  0.00    -0.385 OA
ATOM     28  H   UNL     1      -1.771 -10.311  13.389  0.00  0.00    +0.210 HD
ENDBRANCH  10   2
ENDBRANCH  13  10
TORSDOF 6
ENDMDL
