REMARK  Name = 45360480
REMARK  11 active torsions:
REMARK  status: ('A' for Active; 'I' for Inactive)
REMARK    1  A    between atoms: N_3  and  C_15
REMARK    2  A    between atoms: N_3  and  C_17
REMARK    3  A    between atoms: C_9  and  C_15
REMARK    4  A    between atoms: C_10  and  C_16
REMARK    5  A    between atoms: C_23  and  C_25
REMARK    6  A    between atoms: C_24  and  C_29
REMARK    7  A    between atoms: C_25  and  C_26
REMARK    8  A    between atoms: C_25  and  C_27
REMARK    9  A    between atoms: C_26  and  C_30
REMARK   10  A    between atoms: C_27  and  C_31
REMARK   11  A    between atoms: C_28  and  C_32
REMARK                            x       y       z     vdW  Elec       q    Type
REMARK                         _______ _______ _______ _____ _____    ______ ____
ROOT
ATOM      2  N   UNL     1       0.529  -3.983   0.917  0.00  0.00    -0.298 NA
ATOM      8  C   UNL     1       1.622  -3.059  -1.259  0.00  0.00    +0.002 C 
ATOM      9  C   UNL     1      -0.524  -3.503  -0.016  0.00  0.00    +0.071 C 
ATOM     10  C   UNL     1       2.300  -2.440  -0.005  0.00  0.00    +0.055 C 
ATOM     11  C   UNL     1       0.107  -2.766  -1.216  0.00  0.00    +0.024 C 
ATOM     12  C   UNL     1       1.791  -4.589  -1.147  0.00  0.00    +0.019 C 
ATOM     13  C   UNL     1       1.469  -2.878   1.235  0.00  0.00    +0.094 C 
ATOM     14  C   UNL     1       1.290  -5.055   0.232  0.00  0.00    +0.085 C 
ENDROOT
BRANCH  10  16
ATOM      4  N   UNL     1       1.524  -0.124  -0.127  0.00  0.00    -0.232 NA
ATOM      6  N   UNL     1       3.040   1.746  -0.015  0.00  0.00    -0.232 NA
ATOM     16  C   UNL     1       2.588  -0.946  -0.007  0.00  0.00    +0.050 A 
ATOM     18  C   UNL     1       3.889  -0.502   0.111  0.00  0.00    +0.047 A 
ATOM     23  C   UNL     1       4.057   0.867   0.101  0.00  0.00    +0.048 A 
ATOM     24  C   UNL     1       1.818   1.190  -0.124  0.00  0.00    +0.160 A 
BRANCH  24  29
ATOM      7  N   UNL     1      -1.446   3.861  -0.502  0.00  0.00    -0.263 NA
ATOM     29  C   UNL     1       0.709   2.098  -0.253  0.00  0.00    +0.022 A 
ATOM     33  C   UNL     1      -0.425   1.719  -0.963  0.00  0.00    +0.031 A 
ATOM     34  C   UNL     1       0.766   3.358   0.333  0.00  0.00    +0.031 A 
ATOM     35  C   UNL     1      -1.466   2.629  -1.057  0.00  0.00    +0.111 A 
ATOM     36  C   UNL     1      -0.328   4.194   0.181  0.00  0.00    +0.111 A 
ENDBRANCH  24  29
BRANCH  23  25
ATOM     25  C   UNL     1       5.429   1.440   0.225  0.00  0.00    +0.037 C 
BRANCH  25  26
ATOM     26  C   UNL     1       5.858   2.271  -1.020  0.00  0.00    +0.006 C 
ATOM     30  C   UNL     1       5.877   1.448  -2.303  0.00  0.00    +0.004 C 
ENDBRANCH  25  26
BRANCH  25  27
ATOM     27  C   UNL     1       5.611   2.320   1.496  0.00  0.00    +0.006 C 
ATOM     31  C   UNL     1       5.378   1.547   2.789  0.00  0.00    +0.004 C 
ENDBRANCH  25  27
ENDBRANCH  23  25
ENDBRANCH  10  16
BRANCH   9  15
ATOM     15  C   UNL     1      -1.580  -2.648   0.688  0.00  0.00    +0.100 C 
BRANCH  15   3
ATOM      3  N   UNL     1      -2.667  -2.321  -0.221  0.00  0.00    -0.312 NA
ATOM     37  H   UNL     1      -3.081  -3.186  -0.567  0.00  0.00    +0.122 HD
BRANCH   3  17
ATOM      1  O   UNL     1      -7.364   1.618  -0.695  0.00  0.00    -0.276 OA
ATOM      5  N   UNL     1      -5.563   0.686   0.439  0.00  0.00    -0.302 N 
ATOM     17  C   UNL     1      -3.688  -1.520   0.450  0.00  0.00    +0.057 C 
ATOM     19  C   UNL     1      -5.008  -1.591  -0.329  0.00  0.00    +0.037 C 
ATOM     20  C   UNL     1      -3.218  -0.066   0.578  0.00  0.00    +0.037 C 
ATOM     21  C   UNL     1      -6.063  -0.684   0.303  0.00  0.00    +0.109 C 
ATOM     22  C   UNL     1      -4.309   0.811   1.192  0.00  0.00    +0.109 C 
ATOM     28  C   UNL     1      -6.293   1.747  -0.096  0.00  0.00    +0.212 C 
ATOM     32  C   UNL     1      -5.710   3.126   0.083  0.00  0.00    +0.109 C 
ENDBRANCH   3  17
ENDBRANCH  15   3
ENDBRANCH   9  15
TORSDOF 8
