MODEL 1
REMARK VINA RESULT:      -6.6      0.000      0.000
REMARK  Name = 44716866
REMARK  13 active torsions:
REMARK  status: ('A' for Active; 'I' for Inactive)
REMARK    1  A    between atoms: O_2  and  C_15
REMARK    2  A    between atoms: O_2  and  C_24
REMARK    3  A    between atoms: O_3  and  C_16
REMARK    4  A    between atoms: O_4  and  C_20
REMARK    5  A    between atoms: N_7  and  C_25
REMARK    6  A    between atoms: N_8  and  C_26
REMARK    7  A    between atoms: C_9  and  C_19
REMARK    8  A    between atoms: C_11  and  C_20
REMARK    9  A    between atoms: C_11  and  C_21
REMARK   10  A    between atoms: C_12  and  C_22
REMARK   11  A    between atoms: C_22  and  C_23
REMARK   12  A    between atoms: C_25  and  C_27
REMARK   13  A    between atoms: C_26  and  C_28
REMARK                            x       y       z     vdW  Elec       q    Type
REMARK                         _______ _______ _______ _____ _____    ______ ____
ROOT
ATOM      9  C   UNL     1      14.124   9.367  19.785  0.00  0.00    -0.023 C 
ATOM     10  C   UNL     1      12.944   9.087  18.775  0.00  0.00    +0.007 C 
ATOM     11  C   UNL     1      13.242   9.350  17.249  0.00  0.00    +0.031 C 
ATOM     12  C   UNL     1      13.501   9.346  21.242  0.00  0.00    +0.032 C 
ATOM     13  C   UNL     1      14.695  10.781  19.495  0.00  0.00    +0.011 C 
ATOM     14  C   UNL     1      12.271   7.729  19.076  0.00  0.00    +0.007 C 
ATOM     15  C   UNL     1      13.883  10.762  17.097  0.00  0.00    +0.186 C 
ATOM     16  C   UNL     1      12.736   8.040  21.566  0.00  0.00    +0.119 C 
ATOM     17  C   UNL     1      15.062  11.007  18.032  0.00  0.00    +0.046 C 
ATOM     18  C   UNL     1      11.704   7.693  20.497  0.00  0.00    +0.032 C 
ATOM     19  C   UNL     1      15.287   8.349  19.676  0.00  0.00    +0.012 C 
ATOM     21  C   UNL     1      11.897   9.362  16.464  0.00  0.00    +0.017 C 
ENDROOT
BRANCH  16   3
ATOM      3  O   UNL     1      13.638   6.951  21.736  0.00  0.00    -0.391 OA
ATOM     34  H   UNL     1      13.402   6.268  21.085  0.00  0.00    +0.210 HD
ENDBRANCH  16   3
BRANCH  15   2
ATOM      2  O   UNL     1      14.347  10.993  15.767  0.00  0.00    -0.446 OA
BRANCH   2  24
ATOM      6  O   UNL     1      14.344  13.281  15.567  0.00  0.00    -0.226 OA
ATOM      8  N   UNL     1      13.099  11.931  14.150  0.00  0.00    -0.281 N 
ATOM     24  C   UNL     1      13.965  12.175  15.194  0.00  0.00    +0.401 C 
ATOM     37  H   UNL     1      12.867  10.965  13.937  0.00  0.00    +0.152 HD
BRANCH   8  26
ATOM     26  C   UNL     1      12.509  12.970  13.335  0.00  0.00    +0.104 C 
ATOM     28  C   UNL     1      12.068  12.435  11.990  0.00  0.00    +0.024 C 
ENDBRANCH   8  26
ENDBRANCH   2  24
ENDBRANCH  15   2
BRANCH  11  20
ATOM     20  C   UNL     1      14.108   8.263  16.581  0.00  0.00    +0.166 C 
BRANCH  20   4
ATOM      4  O   UNL     1      13.894   8.335  15.187  0.00  0.00    -0.394 OA
ATOM     35  H   UNL     1      13.940   9.273  14.936  0.00  0.00    +0.209 HD
ENDBRANCH  20   4
ENDBRANCH  11  20
BRANCH  12  22
ATOM     22  C   UNL     1      14.492   9.663  22.374  0.00  0.00    +0.102 C 
BRANCH  22  23
ATOM      5  O   UNL     1      14.849  11.884  23.265  0.00  0.00    -0.276 OA
ATOM      7  N   UNL     1      12.819  10.814  23.629  0.00  0.00    -0.311 N 
ATOM     23  C   UNL     1      14.107  10.916  23.126  0.00  0.00    +0.214 C 
ATOM     36  H   UNL     1      12.293   9.956  23.491  0.00  0.00    +0.149 HD
BRANCH   7  25
ATOM     25  C   UNL     1      12.185  11.863  24.395  0.00  0.00    +0.139 C 
BRANCH  25  27
ATOM      1  F   UNL     1       8.993  15.195  21.168  0.00  0.00    -0.205 F 
ATOM     27  C   UNL     1      11.334  12.752  23.534  0.00  0.00    -0.030 A 
ATOM     29  C   UNL     1      10.334  13.533  24.113  0.00  0.00    +0.008 A 
ATOM     30  C   UNL     1      11.543  12.796  22.156  0.00  0.00    +0.008 A 
ATOM     31  C   UNL     1       9.543  14.358  23.314  0.00  0.00    +0.038 A 
ATOM     32  C   UNL     1      10.752  13.622  21.357  0.00  0.00    +0.038 A 
ATOM     33  C   UNL     1       9.752  14.401  21.936  0.00  0.00    +0.123 A 
ENDBRANCH  25  27
ENDBRANCH   7  25
ENDBRANCH  22  23
ENDBRANCH  12  22
TORSDOF 10
ENDMDL
MODEL 2
REMARK VINA RESULT:      -6.5      4.321      8.175
REMARK  Name = 44716866
REMARK  13 active torsions:
REMARK  status: ('A' for Active; 'I' for Inactive)
REMARK    1  A    between atoms: O_2  and  C_15
REMARK    2  A    between atoms: O_2  and  C_24
REMARK    3  A    between atoms: O_3  and  C_16
REMARK    4  A    between atoms: O_4  and  C_20
REMARK    5  A    between atoms: N_7  and  C_25
REMARK    6  A    between atoms: N_8  and  C_26
REMARK    7  A    between atoms: C_9  and  C_19
REMARK    8  A    between atoms: C_11  and  C_20
REMARK    9  A    between atoms: C_11  and  C_21
REMARK   10  A    between atoms: C_12  and  C_22
REMARK   11  A    between atoms: C_22  and  C_23
REMARK   12  A    between atoms: C_25  and  C_27
REMARK   13  A    between atoms: C_26  and  C_28
REMARK                            x       y       z     vdW  Elec       q    Type
REMARK                         _______ _______ _______ _____ _____    ______ ____
ROOT
ATOM      9  C   UNL     1      13.415   9.048  20.909  0.00  0.00    -0.023 C 
ATOM     10  C   UNL     1      12.214   9.179  21.924  0.00  0.00    +0.007 C 
ATOM     11  C   UNL     1      11.988  10.598  22.573  0.00  0.00    +0.031 C 
ATOM     12  C   UNL     1      13.635   7.499  20.650  0.00  0.00    +0.032 C 
ATOM     13  C   UNL     1      14.687   9.639  21.573  0.00  0.00    +0.011 C 
ATOM     14  C   UNL     1      10.937   8.520  21.356  0.00  0.00    +0.007 C 
ATOM     15  C   UNL     1      13.348  11.119  23.132  0.00  0.00    +0.186 C 
ATOM     16  C   UNL     1      12.360   6.770  20.164  0.00  0.00    +0.119 C 
ATOM     17  C   UNL     1      14.493  11.046  22.128  0.00  0.00    +0.046 C 
ATOM     18  C   UNL     1      11.160   7.034  21.068  0.00  0.00    +0.032 C 
ATOM     19  C   UNL     1      13.181   9.794  19.572  0.00  0.00    +0.012 C 
ATOM     21  C   UNL     1      11.014  10.456  23.780  0.00  0.00    +0.017 C 
ENDROOT
BRANCH  16   3
ATOM      3  O   UNL     1      12.044   7.137  18.825  0.00  0.00    -0.391 OA
ATOM     34  H   UNL     1      11.075   7.166  18.747  0.00  0.00    +0.210 HD
ENDBRANCH  16   3
BRANCH  15   2
ATOM      2  O   UNL     1      13.257  12.475  23.569  0.00  0.00    -0.446 OA
BRANCH   2  24
ATOM      6  O   UNL     1      13.540  11.826  25.753  0.00  0.00    -0.226 OA
ATOM      8  N   UNL     1      12.751  13.936  25.200  0.00  0.00    -0.281 N 
ATOM     24  C   UNL     1      13.213  12.667  24.922  0.00  0.00    +0.401 C 
ATOM     37  H   UNL     1      12.518  14.541  24.419  0.00  0.00    +0.152 HD
BRANCH   8  26
ATOM     26  C   UNL     1      12.585  14.455  26.539  0.00  0.00    +0.104 C 
ATOM     28  C   UNL     1      11.182  14.980  26.760  0.00  0.00    +0.024 C 
ENDBRANCH   8  26
ENDBRANCH   2  24
ENDBRANCH  15   2
BRANCH  11  20
ATOM     20  C   UNL     1      11.337  11.627  21.628  0.00  0.00    +0.166 C 
BRANCH  20   4
ATOM      4  O   UNL     1      10.573  12.515  22.414  0.00  0.00    -0.394 OA
ATOM     35  H   UNL     1      11.020  12.599  23.273  0.00  0.00    +0.209 HD
ENDBRANCH  20   4
ENDBRANCH  11  20
BRANCH  12  22
ATOM     22  C   UNL     1      14.815   7.160  19.726  0.00  0.00    +0.102 C 
BRANCH  22  23
ATOM      5  O   UNL     1      15.901   6.124  21.623  0.00  0.00    -0.276 OA
ATOM      7  N   UNL     1      17.152   6.673  19.744  0.00  0.00    -0.311 N 
ATOM     23  C   UNL     1      15.986   6.591  20.492  0.00  0.00    +0.214 C 
ATOM     36  H   UNL     1      17.129   7.109  18.827  0.00  0.00    +0.149 HD
BRANCH   7  25
ATOM     25  C   UNL     1      18.433   6.208  20.225  0.00  0.00    +0.139 C 
BRANCH  25  27
ATOM      1  F   UNL     1      20.529   9.568  24.227  0.00  0.00    -0.205 F 
ATOM     27  C   UNL     1      18.992   7.104  21.293  0.00  0.00    -0.030 A 
ATOM     29  C   UNL     1      18.751   8.478  21.246  0.00  0.00    +0.008 A 
ATOM     30  C   UNL     1      19.752   6.563  22.329  0.00  0.00    +0.008 A 
ATOM     31  C   UNL     1      19.271   9.310  22.237  0.00  0.00    +0.038 A 
ATOM     32  C   UNL     1      20.271   7.397  23.321  0.00  0.00    +0.038 A 
ATOM     33  C   UNL     1      20.031   8.769  23.274  0.00  0.00    +0.123 A 
ENDBRANCH  25  27
ENDBRANCH   7  25
ENDBRANCH  22  23
ENDBRANCH  12  22
TORSDOF 10
ENDMDL
MODEL 3
REMARK VINA RESULT:      -6.4     27.033     29.670
REMARK  Name = 44716866
REMARK  13 active torsions:
REMARK  status: ('A' for Active; 'I' for Inactive)
REMARK    1  A    between atoms: O_2  and  C_15
REMARK    2  A    between atoms: O_2  and  C_24
REMARK    3  A    between atoms: O_3  and  C_16
REMARK    4  A    between atoms: O_4  and  C_20
REMARK    5  A    between atoms: N_7  and  C_25
REMARK    6  A    between atoms: N_8  and  C_26
REMARK    7  A    between atoms: C_9  and  C_19
REMARK    8  A    between atoms: C_11  and  C_20
REMARK    9  A    between atoms: C_11  and  C_21
REMARK   10  A    between atoms: C_12  and  C_22
REMARK   11  A    between atoms: C_22  and  C_23
REMARK   12  A    between atoms: C_25  and  C_27
REMARK   13  A    between atoms: C_26  and  C_28
REMARK                            x       y       z     vdW  Elec       q    Type
REMARK                         _______ _______ _______ _____ _____    ______ ____
ROOT
ATOM      9  C   UNL     1      -7.132 -10.608  17.253  0.00  0.00    -0.023 C 
ATOM     10  C   UNL     1      -6.546 -12.072  17.323  0.00  0.00    +0.007 C 
ATOM     11  C   UNL     1      -5.005 -12.202  17.628  0.00  0.00    +0.031 C 
ATOM     12  C   UNL     1      -8.585 -10.721  16.628  0.00  0.00    +0.032 C 
ATOM     13  C   UNL     1      -6.235  -9.763  16.309  0.00  0.00    +0.011 C 
ATOM     14  C   UNL     1      -7.452 -12.989  18.174  0.00  0.00    +0.007 C 
ATOM     15  C   UNL     1      -4.219 -11.252  16.675  0.00  0.00    +0.186 C 
ATOM     16  C   UNL     1      -9.509 -11.698  17.392  0.00  0.00    +0.119 C 
ATOM     17  C   UNL     1      -4.752  -9.823  16.657  0.00  0.00    +0.046 C 
ATOM     18  C   UNL     1      -8.865 -13.066  17.594  0.00  0.00    +0.032 C 
ATOM     19  C   UNL     1      -7.186  -9.896  18.628  0.00  0.00    +0.012 C 
ATOM     21  C   UNL     1      -4.546 -13.657  17.316  0.00  0.00    +0.017 C 
ENDROOT
BRANCH  16   3
ATOM      3  O   UNL     1      -9.893 -11.155  18.651  0.00  0.00    -0.391 OA
ATOM     34  H   UNL     1     -10.778 -10.765  18.548  0.00  0.00    +0.210 HD
ENDBRANCH  16   3
BRANCH  15   2
ATOM      2  O   UNL     1      -2.836 -11.180  17.019  0.00  0.00    -0.446 OA
BRANCH   2  24
ATOM      6  O   UNL     1      -1.054 -10.301  15.868  0.00  0.00    -0.226 OA
ATOM      8  N   UNL     1      -2.249 -12.118  15.063  0.00  0.00    -0.281 N 
ATOM     24  C   UNL     1      -1.959 -11.123  15.971  0.00  0.00    +0.401 C 
ATOM     37  H   UNL     1      -3.025 -12.741  15.268  0.00  0.00    +0.152 HD
BRANCH   8  26
ATOM     26  C   UNL     1      -1.508 -12.331  13.840  0.00  0.00    +0.104 C 
ATOM     28  C   UNL     1      -2.130 -11.583  12.679  0.00  0.00    +0.024 C 
ENDBRANCH   8  26
ENDBRANCH   2  24
ENDBRANCH  15   2
BRANCH  11  20
ATOM     20  C   UNL     1      -4.632 -11.954  19.104  0.00  0.00    +0.166 C 
BRANCH  20   4
ATOM      4  O   UNL     1      -3.372 -12.545  19.338  0.00  0.00    -0.394 OA
ATOM     35  H   UNL     1      -2.833 -12.401  18.542  0.00  0.00    +0.209 HD
ENDBRANCH  20   4
ENDBRANCH  11  20
BRANCH  12  22
ATOM     22  C   UNL     1      -9.304  -9.379  16.418  0.00  0.00    +0.102 C 
BRANCH  22  23
ATOM      5  O   UNL     1     -10.497  -8.347  14.584  0.00  0.00    -0.276 OA
ATOM      7  N   UNL     1      -8.862  -9.937  14.139  0.00  0.00    -0.311 N 
ATOM     23  C   UNL     1      -9.642  -9.140  14.965  0.00  0.00    +0.214 C 
ATOM     36  H   UNL     1      -8.203 -10.591  14.551  0.00  0.00    +0.149 HD
BRANCH   7  25
ATOM     25  C   UNL     1      -8.969  -9.923  12.699  0.00  0.00    +0.139 C 
BRANCH  25  27
ATOM      1  F   UNL     1      -4.040  -8.768  10.233  0.00  0.00    -0.205 F 
ATOM     27  C   UNL     1      -7.655  -9.615  12.041  0.00  0.00    -0.030 A 
ATOM     29  C   UNL     1      -6.462  -9.829  12.732  0.00  0.00    +0.008 A 
ATOM     30  C   UNL     1      -7.626  -9.114  10.739  0.00  0.00    +0.008 A 
ATOM     31  C   UNL     1      -5.241  -9.543  12.122  0.00  0.00    +0.038 A 
ATOM     32  C   UNL     1      -6.404  -8.829  10.129  0.00  0.00    +0.038 A 
ATOM     33  C   UNL     1      -5.213  -9.042  10.820  0.00  0.00    +0.123 A 
ENDBRANCH  25  27
ENDBRANCH   7  25
ENDBRANCH  22  23
ENDBRANCH  12  22
TORSDOF 10
ENDMDL
MODEL 4
REMARK VINA RESULT:      -6.3     27.922     31.065
REMARK  Name = 44716866
REMARK  13 active torsions:
REMARK  status: ('A' for Active; 'I' for Inactive)
REMARK    1  A    between atoms: O_2  and  C_15
REMARK    2  A    between atoms: O_2  and  C_24
REMARK    3  A    between atoms: O_3  and  C_16
REMARK    4  A    between atoms: O_4  and  C_20
REMARK    5  A    between atoms: N_7  and  C_25
REMARK    6  A    between atoms: N_8  and  C_26
REMARK    7  A    between atoms: C_9  and  C_19
REMARK    8  A    between atoms: C_11  and  C_20
REMARK    9  A    between atoms: C_11  and  C_21
REMARK   10  A    between atoms: C_12  and  C_22
REMARK   11  A    between atoms: C_22  and  C_23
REMARK   12  A    between atoms: C_25  and  C_27
REMARK   13  A    between atoms: C_26  and  C_28
REMARK                            x       y       z     vdW  Elec       q    Type
REMARK                         _______ _______ _______ _____ _____    ______ ____
ROOT
ATOM      9  C   UNL     1     -16.360   4.325  29.885  0.00  0.00    -0.023 C 
ATOM     10  C   UNL     1     -15.210   3.747  30.799  0.00  0.00    +0.007 C 
ATOM     11  C   UNL     1     -15.058   4.386  32.233  0.00  0.00    +0.031 C 
ATOM     12  C   UNL     1     -16.110   3.769  28.422  0.00  0.00    +0.032 C 
ATOM     13  C   UNL     1     -16.245   5.873  29.869  0.00  0.00    +0.011 C 
ATOM     14  C   UNL     1     -15.213   2.203  30.780  0.00  0.00    +0.007 C 
ATOM     15  C   UNL     1     -15.035   5.939  32.093  0.00  0.00    +0.186 C 
ATOM     16  C   UNL     1     -16.015   2.226  28.357  0.00  0.00    +0.119 C 
ATOM     17  C   UNL     1     -16.182   6.498  31.258  0.00  0.00    +0.046 C 
ATOM     18  C   UNL     1     -15.012   1.665  29.362  0.00  0.00    +0.032 C 
ATOM     19  C   UNL     1     -17.783   3.955  30.371  0.00  0.00    +0.012 C 
ATOM     21  C   UNL     1     -13.691   3.954  32.840  0.00  0.00    +0.017 C 
ENDROOT
BRANCH  16   3
ATOM      3  O   UNL     1     -17.291   1.629  28.566  0.00  0.00    -0.391 OA
ATOM     34  H   UNL     1     -17.171   0.664  28.553  0.00  0.00    +0.210 HD
ENDBRANCH  16   3
BRANCH  15   2
ATOM      2  O   UNL     1     -15.085   6.587  33.363  0.00  0.00    -0.446 OA
BRANCH   2  24
ATOM      6  O   UNL     1     -15.036   8.846  33.772  0.00  0.00    -0.226 OA
ATOM      8  N   UNL     1     -13.146   7.689  33.087  0.00  0.00    -0.281 N 
ATOM     24  C   UNL     1     -14.473   7.808  33.439  0.00  0.00    +0.401 C 
ATOM     37  H   UNL     1     -12.799   6.769  32.835  0.00  0.00    +0.152 HD
BRANCH   8  26
ATOM     26  C   UNL     1     -12.219   8.799  33.062  0.00  0.00    +0.104 C 
ATOM     28  C   UNL     1     -11.358   8.773  31.817  0.00  0.00    +0.024 C 
ENDBRANCH   8  26
ENDBRANCH   2  24
ENDBRANCH  15   2
BRANCH  11  20
ATOM     20  C   UNL     1     -16.129   3.928  33.243  0.00  0.00    +0.166 C 
BRANCH  20   4
ATOM      4  O   UNL     1     -15.564   3.997  34.535  0.00  0.00    -0.394 OA
ATOM     35  H   UNL     1     -16.069   3.393  35.104  0.00  0.00    +0.209 HD
ENDBRANCH  20   4
ENDBRANCH  11  20
BRANCH  12  22
ATOM     22  C   UNL     1     -17.100   4.275  27.360  0.00  0.00    +0.102 C 
BRANCH  22  23
ATOM      5  O   UNL     1     -17.497   2.764  25.513  0.00  0.00    -0.276 OA
ATOM      7  N   UNL     1     -15.735   4.274  25.401  0.00  0.00    -0.311 N 
ATOM     23  C   UNL     1     -16.829   3.670  26.002  0.00  0.00    +0.214 C 
ATOM     36  H   UNL     1     -15.223   4.995  25.901  0.00  0.00    +0.149 HD
BRANCH   7  25
ATOM     25  C   UNL     1     -15.243   3.897  24.096  0.00  0.00    +0.139 C 
BRANCH  25  27
ATOM      1  F   UNL     1     -13.677   8.373  21.060  0.00  0.00    -0.205 F 
ATOM     27  C   UNL     1     -14.825   5.091  23.287  0.00  0.00    -0.030 A 
ATOM     29  C   UNL     1     -15.519   6.295  23.410  0.00  0.00    +0.008 A 
ATOM     30  C   UNL     1     -13.744   4.996  22.411  0.00  0.00    +0.008 A 
ATOM     31  C   UNL     1     -15.132   7.403  22.658  0.00  0.00    +0.038 A 
ATOM     32  C   UNL     1     -13.356   6.106  21.659  0.00  0.00    +0.038 A 
ATOM     33  C   UNL     1     -14.050   7.308  21.782  0.00  0.00    +0.123 A 
ENDBRANCH  25  27
ENDBRANCH   7  25
ENDBRANCH  22  23
ENDBRANCH  12  22
TORSDOF 10
ENDMDL
MODEL 5
REMARK VINA RESULT:      -6.3     27.274     29.936
REMARK  Name = 44716866
REMARK  13 active torsions:
REMARK  status: ('A' for Active; 'I' for Inactive)
REMARK    1  A    between atoms: O_2  and  C_15
REMARK    2  A    between atoms: O_2  and  C_24
REMARK    3  A    between atoms: O_3  and  C_16
REMARK    4  A    between atoms: O_4  and  C_20
REMARK    5  A    between atoms: N_7  and  C_25
REMARK    6  A    between atoms: N_8  and  C_26
REMARK    7  A    between atoms: C_9  and  C_19
REMARK    8  A    between atoms: C_11  and  C_20
REMARK    9  A    between atoms: C_11  and  C_21
REMARK   10  A    between atoms: C_12  and  C_22
REMARK   11  A    between atoms: C_22  and  C_23
REMARK   12  A    between atoms: C_25  and  C_27
REMARK   13  A    between atoms: C_26  and  C_28
REMARK                            x       y       z     vdW  Elec       q    Type
REMARK                         _______ _______ _______ _____ _____    ______ ____
ROOT
ATOM      9  C   UNL     1      -5.102 -11.589  15.280  0.00  0.00    -0.023 C 
ATOM     10  C   UNL     1      -4.932 -10.945  16.710  0.00  0.00    +0.007 C 
ATOM     11  C   UNL     1      -6.113 -11.165  17.730  0.00  0.00    +0.031 C 
ATOM     12  C   UNL     1      -3.971 -10.972  14.356  0.00  0.00    +0.032 C 
ATOM     13  C   UNL     1      -6.493 -11.185  14.720  0.00  0.00    +0.011 C 
ATOM     14  C   UNL     1      -3.525 -11.233  17.280  0.00  0.00    +0.007 C 
ATOM     15  C   UNL     1      -7.459 -10.803  17.030  0.00  0.00    +0.186 C 
ATOM     16  C   UNL     1      -2.544 -11.154  14.926  0.00  0.00    +0.119 C 
ATOM     17  C   UNL     1      -7.646 -11.476  15.675  0.00  0.00    +0.046 C 
ATOM     18  C   UNL     1      -2.432 -10.672  16.370  0.00  0.00    +0.032 C 
ATOM     19  C   UNL     1      -5.018 -13.135  15.282  0.00  0.00    +0.012 C 
ATOM     21  C   UNL     1      -5.937 -10.190  18.931  0.00  0.00    +0.017 C 
ENDROOT
BRANCH  16   3
ATOM      3  O   UNL     1      -2.132 -12.514  14.839  0.00  0.00    -0.391 OA
ATOM     34  H   UNL     1      -1.980 -12.835  15.744  0.00  0.00    +0.210 HD
ENDBRANCH  16   3
BRANCH  15   2
ATOM      2  O   UNL     1      -8.586 -11.154  17.833  0.00  0.00    -0.446 OA
BRANCH   2  24
ATOM      6  O   UNL     1     -10.769 -10.516  18.149  0.00  0.00    -0.226 OA
ATOM      8  N   UNL     1      -9.132  -8.996  17.526  0.00  0.00    -0.281 N 
ATOM     24  C   UNL     1      -9.607 -10.245  17.863  0.00  0.00    +0.401 C 
ATOM     37  H   UNL     1      -8.143  -8.901  17.315  0.00  0.00    +0.152 HD
BRANCH   8  26
ATOM     26  C   UNL     1      -9.959  -7.812  17.464  0.00  0.00    +0.104 C 
ATOM     28  C   UNL     1     -10.082  -7.297  16.045  0.00  0.00    +0.024 C 
ENDBRANCH   8  26
ENDBRANCH   2  24
ENDBRANCH  15   2
BRANCH  11  20
ATOM     20  C   UNL     1      -6.160 -12.579  18.343  0.00  0.00    +0.166 C 
BRANCH  20   4
ATOM      4  O   UNL     1      -6.760 -12.480  19.617  0.00  0.00    -0.394 OA
ATOM     35  H   UNL     1      -6.362 -11.714  20.065  0.00  0.00    +0.209 HD
ENDBRANCH  20   4
ENDBRANCH  11  20
BRANCH  12  22
ATOM     22  C   UNL     1      -4.009 -11.433  12.891  0.00  0.00    +0.102 C 
BRANCH  22  23
ATOM      5  O   UNL     1      -2.609 -10.021  11.513  0.00  0.00    -0.276 OA
ATOM      7  N   UNL     1      -4.896  -9.625  11.609  0.00  0.00    -0.311 N 
ATOM     23  C   UNL     1      -3.728 -10.298  11.934  0.00  0.00    +0.214 C 
ATOM     36  H   UNL     1      -5.773  -9.908  12.036  0.00  0.00    +0.149 HD
BRANCH   7  25
ATOM     25  C   UNL     1      -4.931  -8.491  10.714  0.00  0.00    +0.139 C 
BRANCH  25  27
ATOM      1  F   UNL     1      -7.247  -9.795   5.749  0.00  0.00    -0.205 F 
ATOM     27  C   UNL     1      -5.549  -8.839   9.390  0.00  0.00    -0.030 A 
ATOM     29  C   UNL     1      -4.833  -9.599   8.464  0.00  0.00    +0.008 A 
ATOM     30  C   UNL     1      -6.838  -8.402   9.085  0.00  0.00    +0.008 A 
ATOM     31  C   UNL     1      -5.406  -9.922   7.234  0.00  0.00    +0.038 A 
ATOM     32  C   UNL     1      -7.411  -8.726   7.855  0.00  0.00    +0.038 A 
ATOM     33  C   UNL     1      -6.695  -9.485   6.930  0.00  0.00    +0.123 A 
ENDBRANCH  25  27
ENDBRANCH   7  25
ENDBRANCH  22  23
ENDBRANCH  12  22
TORSDOF 10
ENDMDL
MODEL 6
REMARK VINA RESULT:      -6.2     26.820     30.199
REMARK  Name = 44716866
REMARK  13 active torsions:
REMARK  status: ('A' for Active; 'I' for Inactive)
REMARK    1  A    between atoms: O_2  and  C_15
REMARK    2  A    between atoms: O_2  and  C_24
REMARK    3  A    between atoms: O_3  and  C_16
REMARK    4  A    between atoms: O_4  and  C_20
REMARK    5  A    between atoms: N_7  and  C_25
REMARK    6  A    between atoms: N_8  and  C_26
REMARK    7  A    between atoms: C_9  and  C_19
REMARK    8  A    between atoms: C_11  and  C_20
REMARK    9  A    between atoms: C_11  and  C_21
REMARK   10  A    between atoms: C_12  and  C_22
REMARK   11  A    between atoms: C_22  and  C_23
REMARK   12  A    between atoms: C_25  and  C_27
REMARK   13  A    between atoms: C_26  and  C_28
REMARK                            x       y       z     vdW  Elec       q    Type
REMARK                         _______ _______ _______ _____ _____    ______ ____
ROOT
ATOM      9  C   UNL     1     -14.036   6.771  32.878  0.00  0.00    -0.023 C 
ATOM     10  C   UNL     1     -15.534   6.592  32.416  0.00  0.00    +0.007 C 
ATOM     11  C   UNL     1     -16.157   5.152  32.580  0.00  0.00    +0.031 C 
ATOM     12  C   UNL     1     -13.547   8.175  32.326  0.00  0.00    +0.032 C 
ATOM     13  C   UNL     1     -13.184   5.645  32.232  0.00  0.00    +0.011 C 
ATOM     14  C   UNL     1     -16.417   7.741  32.951  0.00  0.00    +0.007 C 
ATOM     15  C   UNL     1     -15.177   4.106  31.968  0.00  0.00    +0.186 C 
ATOM     16  C   UNL     1     -14.450   9.354  32.759  0.00  0.00    +0.119 C 
ATOM     17  C   UNL     1     -13.741   4.245  32.462  0.00  0.00    +0.046 C 
ATOM     18  C   UNL     1     -15.923   9.099  32.452  0.00  0.00    +0.032 C 
ATOM     19  C   UNL     1     -13.847   6.695  34.413  0.00  0.00    +0.012 C 
ATOM     21  C   UNL     1     -17.484   5.077  31.770  0.00  0.00    +0.017 C 
ENDROOT
BRANCH  16   3
ATOM      3  O   UNL     1     -14.289   9.635  34.146  0.00  0.00    -0.391 OA
ATOM     34  H   UNL     1     -13.341   9.574  34.351  0.00  0.00    +0.210 HD
ENDBRANCH  16   3
BRANCH  15   2
ATOM      2  O   UNL     1     -15.589   2.768  32.245  0.00  0.00    -0.446 OA
BRANCH   2  24
ATOM      6  O   UNL     1     -16.018   2.177  30.067  0.00  0.00    -0.226 OA
ATOM      8  N   UNL     1     -15.021   0.705  31.557  0.00  0.00    -0.281 N 
ATOM     24  C   UNL     1     -15.583   1.906  31.182  0.00  0.00    +0.401 C 
ATOM     37  H   UNL     1     -14.692   0.608  32.512  0.00  0.00    +0.152 HD
BRANCH   8  26
ATOM     26  C   UNL     1     -14.865  -0.422  30.664  0.00  0.00    +0.104 C 
ATOM     28  C   UNL     1     -13.549  -0.359  29.918  0.00  0.00    +0.024 C 
ENDBRANCH   8  26
ENDBRANCH   2  24
ENDBRANCH  15   2
BRANCH  11  20
ATOM     20  C   UNL     1     -16.532   4.790  34.032  0.00  0.00    +0.166 C 
BRANCH  20   4
ATOM      4  O   UNL     1     -17.595   3.863  33.986  0.00  0.00    -0.394 OA
ATOM     35  H   UNL     1     -18.401   4.335  34.258  0.00  0.00    +0.209 HD
ENDBRANCH  20   4
ENDBRANCH  11  20
BRANCH  12  22
ATOM     22  C   UNL     1     -12.077   8.509  32.621  0.00  0.00    +0.102 C 
BRANCH  22  23
ATOM      5  O   UNL     1     -11.576  10.841  33.029  0.00  0.00    -0.276 OA
ATOM      7  N   UNL     1     -11.613  10.040  30.848  0.00  0.00    -0.311 N 
ATOM     23  C   UNL     1     -11.729   9.926  32.226  0.00  0.00    +0.214 C 
ATOM     36  H   UNL     1     -11.792   9.230  30.262  0.00  0.00    +0.149 HD
BRANCH   7  25
ATOM     25  C   UNL     1     -11.291  11.282  30.184  0.00  0.00    +0.139 C 
BRANCH  25  27
ATOM      1  F   UNL     1     -11.681  10.838  24.584  0.00  0.00    -0.205 F 
ATOM     27  C   UNL     1     -11.394  11.163  28.690  0.00  0.00    -0.030 A 
ATOM     29  C   UNL     1     -11.994  12.183  27.950  0.00  0.00    +0.008 A 
ATOM     30  C   UNL     1     -10.892  10.034  28.043  0.00  0.00    +0.008 A 
ATOM     31  C   UNL     1     -12.092  12.073  26.563  0.00  0.00    +0.038 A 
ATOM     32  C   UNL     1     -10.989   9.925  26.656  0.00  0.00    +0.038 A 
ATOM     33  C   UNL     1     -11.589  10.943  25.917  0.00  0.00    +0.123 A 
ENDBRANCH  25  27
ENDBRANCH   7  25
ENDBRANCH  22  23
ENDBRANCH  12  22
TORSDOF 10
ENDMDL
MODEL 7
REMARK VINA RESULT:      -6.1     11.855     14.739
REMARK  Name = 44716866
REMARK  13 active torsions:
REMARK  status: ('A' for Active; 'I' for Inactive)
REMARK    1  A    between atoms: O_2  and  C_15
REMARK    2  A    between atoms: O_2  and  C_24
REMARK    3  A    between atoms: O_3  and  C_16
REMARK    4  A    between atoms: O_4  and  C_20
REMARK    5  A    between atoms: N_7  and  C_25
REMARK    6  A    between atoms: N_8  and  C_26
REMARK    7  A    between atoms: C_9  and  C_19
REMARK    8  A    between atoms: C_11  and  C_20
REMARK    9  A    between atoms: C_11  and  C_21
REMARK   10  A    between atoms: C_12  and  C_22
REMARK   11  A    between atoms: C_22  and  C_23
REMARK   12  A    between atoms: C_25  and  C_27
REMARK   13  A    between atoms: C_26  and  C_28
REMARK                            x       y       z     vdW  Elec       q    Type
REMARK                         _______ _______ _______ _____ _____    ______ ____
ROOT
ATOM      9  C   UNL     1      24.004   1.530  24.007  0.00  0.00    -0.023 C 
ATOM     10  C   UNL     1      24.608   1.492  22.549  0.00  0.00    +0.007 C 
ATOM     11  C   UNL     1      24.467   2.806  21.691  0.00  0.00    +0.031 C 
ATOM     12  C   UNL     1      23.976   0.036  24.535  0.00  0.00    +0.032 C 
ATOM     13  C   UNL     1      22.550   2.069  23.923  0.00  0.00    +0.011 C 
ATOM     14  C   UNL     1      26.023   0.874  22.555  0.00  0.00    +0.007 C 
ATOM     15  C   UNL     1      22.986   3.291  21.748  0.00  0.00    +0.186 C 
ATOM     16  C   UNL     1      25.355  -0.662  24.480  0.00  0.00    +0.119 C 
ATOM     17  C   UNL     1      22.426   3.385  23.163  0.00  0.00    +0.046 C 
ATOM     18  C   UNL     1      26.004  -0.554  23.103  0.00  0.00    +0.032 C 
ATOM     19  C   UNL     1      24.795   2.437  24.982  0.00  0.00    +0.012 C 
ATOM     21  C   UNL     1      24.791   2.480  20.203  0.00  0.00    +0.017 C 
ENDROOT
BRANCH  16   3
ATOM      3  O   UNL     1      26.233  -0.133  25.469  0.00  0.00    -0.391 OA
ATOM     34  H   UNL     1      26.527   0.743  25.164  0.00  0.00    +0.210 HD
ENDBRANCH  16   3
BRANCH  15   2
ATOM      2  O   UNL     1      22.824   4.575  21.146  0.00  0.00    -0.446 OA
BRANCH   2  24
ATOM      6  O   UNL     1      20.703   4.143  20.381  0.00  0.00    -0.226 OA
ATOM      8  N   UNL     1      21.353   6.271  21.036  0.00  0.00    -0.281 N 
ATOM     24  C   UNL     1      21.545   4.924  20.813  0.00  0.00    +0.401 C 
ATOM     37  H   UNL     1      22.131   6.810  21.403  0.00  0.00    +0.152 HD
BRANCH   8  26
ATOM     26  C   UNL     1      20.106   6.958  20.783  0.00  0.00    +0.104 C 
ATOM     28  C   UNL     1      19.195   6.913  21.992  0.00  0.00    +0.024 C 
ENDBRANCH   8  26
ENDBRANCH   2  24
ENDBRANCH  15   2
BRANCH  11  20
ATOM     20  C   UNL     1      25.443   3.930  22.095  0.00  0.00    +0.166 C 
BRANCH  20   4
ATOM      4  O   UNL     1      25.714   4.703  20.945  0.00  0.00    -0.394 OA
ATOM     35  H   UNL     1      25.193   4.327  20.215  0.00  0.00    +0.209 HD
ENDBRANCH  20   4
ENDBRANCH  11  20
BRANCH  12  22
ATOM     22  C   UNL     1      23.356  -0.145  25.931  0.00  0.00    +0.102 C 
BRANCH  22  23
ATOM      5  O   UNL     1      23.016  -2.430  26.649  0.00  0.00    -0.276 OA
ATOM      7  N   UNL     1      21.380  -1.368  25.384  0.00  0.00    -0.311 N 
ATOM     23  C   UNL     1      22.597  -1.446  26.047  0.00  0.00    +0.214 C 
ATOM     36  H   UNL     1      21.135  -0.519  24.884  0.00  0.00    +0.149 HD
BRANCH   7  25
ATOM     25  C   UNL     1      20.443  -2.466  25.325  0.00  0.00    +0.139 C 
BRANCH  25  27
ATOM      1  F   UNL     1      15.832  -1.142  22.376  0.00  0.00    -0.205 F 
ATOM     27  C   UNL     1      19.213  -2.113  24.538  0.00  0.00    -0.030 A 
ATOM     29  C   UNL     1      18.441  -1.012  24.909  0.00  0.00    +0.008 A 
ATOM     30  C   UNL     1      18.843  -2.886  23.438  0.00  0.00    +0.008 A 
ATOM     31  C   UNL     1      17.298  -0.684  24.179  0.00  0.00    +0.038 A 
ATOM     32  C   UNL     1      17.701  -2.558  22.707  0.00  0.00    +0.038 A 
ATOM     33  C   UNL     1      16.929  -1.458  23.079  0.00  0.00    +0.123 A 
ENDBRANCH  25  27
ENDBRANCH   7  25
ENDBRANCH  22  23
ENDBRANCH  12  22
TORSDOF 10
ENDMDL
MODEL 8
REMARK VINA RESULT:      -6.1      1.763      2.207
REMARK  Name = 44716866
REMARK  13 active torsions:
REMARK  status: ('A' for Active; 'I' for Inactive)
REMARK    1  A    between atoms: O_2  and  C_15
REMARK    2  A    between atoms: O_2  and  C_24
REMARK    3  A    between atoms: O_3  and  C_16
REMARK    4  A    between atoms: O_4  and  C_20
REMARK    5  A    between atoms: N_7  and  C_25
REMARK    6  A    between atoms: N_8  and  C_26
REMARK    7  A    between atoms: C_9  and  C_19
REMARK    8  A    between atoms: C_11  and  C_20
REMARK    9  A    between atoms: C_11  and  C_21
REMARK   10  A    between atoms: C_12  and  C_22
REMARK   11  A    between atoms: C_22  and  C_23
REMARK   12  A    between atoms: C_25  and  C_27
REMARK   13  A    between atoms: C_26  and  C_28
REMARK                            x       y       z     vdW  Elec       q    Type
REMARK                         _______ _______ _______ _____ _____    ______ ____
ROOT
ATOM      9  C   UNL     1      13.369  10.034  20.293  0.00  0.00    -0.023 C 
ATOM     10  C   UNL     1      12.572   9.515  19.035  0.00  0.00    +0.007 C 
ATOM     11  C   UNL     1      13.379   9.396  17.686  0.00  0.00    +0.031 C 
ATOM     12  C   UNL     1      12.298  10.370  21.413  0.00  0.00    +0.032 C 
ATOM     13  C   UNL     1      14.119  11.335  19.898  0.00  0.00    +0.011 C 
ATOM     14  C   UNL     1      11.727   8.271  19.392  0.00  0.00    +0.007 C 
ATOM     15  C   UNL     1      14.149  10.729  17.440  0.00  0.00    +0.186 C 
ATOM     16  C   UNL     1      11.364   9.183  21.747  0.00  0.00    +0.119 C 
ATOM     17  C   UNL     1      14.967  11.197  18.639  0.00  0.00    +0.046 C 
ATOM     18  C   UNL     1      10.721   8.584  20.500  0.00  0.00    +0.032 C 
ATOM     19  C   UNL     1      14.414   9.023  20.827  0.00  0.00    +0.012 C 
ATOM     21  C   UNL     1      12.377   9.214  16.508  0.00  0.00    +0.017 C 
ENDROOT
BRANCH  16   3
ATOM      3  O   UNL     1      12.066   8.170  22.461  0.00  0.00    -0.391 OA
ATOM     34  H   UNL     1      12.647   7.712  21.830  0.00  0.00    +0.210 HD
ENDBRANCH  16   3
BRANCH  15   2
ATOM      2  O   UNL     1      15.046  10.628  16.334  0.00  0.00    -0.446 OA
BRANCH   2  24
ATOM      6  O   UNL     1      14.045  12.427  15.317  0.00  0.00    -0.226 OA
ATOM      8  N   UNL     1      16.107  11.624  14.621  0.00  0.00    -0.281 N 
ATOM     24  C   UNL     1      14.978  11.637  15.413  0.00  0.00    +0.401 C 
ATOM     37  H   UNL     1      16.813  10.918  14.807  0.00  0.00    +0.152 HD
BRANCH   8  26
ATOM     26  C   UNL     1      16.346  12.563  13.548  0.00  0.00    +0.104 C 
ATOM     28  C   UNL     1      15.923  11.994  12.211  0.00  0.00    +0.024 C 
ENDBRANCH   8  26
ENDBRANCH   2  24
ENDBRANCH  15   2
BRANCH  11  20
ATOM     20  C   UNL     1      14.325   8.180  17.623  0.00  0.00    +0.166 C 
BRANCH  20   4
ATOM      4  O   UNL     1      13.753   7.231  16.748  0.00  0.00    -0.394 OA
ATOM     35  H   UNL     1      14.073   7.434  15.853  0.00  0.00    +0.209 HD
ENDBRANCH  20   4
ENDBRANCH  11  20
BRANCH  12  22
ATOM     22  C   UNL     1      12.880  10.956  22.709  0.00  0.00    +0.102 C 
BRANCH  22  23
ATOM      5  O   UNL     1      10.981  11.489  24.110  0.00  0.00    -0.276 OA
ATOM      7  N   UNL     1      12.193  13.206  23.119  0.00  0.00    -0.311 N 
ATOM     23  C   UNL     1      11.903  11.879  23.400  0.00  0.00    +0.214 C 
ATOM     36  H   UNL     1      12.960  13.429  22.490  0.00  0.00    +0.149 HD
BRANCH   7  25
ATOM     25  C   UNL     1      11.423  14.310  23.642  0.00  0.00    +0.139 C 
BRANCH  25  27
ATOM      1  F   UNL     1       6.935  15.455  20.439  0.00  0.00    -0.205 F 
ATOM     27  C   UNL     1      10.226  14.615  22.788  0.00  0.00    -0.030 A 
ATOM     29  C   UNL     1      10.359  14.690  21.401  0.00  0.00    +0.008 A 
ATOM     30  C   UNL     1       8.981  14.826  23.381  0.00  0.00    +0.008 A 
ATOM     31  C   UNL     1       9.248  14.974  20.608  0.00  0.00    +0.038 A 
ATOM     32  C   UNL     1       7.869  15.109  22.587  0.00  0.00    +0.038 A 
ATOM     33  C   UNL     1       8.003  15.183  21.201  0.00  0.00    +0.123 A 
ENDBRANCH  25  27
ENDBRANCH   7  25
ENDBRANCH  22  23
ENDBRANCH  12  22
TORSDOF 10
ENDMDL
MODEL 9
REMARK VINA RESULT:      -6.0     27.279     30.471
REMARK  Name = 44716866
REMARK  13 active torsions:
REMARK  status: ('A' for Active; 'I' for Inactive)
REMARK    1  A    between atoms: O_2  and  C_15
REMARK    2  A    between atoms: O_2  and  C_24
REMARK    3  A    between atoms: O_3  and  C_16
REMARK    4  A    between atoms: O_4  and  C_20
REMARK    5  A    between atoms: N_7  and  C_25
REMARK    6  A    between atoms: N_8  and  C_26
REMARK    7  A    between atoms: C_9  and  C_19
REMARK    8  A    between atoms: C_11  and  C_20
REMARK    9  A    between atoms: C_11  and  C_21
REMARK   10  A    between atoms: C_12  and  C_22
REMARK   11  A    between atoms: C_22  and  C_23
REMARK   12  A    between atoms: C_25  and  C_27
REMARK   13  A    between atoms: C_26  and  C_28
REMARK                            x       y       z     vdW  Elec       q    Type
REMARK                         _______ _______ _______ _____ _____    ______ ____
ROOT
ATOM      9  C   UNL     1     -15.204   8.088  31.879  0.00  0.00    -0.023 C 
ATOM     10  C   UNL     1     -13.642   7.997  32.081  0.00  0.00    +0.007 C 
ATOM     11  C   UNL     1     -12.841   9.353  32.021  0.00  0.00    +0.031 C 
ATOM     12  C   UNL     1     -15.729   6.608  31.660  0.00  0.00    +0.032 C 
ATOM     13  C   UNL     1     -15.487   8.923  30.602  0.00  0.00    +0.011 C 
ATOM     14  C   UNL     1     -13.294   7.096  33.286  0.00  0.00    +0.007 C 
ATOM     15  C   UNL     1     -13.268  10.135  30.741  0.00  0.00    +0.186 C 
ATOM     16  C   UNL     1     -15.331   5.639  32.798  0.00  0.00    +0.119 C 
ATOM     17  C   UNL     1     -14.778  10.273  30.581  0.00  0.00    +0.046 C 
ATOM     18  C   UNL     1     -13.834   5.678  33.094  0.00  0.00    +0.032 C 
ATOM     19  C   UNL     1     -15.945   8.757  33.063  0.00  0.00    +0.012 C 
ATOM     21  C   UNL     1     -11.321   9.041  31.889  0.00  0.00    +0.017 C 
ENDROOT
BRANCH  16   3
ATOM      3  O   UNL     1     -16.064   5.921  33.986  0.00  0.00    -0.391 OA
ATOM     34  H   UNL     1     -16.848   6.438  33.733  0.00  0.00    +0.210 HD
ENDBRANCH  16   3
BRANCH  15   2
ATOM      2  O   UNL     1     -12.721  11.453  30.718  0.00  0.00    -0.446 OA
BRANCH   2  24
ATOM      6  O   UNL     1     -12.294  13.090  29.165  0.00  0.00    -0.226 OA
ATOM      8  N   UNL     1     -11.910  10.847  28.711  0.00  0.00    -0.281 N 
ATOM     24  C   UNL     1     -12.306  11.909  29.497  0.00  0.00    +0.401 C 
ATOM     37  H   UNL     1     -11.963   9.914  29.107  0.00  0.00    +0.152 HD
BRANCH   8  26
ATOM     26  C   UNL     1     -11.417  10.989  27.360  0.00  0.00    +0.104 C 
ATOM     28  C   UNL     1     -10.352   9.958  27.048  0.00  0.00    +0.024 C 
ENDBRANCH   8  26
ENDBRANCH   2  24
ENDBRANCH  15   2
BRANCH  11  20
ATOM     20  C   UNL     1     -12.981  10.224  33.286  0.00  0.00    +0.166 C 
BRANCH  20   4
ATOM      4  O   UNL     1     -11.785  10.957  33.443  0.00  0.00    -0.394 OA
ATOM     35  H   UNL     1     -11.125  10.354  33.825  0.00  0.00    +0.209 HD
ENDBRANCH  20   4
ENDBRANCH  11  20
BRANCH  12  22
ATOM     22  C   UNL     1     -17.236   6.492  31.380  0.00  0.00    +0.102 C 
BRANCH  22  23
ATOM      5  O   UNL     1     -18.445   4.396  31.326  0.00  0.00    -0.276 OA
ATOM      7  N   UNL     1     -16.864   4.851  29.685  0.00  0.00    -0.311 N 
ATOM     23  C   UNL     1     -17.604   5.135  30.824  0.00  0.00    +0.214 C 
ATOM     36  H   UNL     1     -16.164   5.514  29.364  0.00  0.00    +0.149 HD
BRANCH   7  25
ATOM     25  C   UNL     1     -17.002   3.621  28.941  0.00  0.00    +0.139 C 
BRANCH  25  27
ATOM      1  F   UNL     1     -13.051  -0.141  30.334  0.00  0.00    -0.205 F 
ATOM     27  C   UNL     1     -15.948   2.618  29.312  0.00  0.00    -0.030 A 
ATOM     29  C   UNL     1     -16.181   1.256  29.113  0.00  0.00    +0.008 A 
ATOM     30  C   UNL     1     -14.738   3.046  29.857  0.00  0.00    +0.008 A 
ATOM     31  C   UNL     1     -15.202   0.324  29.459  0.00  0.00    +0.038 A 
ATOM     32  C   UNL     1     -13.759   2.114  30.202  0.00  0.00    +0.038 A 
ATOM     33  C   UNL     1     -13.992   0.754  30.003  0.00  0.00    +0.123 A 
ENDBRANCH  25  27
ENDBRANCH   7  25
ENDBRANCH  22  23
ENDBRANCH  12  22
TORSDOF 10
ENDMDL
MODEL 10
REMARK VINA RESULT:      -6.0      3.796      8.412
REMARK  Name = 44716866
REMARK  13 active torsions:
REMARK  status: ('A' for Active; 'I' for Inactive)
REMARK    1  A    between atoms: O_2  and  C_15
REMARK    2  A    between atoms: O_2  and  C_24
REMARK    3  A    between atoms: O_3  and  C_16
REMARK    4  A    between atoms: O_4  and  C_20
REMARK    5  A    between atoms: N_7  and  C_25
REMARK    6  A    between atoms: N_8  and  C_26
REMARK    7  A    between atoms: C_9  and  C_19
REMARK    8  A    between atoms: C_11  and  C_20
REMARK    9  A    between atoms: C_11  and  C_21
REMARK   10  A    between atoms: C_12  and  C_22
REMARK   11  A    between atoms: C_22  and  C_23
REMARK   12  A    between atoms: C_25  and  C_27
REMARK   13  A    between atoms: C_26  and  C_28
REMARK                            x       y       z     vdW  Elec       q    Type
REMARK                         _______ _______ _______ _____ _____    ______ ____
ROOT
ATOM      9  C   UNL     1      14.532   9.778  18.611  0.00  0.00    -0.023 C 
ATOM     10  C   UNL     1      14.902   8.282  18.951  0.00  0.00    +0.007 C 
ATOM     11  C   UNL     1      15.561   8.019  20.359  0.00  0.00    +0.031 C 
ATOM     12  C   UNL     1      14.198   9.831  17.062  0.00  0.00    +0.032 C 
ATOM     13  C   UNL     1      15.772  10.668  18.896  0.00  0.00    +0.011 C 
ATOM     14  C   UNL     1      13.737   7.332  18.598  0.00  0.00    +0.007 C 
ATOM     15  C   UNL     1      16.737   9.022  20.561  0.00  0.00    +0.186 C 
ATOM     16  C   UNL     1      13.096   8.832  16.636  0.00  0.00    +0.119 C 
ATOM     17  C   UNL     1      16.359  10.475  20.289  0.00  0.00    +0.046 C 
ATOM     18  C   UNL     1      13.387   7.412  17.111  0.00  0.00    +0.032 C 
ATOM     19  C   UNL     1      13.346  10.327  19.442  0.00  0.00    +0.012 C 
ATOM     21  C   UNL     1      16.166   6.584  20.378  0.00  0.00    +0.017 C 
ENDROOT
BRANCH  16   3
ATOM      3  O   UNL     1      11.821   9.248  17.114  0.00  0.00    -0.391 OA
ATOM     34  H   UNL     1      11.798   9.087  18.073  0.00  0.00    +0.210 HD
ENDBRANCH  16   3
BRANCH  15   2
ATOM      2  O   UNL     1      17.261   8.966  21.887  0.00  0.00    -0.446 OA
BRANCH   2  24
ATOM      6  O   UNL     1      19.470   9.581  21.768  0.00  0.00    -0.226 OA
ATOM      8  N   UNL     1      18.833   7.437  22.381  0.00  0.00    -0.281 N 
ATOM     24  C   UNL     1      18.606   8.739  21.992  0.00  0.00    +0.401 C 
ATOM     37  H   UNL     1      18.028   6.839  22.541  0.00  0.00    +0.152 HD
BRANCH   8  26
ATOM     26  C   UNL     1      20.150   6.876  22.583  0.00  0.00    +0.104 C 
ATOM     28  C   UNL     1      20.616   7.057  24.012  0.00  0.00    +0.024 C 
ENDBRANCH   8  26
ENDBRANCH   2  24
ENDBRANCH  15   2
BRANCH  11  20
ATOM     20  C   UNL     1      14.569   8.070  21.538  0.00  0.00    +0.166 C 
BRANCH  20   4
ATOM      4  O   UNL     1      14.961   7.093  22.478  0.00  0.00    -0.394 OA
ATOM     35  H   UNL     1      14.201   6.931  23.061  0.00  0.00    +0.209 HD
ENDBRANCH  20   4
ENDBRANCH  11  20
BRANCH  12  22
ATOM     22  C   UNL     1      13.871  11.231  16.519  0.00  0.00    +0.102 C 
BRANCH  22  23
ATOM      5  O   UNL     1      15.027  10.691  14.463  0.00  0.00    -0.276 OA
ATOM      7  N   UNL     1      13.335  12.285  14.444  0.00  0.00    -0.311 N 
ATOM     23  C   UNL     1      14.165  11.346  15.041  0.00  0.00    +0.214 C 
ATOM     36  H   UNL     1      12.673  12.802  15.014  0.00  0.00    +0.149 HD
BRANCH   7  25
ATOM     25  C   UNL     1      13.393  12.607  13.037  0.00  0.00    +0.139 C 
BRANCH  25  27
ATOM      1  F   UNL     1       8.543  11.465  10.413  0.00  0.00    -0.205 F 
ATOM     27  C   UNL     1      12.099  12.302  12.338  0.00  0.00    -0.030 A 
ATOM     29  C   UNL     1      12.079  12.131  10.953  0.00  0.00    +0.008 A 
ATOM     30  C   UNL     1      10.918  12.191  13.071  0.00  0.00    +0.008 A 
ATOM     31  C   UNL     1      10.878  11.848  10.303  0.00  0.00    +0.038 A 
ATOM     32  C   UNL     1       9.717  11.907  12.421  0.00  0.00    +0.038 A 
ATOM     33  C   UNL     1       9.697  11.737  11.037  0.00  0.00    +0.123 A 
ENDBRANCH  25  27
ENDBRANCH   7  25
ENDBRANCH  22  23
ENDBRANCH  12  22
TORSDOF 10
ENDMDL
