MODEL 1
REMARK VINA RESULT:      -6.9      0.000      0.000
REMARK  Name = 7134313
REMARK  13 active torsions:
REMARK  status: ('A' for Active; 'I' for Inactive)
REMARK    1  A    between atoms: S_1  and  N_12
REMARK    2  A    between atoms: S_1  and  C_26
REMARK    3  A    between atoms: O_7  and  C_24
REMARK    4  A    between atoms: O_7  and  C_35
REMARK    5  A    between atoms: O_9  and  C_40
REMARK    6  A    between atoms: N_12  and  C_16
REMARK    7  A    between atoms: N_13  and  C_23
REMARK    8  A    between atoms: C_17  and  C_21
REMARK    9  A    between atoms: C_22  and  C_24
REMARK   10  A    between atoms: C_23  and  C_25
REMARK   11  A    between atoms: C_23  and  C_28
REMARK   12  A    between atoms: C_25  and  C_27
REMARK   13  A    between atoms: C_35  and  C_40
REMARK                            x       y       z     vdW  Elec       q    Type
REMARK                         _______ _______ _______ _____ _____    ______ ____
ROOT
ATOM      4  O   UNL     1      -3.090 -12.981  11.105  0.00  0.00    -0.273 OA
ATOM     11  N   UNL     1      -4.191 -11.014  10.521  0.00  0.00    -0.288 N 
ATOM     16  C   UNL     1      -5.861  -9.579   8.613  0.00  0.00    +0.080 C 
ATOM     17  C   UNL     1      -4.420  -9.572  10.720  0.00  0.00    +0.163 C 
ATOM     18  C   UNL     1      -4.802  -8.841   9.432  0.00  0.00    +0.052 C 
ATOM     19  C   UNL     1      -5.443 -11.028   8.379  0.00  0.00    +0.039 C 
ATOM     20  C   UNL     1      -5.179 -11.730   9.706  0.00  0.00    +0.110 C 
ATOM     22  C   UNL     1      -3.195 -11.752  11.172  0.00  0.00    +0.242 C 
ENDROOT
BRANCH  17  21
ATOM      3  O   UNL     1      -6.407  -8.647  11.673  0.00  0.00    -0.274 OA
ATOM     13  N   UNL     1      -5.252 -10.290  12.851  0.00  0.00    -0.302 N 
ATOM     21  C   UNL     1      -5.477  -9.443  11.778  0.00  0.00    +0.234 C 
ATOM     42  H   UNL     1      -4.466 -10.932  12.828  0.00  0.00    +0.150 HD
BRANCH  13  23
ATOM     23  C   UNL     1      -6.112 -10.341  14.011  0.00  0.00    +0.163 C 
BRANCH  23  28
ATOM      8  O   UNL     1      -7.467 -12.295  14.514  0.00  0.00    -0.274 OA
ATOM     15  N   UNL     1      -5.193 -12.556  14.316  0.00  0.00    -0.328 N 
ATOM     28  C   UNL     1      -6.354 -11.811  14.322  0.00  0.00    +0.231 C 
ATOM     44  H   UNL     1      -4.283 -12.147  14.134  0.00  0.00    +0.145 HD
ATOM     45  H   UNL     1      -5.216 -13.554  14.495  0.00  0.00    +0.145 HD
ENDBRANCH  23  28
BRANCH  23  25
ATOM     25  C   UNL     1      -5.495  -9.631  15.222  0.00  0.00    +0.069 C 
BRANCH  25  27
ATOM     14  N   UNL     1      -7.971  -9.630  17.939  0.00  0.00    -0.360 N 
ATOM     27  C   UNL     1      -6.310  -9.784  16.474  0.00  0.00    -0.020 A 
ATOM     29  C   UNL     1      -5.923 -10.471  17.658  0.00  0.00    +0.003 A 
ATOM     31  C   UNL     1      -7.573  -9.278  16.677  0.00  0.00    +0.087 A 
ATOM     32  C   UNL     1      -6.983 -10.360  18.562  0.00  0.00    +0.047 A 
ATOM     34  C   UNL     1      -4.770 -11.179  18.051  0.00  0.00    +0.010 A 
ATOM     37  C   UNL     1      -6.946 -10.923  19.842  0.00  0.00    +0.026 A 
ATOM     38  C   UNL     1      -4.718 -11.749  19.328  0.00  0.00    +0.001 A 
ATOM     39  C   UNL     1      -5.792 -11.622  20.208  0.00  0.00    +0.002 A 
ATOM     43  H   UNL     1      -8.861  -9.393  18.353  0.00  0.00    +0.165 HD
ENDBRANCH  25  27
ENDBRANCH  23  25
ENDBRANCH  13  23
ENDBRANCH  17  21
BRANCH  16  12
ATOM     12  N   UNL     1      -6.030  -8.898   7.305  0.00  0.00    -0.186 NA
ATOM     41  H   UNL     1      -5.233  -8.998   6.663  0.00  0.00    +0.148 HD
BRANCH  12   1
ATOM      1  S   UNL     1      -7.595  -8.877   6.616  0.00  0.00    +0.065 S 
ATOM      5  O   UNL     1      -8.339 -10.035   7.070  0.00  0.00    -0.153 OA
ATOM      6  O   UNL     1      -7.479  -8.562   5.205  0.00  0.00    -0.153 OA
BRANCH   1  26
ATOM      2  S   UNL     1     -10.086  -7.301   6.800  0.00  0.00    -0.077 S 
ATOM     26  C   UNL     1      -8.454  -7.458   7.296  0.00  0.00    +0.142 A 
ATOM     30  C   UNL     1      -8.075  -6.447   8.150  0.00  0.00    +0.036 A 
ATOM     33  C   UNL     1      -9.137  -5.530   8.400  0.00  0.00    +0.010 A 
ATOM     36  C   UNL     1     -10.288  -5.877   7.728  0.00  0.00    +0.047 A 
ENDBRANCH   1  26
ENDBRANCH  12   1
ENDBRANCH  16  12
BRANCH  22  24
ATOM     24  C   UNL     1      -2.195 -10.974  11.990  0.00  0.00    +0.256 C 
BRANCH  24   7
ATOM      7  O   UNL     1      -2.621 -11.055  13.328  0.00  0.00    -0.359 OA
BRANCH   7  35
ATOM     35  C   UNL     1      -1.762 -10.332  14.209  0.00  0.00    +0.280 C 
BRANCH  35  40
ATOM     10  O   UNL     1      -1.222 -10.539  16.569  0.00  0.00    -0.248 OA
ATOM     40  C   UNL     1      -1.763 -10.980  15.566  0.00  0.00    +0.331 C 
BRANCH  40   9
ATOM      9  O   UNL     1      -2.460 -12.143  15.529  0.00  0.00    -0.479 OA
ATOM     46  H   UNL     1      -1.979 -12.843  15.037  0.00  0.00    +0.295 HD
ENDBRANCH  40   9
ENDBRANCH  35  40
ENDBRANCH   7  35
ENDBRANCH  24   7
ENDBRANCH  22  24
TORSDOF 13
ENDMDL
MODEL 2
REMARK VINA RESULT:      -6.5      1.492      2.412
REMARK  Name = 7134313
REMARK  13 active torsions:
REMARK  status: ('A' for Active; 'I' for Inactive)
REMARK    1  A    between atoms: S_1  and  N_12
REMARK    2  A    between atoms: S_1  and  C_26
REMARK    3  A    between atoms: O_7  and  C_24
REMARK    4  A    between atoms: O_7  and  C_35
REMARK    5  A    between atoms: O_9  and  C_40
REMARK    6  A    between atoms: N_12  and  C_16
REMARK    7  A    between atoms: N_13  and  C_23
REMARK    8  A    between atoms: C_17  and  C_21
REMARK    9  A    between atoms: C_22  and  C_24
REMARK   10  A    between atoms: C_23  and  C_25
REMARK   11  A    between atoms: C_23  and  C_28
REMARK   12  A    between atoms: C_25  and  C_27
REMARK   13  A    between atoms: C_35  and  C_40
REMARK                            x       y       z     vdW  Elec       q    Type
REMARK                         _______ _______ _______ _____ _____    ______ ____
ROOT
ATOM      4  O   UNL     1      -3.021 -12.623  11.384  0.00  0.00    -0.273 OA
ATOM     11  N   UNL     1      -4.399 -10.762  11.140  0.00  0.00    -0.288 N 
ATOM     16  C   UNL     1      -6.180  -9.199   9.443  0.00  0.00    +0.080 C 
ATOM     17  C   UNL     1      -4.874  -9.453  11.622  0.00  0.00    +0.163 C 
ATOM     18  C   UNL     1      -5.303  -8.515  10.492  0.00  0.00    +0.052 C 
ATOM     19  C   UNL     1      -5.516 -10.479   8.943  0.00  0.00    +0.039 C 
ATOM     20  C   UNL     1      -5.211 -11.415  10.105  0.00  0.00    +0.110 C 
ATOM     22  C   UNL     1      -3.331 -11.471  11.703  0.00  0.00    +0.242 C 
ENDROOT
BRANCH  17  21
ATOM      3  O   UNL     1      -7.162  -9.467  12.312  0.00  0.00    -0.274 OA
ATOM     13  N   UNL     1      -5.538 -10.260  13.780  0.00  0.00    -0.302 N 
ATOM     21  C   UNL     1      -5.993  -9.725  12.586  0.00  0.00    +0.234 C 
ATOM     42  H   UNL     1      -4.550 -10.463  13.896  0.00  0.00    +0.150 HD
BRANCH  13  23
ATOM     23  C   UNL     1      -6.412 -10.590  14.882  0.00  0.00    +0.163 C 
BRANCH  23  28
ATOM      8  O   UNL     1      -6.738 -12.984  15.144  0.00  0.00    -0.274 OA
ATOM     15  N   UNL     1      -4.810 -12.041  15.963  0.00  0.00    -0.328 N 
ATOM     28  C   UNL     1      -6.041 -11.992  15.342  0.00  0.00    +0.231 C 
ATOM     44  H   UNL     1      -4.234 -11.217  16.100  0.00  0.00    +0.145 HD
ATOM     45  H   UNL     1      -4.435 -12.919  16.306  0.00  0.00    +0.145 HD
ENDBRANCH  23  28
BRANCH  23  25
ATOM     25  C   UNL     1      -6.286  -9.593  16.041  0.00  0.00    +0.069 C 
BRANCH  25  27
ATOM     14  N   UNL     1      -8.618 -10.074  18.841  0.00  0.00    -0.360 N 
ATOM     27  C   UNL     1      -7.431  -9.667  17.010  0.00  0.00    -0.020 A 
ATOM     29  C   UNL     1      -8.762  -9.218  16.785  0.00  0.00    +0.003 A 
ATOM     31  C   UNL     1      -7.373 -10.189  18.282  0.00  0.00    +0.087 A 
ATOM     32  C   UNL     1      -9.486  -9.484  17.950  0.00  0.00    +0.047 A 
ATOM     34  C   UNL     1      -9.423  -8.608  15.701  0.00  0.00    +0.010 A 
ATOM     37  C   UNL     1     -10.843  -9.170  18.083  0.00  0.00    +0.026 A 
ATOM     38  C   UNL     1     -10.780  -8.288  15.819  0.00  0.00    +0.001 A 
ATOM     39  C   UNL     1     -11.477  -8.565  16.994  0.00  0.00    +0.002 A 
ATOM     43  H   UNL     1      -8.863 -10.374  19.774  0.00  0.00    +0.165 HD
ENDBRANCH  25  27
ENDBRANCH  23  25
ENDBRANCH  13  23
ENDBRANCH  17  21
BRANCH  16  12
ATOM     12  N   UNL     1      -6.389  -8.274   8.303  0.00  0.00    -0.186 NA
ATOM     41  H   UNL     1      -5.551  -8.095   7.735  0.00  0.00    +0.148 HD
BRANCH  12   1
ATOM      1  S   UNL     1      -7.889  -8.346   7.485  0.00  0.00    +0.065 S 
ATOM      5  O   UNL     1      -8.567  -9.582   7.826  0.00  0.00    -0.153 OA
ATOM      6  O   UNL     1      -7.687  -7.955   6.103  0.00  0.00    -0.153 OA
BRANCH   1  26
ATOM      2  S   UNL     1     -10.390  -7.565   8.848  0.00  0.00    -0.077 S 
ATOM     26  C   UNL     1      -8.919  -7.037   8.147  0.00  0.00    +0.142 A 
ATOM     30  C   UNL     1      -8.776  -5.669   8.215  0.00  0.00    +0.036 A 
ATOM     33  C   UNL     1      -9.889  -5.045   8.850  0.00  0.00    +0.010 A 
ATOM     36  C   UNL     1     -10.840  -5.960   9.243  0.00  0.00    +0.047 A 
ENDBRANCH   1  26
ENDBRANCH  12   1
ENDBRANCH  16  12
BRANCH  22  24
ATOM     24  C   UNL     1      -2.519 -10.757  12.754  0.00  0.00    +0.256 C 
BRANCH  24   7
ATOM      7  O   UNL     1      -2.803 -11.387  13.978  0.00  0.00    -0.359 OA
BRANCH   7  35
ATOM     35  C   UNL     1      -1.618 -11.802  14.656  0.00  0.00    +0.280 C 
BRANCH  35  40
ATOM     10  O   UNL     1      -0.609  -9.849  15.691  0.00  0.00    -0.248 OA
ATOM     40  C   UNL     1      -1.310 -10.846  15.775  0.00  0.00    +0.331 C 
BRANCH  40   9
ATOM      9  O   UNL     1      -1.928 -11.245  16.915  0.00  0.00    -0.479 OA
ATOM     46  H   UNL     1      -2.852 -11.534  16.749  0.00  0.00    +0.295 HD
ENDBRANCH  40   9
ENDBRANCH  35  40
ENDBRANCH   7  35
ENDBRANCH  24   7
ENDBRANCH  22  24
TORSDOF 13
ENDMDL
MODEL 3
REMARK VINA RESULT:      -6.5     23.088     25.668
REMARK  Name = 7134313
REMARK  13 active torsions:
REMARK  status: ('A' for Active; 'I' for Inactive)
REMARK    1  A    between atoms: S_1  and  N_12
REMARK    2  A    between atoms: S_1  and  C_26
REMARK    3  A    between atoms: O_7  and  C_24
REMARK    4  A    between atoms: O_7  and  C_35
REMARK    5  A    between atoms: O_9  and  C_40
REMARK    6  A    between atoms: N_12  and  C_16
REMARK    7  A    between atoms: N_13  and  C_23
REMARK    8  A    between atoms: C_17  and  C_21
REMARK    9  A    between atoms: C_22  and  C_24
REMARK   10  A    between atoms: C_23  and  C_25
REMARK   11  A    between atoms: C_23  and  C_28
REMARK   12  A    between atoms: C_25  and  C_27
REMARK   13  A    between atoms: C_35  and  C_40
REMARK                            x       y       z     vdW  Elec       q    Type
REMARK                         _______ _______ _______ _____ _____    ______ ____
ROOT
ATOM      4  O   UNL     1      10.237   9.139   7.898  0.00  0.00    -0.273 OA
ATOM     11  N   UNL     1       8.988   9.191   5.934  0.00  0.00    -0.288 N 
ATOM     16  C   UNL     1       7.725  10.773   3.838  0.00  0.00    +0.080 C 
ATOM     17  C   UNL     1       8.126   8.510   4.951  0.00  0.00    +0.163 C 
ATOM     18  C   UNL     1       7.112   9.447   4.290  0.00  0.00    +0.052 C 
ATOM     19  C   UNL     1       8.490  11.427   4.984  0.00  0.00    +0.039 C 
ATOM     20  C   UNL     1       9.554  10.482   5.528  0.00  0.00    +0.110 C 
ATOM     22  C   UNL     1       9.410   8.621   7.142  0.00  0.00    +0.242 C 
ENDROOT
BRANCH  17  21
ATOM      3  O   UNL     1       8.744   7.795   2.757  0.00  0.00    -0.274 OA
ATOM     13  N   UNL     1      10.186   7.359   4.532  0.00  0.00    -0.302 N 
ATOM     21  C   UNL     1       9.036   7.864   3.948  0.00  0.00    +0.234 C 
ATOM     42  H   UNL     1      10.346   7.493   5.526  0.00  0.00    +0.150 HD
BRANCH  13  23
ATOM     23  C   UNL     1      11.213   6.669   3.787  0.00  0.00    +0.163 C 
BRANCH  23  28
ATOM      8  O   UNL     1      13.539   7.313   4.073  0.00  0.00    -0.274 OA
ATOM     15  N   UNL     1      12.407   6.450   5.877  0.00  0.00    -0.328 N 
ATOM     28  C   UNL     1      12.514   6.838   4.557  0.00  0.00    +0.231 C 
ATOM     44  H   UNL     1      11.548   6.081   6.269  0.00  0.00    +0.145 HD
ATOM     45  H   UNL     1      13.199   6.524   6.506  0.00  0.00    +0.145 HD
ENDBRANCH  23  28
BRANCH  23  25
ATOM     25  C   UNL     1      10.892   5.181   3.596  0.00  0.00    +0.069 C 
BRANCH  25  27
ATOM     14  N   UNL     1      10.368   4.180   0.099  0.00  0.00    -0.360 N 
ATOM     27  C   UNL     1      10.963   4.741   2.163  0.00  0.00    -0.020 A 
ATOM     29  C   UNL     1      12.139   4.399   1.439  0.00  0.00    +0.003 A 
ATOM     31  C   UNL     1       9.891   4.596   1.313  0.00  0.00    +0.087 A 
ATOM     32  C   UNL     1      11.738   4.051   0.146  0.00  0.00    +0.047 A 
ATOM     34  C   UNL     1      13.511   4.352   1.758  0.00  0.00    +0.010 A 
ATOM     37  C   UNL     1      12.644   3.656  -0.844  0.00  0.00    +0.026 A 
ATOM     38  C   UNL     1      14.429   3.960   0.778  0.00  0.00    +0.001 A 
ATOM     39  C   UNL     1      13.999   3.618  -0.504  0.00  0.00    +0.002 A 
ATOM     43  H   UNL     1       9.799   3.997  -0.716  0.00  0.00    +0.165 HD
ENDBRANCH  25  27
ENDBRANCH  23  25
ENDBRANCH  13  23
ENDBRANCH  17  21
BRANCH  16  12
ATOM     12  N   UNL     1       6.644  11.681   3.384  0.00  0.00    -0.186 NA
ATOM     41  H   UNL     1       6.414  12.438   4.041  0.00  0.00    +0.148 HD
BRANCH  12   1
ATOM      1  S   UNL     1       6.555  12.039   1.714  0.00  0.00    +0.065 S 
ATOM      5  O   UNL     1       7.838  11.777   1.094  0.00  0.00    -0.153 OA
ATOM      6  O   UNL     1       5.884  13.314   1.545  0.00  0.00    -0.153 OA
BRANCH   1  26
ATOM      2  S   UNL     1       3.830  11.457   0.735  0.00  0.00    -0.077 S 
ATOM     26  C   UNL     1       5.418  10.864   0.980  0.00  0.00    +0.142 A 
ATOM     30  C   UNL     1       5.553   9.559   0.561  0.00  0.00    +0.036 A 
ATOM     33  C   UNL     1       4.336   9.037   0.033  0.00  0.00    +0.010 A 
ATOM     36  C   UNL     1       3.318   9.964   0.068  0.00  0.00    +0.047 A 
ENDBRANCH   1  26
ENDBRANCH  12   1
ENDBRANCH  16  12
BRANCH  22  24
ATOM     24  C   UNL     1       8.793   7.299   7.523  0.00  0.00    +0.256 C 
BRANCH  24   7
ATOM      7  O   UNL     1       9.802   6.329   7.381  0.00  0.00    -0.359 OA
BRANCH   7  35
ATOM     35  C   UNL     1      10.292   5.876   8.642  0.00  0.00    +0.280 C 
BRANCH  35  40
ATOM     10  O   UNL     1       8.874   4.316   9.851  0.00  0.00    -0.248 OA
ATOM     40  C   UNL     1       9.692   4.537   8.970  0.00  0.00    +0.331 C 
BRANCH  40   9
ATOM      9  O   UNL     1      10.189   3.586   8.141  0.00  0.00    -0.479 OA
ATOM     46  H   UNL     1       9.475   3.087   7.687  0.00  0.00    +0.295 HD
ENDBRANCH  40   9
ENDBRANCH  35  40
ENDBRANCH   7  35
ENDBRANCH  24   7
ENDBRANCH  22  24
TORSDOF 13
ENDMDL
MODEL 4
REMARK VINA RESULT:      -6.5     25.423     27.822
REMARK  Name = 7134313
REMARK  13 active torsions:
REMARK  status: ('A' for Active; 'I' for Inactive)
REMARK    1  A    between atoms: S_1  and  N_12
REMARK    2  A    between atoms: S_1  and  C_26
REMARK    3  A    between atoms: O_7  and  C_24
REMARK    4  A    between atoms: O_7  and  C_35
REMARK    5  A    between atoms: O_9  and  C_40
REMARK    6  A    between atoms: N_12  and  C_16
REMARK    7  A    between atoms: N_13  and  C_23
REMARK    8  A    between atoms: C_17  and  C_21
REMARK    9  A    between atoms: C_22  and  C_24
REMARK   10  A    between atoms: C_23  and  C_25
REMARK   11  A    between atoms: C_23  and  C_28
REMARK   12  A    between atoms: C_25  and  C_27
REMARK   13  A    between atoms: C_35  and  C_40
REMARK                            x       y       z     vdW  Elec       q    Type
REMARK                         _______ _______ _______ _____ _____    ______ ____
ROOT
ATOM      4  O   UNL     1       8.906   9.267   5.794  0.00  0.00    -0.273 OA
ATOM     11  N   UNL     1      10.345   7.863   4.620  0.00  0.00    -0.288 N 
ATOM     16  C   UNL     1      10.839   6.235   2.254  0.00  0.00    +0.080 C 
ATOM     17  C   UNL     1      11.552   7.019   4.577  0.00  0.00    +0.163 C 
ATOM     18  C   UNL     1      11.427   5.840   3.609  0.00  0.00    +0.052 C 
ATOM     19  C   UNL     1       9.532   7.000   2.440  0.00  0.00    +0.039 C 
ATOM     20  C   UNL     1       9.746   8.220   3.328  0.00  0.00    +0.110 C 
ATOM     22  C   UNL     1       9.836   8.455   5.782  0.00  0.00    +0.242 C 
ENDROOT
BRANCH  17  21
ATOM      3  O   UNL     1      13.045   8.107   3.062  0.00  0.00    -0.274 OA
ATOM     13  N   UNL     1      13.301   8.465   5.348  0.00  0.00    -0.302 N 
ATOM     21  C   UNL     1      12.700   7.920   4.226  0.00  0.00    +0.234 C 
ATOM     42  H   UNL     1      12.920   8.268   6.269  0.00  0.00    +0.150 HD
BRANCH  13  23
ATOM     23  C   UNL     1      14.443   9.347   5.283  0.00  0.00    +0.163 C 
BRANCH  23  28
ATOM      8  O   UNL     1      13.536  11.601   5.230  0.00  0.00    -0.274 OA
ATOM     15  N   UNL     1      14.172  10.719   7.254  0.00  0.00    -0.328 N 
ATOM     28  C   UNL     1      14.015  10.678   5.884  0.00  0.00    +0.231 C 
ATOM     44  H   UNL     1      14.548   9.940   7.784  0.00  0.00    +0.145 HD
ATOM     45  H   UNL     1      13.911  11.545   7.782  0.00  0.00    +0.145 HD
ENDBRANCH  23  28
BRANCH  23  25
ATOM     25  C   UNL     1      15.656   8.784   6.035  0.00  0.00    +0.069 C 
BRANCH  25  27
ATOM     14  N   UNL     1      17.934   7.790   3.327  0.00  0.00    -0.360 N 
ATOM     27  C   UNL     1      16.792   8.410   5.127  0.00  0.00    -0.020 A 
ATOM     29  C   UNL     1      18.170   8.353   5.473  0.00  0.00    +0.003 A 
ATOM     31  C   UNL     1      16.678   8.059   3.801  0.00  0.00    +0.087 A 
ATOM     32  C   UNL     1      18.866   7.962   4.326  0.00  0.00    +0.047 A 
ATOM     34  C   UNL     1      18.897   8.596   6.656  0.00  0.00    +0.010 A 
ATOM     37  C   UNL     1      20.255   7.802   4.303  0.00  0.00    +0.026 A 
ATOM     38  C   UNL     1      20.288   8.441   6.648  0.00  0.00    +0.001 A 
ATOM     39  C   UNL     1      20.954   8.050   5.488  0.00  0.00    +0.002 A 
ATOM     43  H   UNL     1      18.148   7.511   2.380  0.00  0.00    +0.165 HD
ENDBRANCH  25  27
ENDBRANCH  23  25
ENDBRANCH  13  23
ENDBRANCH  17  21
BRANCH  16  12
ATOM     12  N   UNL     1      10.584   5.010   1.457  0.00  0.00    -0.186 NA
ATOM     41  H   UNL     1       9.607   4.689   1.463  0.00  0.00    +0.148 HD
BRANCH  12   1
ATOM      1  S   UNL     1      11.467   4.807   0.007  0.00  0.00    +0.065 S 
ATOM      5  O   UNL     1      11.603   6.087  -0.660  0.00  0.00    -0.153 OA
ATOM      6  O   UNL     1      10.956   3.644  -0.693  0.00  0.00    -0.153 OA
BRANCH   1  26
ATOM      2  S   UNL     1      14.345   4.783  -0.658  0.00  0.00    -0.077 S 
ATOM     26  C   UNL     1      13.133   4.326   0.463  0.00  0.00    +0.142 A 
ATOM     30  C   UNL     1      13.657   3.655   1.545  0.00  0.00    +0.036 A 
ATOM     33  C   UNL     1      15.072   3.512   1.453  0.00  0.00    +0.010 A 
ATOM     36  C   UNL     1      15.576   4.080   0.304  0.00  0.00    +0.047 A 
ENDBRANCH   1  26
ENDBRANCH  12   1
ENDBRANCH  16  12
BRANCH  22  24
ATOM     24  C   UNL     1      10.474   8.050   7.087  0.00  0.00    +0.256 C 
BRANCH  24   7
ATOM      7  O   UNL     1       9.799   6.897   7.525  0.00  0.00    -0.359 OA
BRANCH   7  35
ATOM     35  C   UNL     1      10.641   6.042   8.297  0.00  0.00    +0.280 C 
BRANCH  35  40
ATOM     10  O   UNL     1       8.951   5.006   9.702  0.00  0.00    -0.248 OA
ATOM     40  C   UNL     1       9.833   4.907   8.862  0.00  0.00    +0.331 C 
BRANCH  40   9
ATOM      9  O   UNL     1      10.220   3.733   8.304  0.00  0.00    -0.479 OA
ATOM     46  H   UNL     1       9.645   2.988   8.582  0.00  0.00    +0.295 HD
ENDBRANCH  40   9
ENDBRANCH  35  40
ENDBRANCH   7  35
ENDBRANCH  24   7
ENDBRANCH  22  24
TORSDOF 13
ENDMDL
MODEL 5
REMARK VINA RESULT:      -6.3     23.643     27.059
REMARK  Name = 7134313
REMARK  13 active torsions:
REMARK  status: ('A' for Active; 'I' for Inactive)
REMARK    1  A    between atoms: S_1  and  N_12
REMARK    2  A    between atoms: S_1  and  C_26
REMARK    3  A    between atoms: O_7  and  C_24
REMARK    4  A    between atoms: O_7  and  C_35
REMARK    5  A    between atoms: O_9  and  C_40
REMARK    6  A    between atoms: N_12  and  C_16
REMARK    7  A    between atoms: N_13  and  C_23
REMARK    8  A    between atoms: C_17  and  C_21
REMARK    9  A    between atoms: C_22  and  C_24
REMARK   10  A    between atoms: C_23  and  C_25
REMARK   11  A    between atoms: C_23  and  C_28
REMARK   12  A    between atoms: C_25  and  C_27
REMARK   13  A    between atoms: C_35  and  C_40
REMARK                            x       y       z     vdW  Elec       q    Type
REMARK                         _______ _______ _______ _____ _____    ______ ____
ROOT
ATOM      4  O   UNL     1      -4.885  -9.524  39.689  0.00  0.00    -0.273 OA
ATOM     11  N   UNL     1      -6.989  -8.536  39.823  0.00  0.00    -0.288 N 
ATOM     16  C   UNL     1      -8.579  -6.099  39.975  0.00  0.00    +0.080 C 
ATOM     17  C   UNL     1      -8.438  -8.647  40.064  0.00  0.00    +0.163 C 
ATOM     18  C   UNL     1      -9.046  -7.379  40.668  0.00  0.00    +0.052 C 
ATOM     19  C   UNL     1      -7.056  -6.057  39.896  0.00  0.00    +0.039 C 
ATOM     20  C   UNL     1      -6.521  -7.297  39.191  0.00  0.00    +0.110 C 
ATOM     22  C   UNL     1      -6.074  -9.578  40.017  0.00  0.00    +0.242 C 
ENDROOT
BRANCH  17  21
ATOM      3  O   UNL     1      -9.920  -8.293  38.223  0.00  0.00    -0.274 OA
ATOM     13  N   UNL     1      -8.602 -10.211  38.255  0.00  0.00    -0.302 N 
ATOM     21  C   UNL     1      -9.071  -9.006  38.751  0.00  0.00    +0.234 C 
ATOM     42  H   UNL     1      -7.875 -10.713  38.757  0.00  0.00    +0.150 HD
BRANCH  13  23
ATOM     23  C   UNL     1      -9.069 -10.792  37.018  0.00  0.00    +0.163 C 
BRANCH  23  28
ATOM      8  O   UNL     1      -7.924 -12.341  35.536  0.00  0.00    -0.274 OA
ATOM     15  N   UNL     1      -6.683 -10.753  36.638  0.00  0.00    -0.328 N 
ATOM     28  C   UNL     1      -7.859 -11.401  36.325  0.00  0.00    +0.231 C 
ATOM     44  H   UNL     1      -6.647  -9.963  37.273  0.00  0.00    +0.145 HD
ATOM     45  H   UNL     1      -5.801 -11.050  36.232  0.00  0.00    +0.145 HD
ENDBRANCH  23  28
BRANCH  23  25
ATOM     25  C   UNL     1     -10.149 -11.857  37.248  0.00  0.00    +0.069 C 
BRANCH  25  27
ATOM     14  N   UNL     1     -13.281 -10.679  35.727  0.00  0.00    -0.360 N 
ATOM     27  C   UNL     1     -11.401 -11.607  36.459  0.00  0.00    -0.020 A 
ATOM     29  C   UNL     1     -11.912 -12.410  35.401  0.00  0.00    +0.003 A 
ATOM     31  C   UNL     1     -12.265 -10.550  36.636  0.00  0.00    +0.087 A 
ATOM     32  C   UNL     1     -13.091 -11.806  34.959  0.00  0.00    +0.047 A 
ATOM     34  C   UNL     1     -11.483 -13.598  34.775  0.00  0.00    +0.010 A 
ATOM     37  C   UNL     1     -13.865 -12.332  33.919  0.00  0.00    +0.026 A 
ATOM     38  C   UNL     1     -12.246 -14.135  33.733  0.00  0.00    +0.001 A 
ATOM     39  C   UNL     1     -13.419 -13.509  33.313  0.00  0.00    +0.002 A 
ATOM     43  H   UNL     1     -14.056 -10.038  35.630  0.00  0.00    +0.165 HD
ENDBRANCH  25  27
ENDBRANCH  23  25
ENDBRANCH  13  23
ENDBRANCH  17  21
BRANCH  16  12
ATOM     12  N   UNL     1      -9.067  -4.924  40.738  0.00  0.00    -0.186 NA
ATOM     41  H   UNL     1      -8.407  -4.564  41.440  0.00  0.00    +0.148 HD
BRANCH  12   1
ATOM      1  S   UNL     1     -10.030  -3.780  39.908  0.00  0.00    +0.065 S 
ATOM      5  O   UNL     1     -10.898  -4.467  38.972  0.00  0.00    -0.153 OA
ATOM      6  O   UNL     1      -9.186  -2.680  39.483  0.00  0.00    -0.153 OA
BRANCH   1  26
ATOM      2  S   UNL     1     -10.602  -3.173  42.741  0.00  0.00    -0.077 S 
ATOM     26  C   UNL     1     -11.123  -3.031  41.115  0.00  0.00    +0.142 A 
ATOM     30  C   UNL     1     -12.317  -2.352  41.012  0.00  0.00    +0.036 A 
ATOM     33  C   UNL     1     -12.812  -1.943  42.285  0.00  0.00    +0.010 A 
ATOM     36  C   UNL     1     -11.976  -2.325  43.312  0.00  0.00    +0.047 A 
ENDBRANCH   1  26
ENDBRANCH  12   1
ENDBRANCH  16  12
BRANCH  22  24
ATOM     24  C   UNL     1      -6.597 -10.828  40.680  0.00  0.00    +0.256 C 
BRANCH  24   7
ATOM      7  O   UNL     1      -6.731 -11.794  39.667  0.00  0.00    -0.359 OA
BRANCH   7  35
ATOM     35  C   UNL     1      -5.953 -12.960  39.932  0.00  0.00    +0.280 C 
BRANCH  35  40
ATOM     10  O   UNL     1      -4.938 -14.433  38.287  0.00  0.00    -0.248 OA
ATOM     40  C   UNL     1      -5.129 -13.308  38.723  0.00  0.00    +0.331 C 
BRANCH  40   9
ATOM      9  O   UNL     1      -4.614 -12.183  38.167  0.00  0.00    -0.479 OA
ATOM     46  H   UNL     1      -3.638 -12.233  38.074  0.00  0.00    +0.295 HD
ENDBRANCH  40   9
ENDBRANCH  35  40
ENDBRANCH   7  35
ENDBRANCH  24   7
ENDBRANCH  22  24
TORSDOF 13
ENDMDL
MODEL 6
REMARK VINA RESULT:      -6.2     23.277     25.967
REMARK  Name = 7134313
REMARK  13 active torsions:
REMARK  status: ('A' for Active; 'I' for Inactive)
REMARK    1  A    between atoms: S_1  and  N_12
REMARK    2  A    between atoms: S_1  and  C_26
REMARK    3  A    between atoms: O_7  and  C_24
REMARK    4  A    between atoms: O_7  and  C_35
REMARK    5  A    between atoms: O_9  and  C_40
REMARK    6  A    between atoms: N_12  and  C_16
REMARK    7  A    between atoms: N_13  and  C_23
REMARK    8  A    between atoms: C_17  and  C_21
REMARK    9  A    between atoms: C_22  and  C_24
REMARK   10  A    between atoms: C_23  and  C_25
REMARK   11  A    between atoms: C_23  and  C_28
REMARK   12  A    between atoms: C_25  and  C_27
REMARK   13  A    between atoms: C_35  and  C_40
REMARK                            x       y       z     vdW  Elec       q    Type
REMARK                         _______ _______ _______ _____ _____    ______ ____
ROOT
ATOM      4  O   UNL     1       9.407   9.278   7.955  0.00  0.00    -0.273 OA
ATOM     11  N   UNL     1       8.631   9.214   5.760  0.00  0.00    -0.288 N 
ATOM     16  C   UNL     1       7.502  10.642   3.486  0.00  0.00    +0.080 C 
ATOM     17  C   UNL     1       8.189   8.443   4.585  0.00  0.00    +0.163 C 
ATOM     18  C   UNL     1       7.145   9.178   3.742  0.00  0.00    +0.052 C 
ATOM     19  C   UNL     1       7.824  11.352   4.797  0.00  0.00    +0.039 C 
ATOM     20  C   UNL     1       8.943  10.630   5.538  0.00  0.00    +0.110 C 
ATOM     22  C   UNL     1       8.910   8.653   7.013  0.00  0.00    +0.242 C 
ENDROOT
BRANCH  17  21
ATOM      3  O   UNL     1       9.959   8.930   3.057  0.00  0.00    -0.274 OA
ATOM     13  N   UNL     1       9.830   6.801   3.988  0.00  0.00    -0.302 N 
ATOM     21  C   UNL     1       9.420   8.110   3.795  0.00  0.00    +0.234 C 
ATOM     42  H   UNL     1       9.329   6.209   4.644  0.00  0.00    +0.150 HD
BRANCH  13  23
ATOM     23  C   UNL     1      10.976   6.225   3.324  0.00  0.00    +0.163 C 
BRANCH  23  28
ATOM      8  O   UNL     1      13.222   7.052   3.750  0.00  0.00    -0.274 OA
ATOM     15  N   UNL     1      12.001   6.227   5.513  0.00  0.00    -0.328 N 
ATOM     28  C   UNL     1      12.193   6.537   4.183  0.00  0.00    +0.231 C 
ATOM     44  H   UNL     1      11.138   5.823   5.861  0.00  0.00    +0.145 HD
ATOM     45  H   UNL     1      12.730   6.399   6.197  0.00  0.00    +0.145 HD
ENDBRANCH  23  28
BRANCH  23  25
ATOM     25  C   UNL     1      10.833   4.710   3.127  0.00  0.00    +0.069 C 
BRANCH  25  27
ATOM     14  N   UNL     1      12.830   3.206   0.433  0.00  0.00    -0.360 N 
ATOM     27  C   UNL     1      11.457   4.220   1.853  0.00  0.00    -0.020 A 
ATOM     29  C   UNL     1      10.997   4.475   0.531  0.00  0.00    +0.003 A 
ATOM     31  C   UNL     1      12.585   3.438   1.760  0.00  0.00    +0.087 A 
ATOM     32  C   UNL     1      11.876   3.828  -0.341  0.00  0.00    +0.047 A 
ATOM     34  C   UNL     1       9.915   5.196  -0.011  0.00  0.00    +0.010 A 
ATOM     37  C   UNL     1      11.726   3.867  -1.731  0.00  0.00    +0.026 A 
ATOM     38  C   UNL     1       9.751   5.244  -1.400  0.00  0.00    +0.001 A 
ATOM     39  C   UNL     1      10.645   4.588  -2.245  0.00  0.00    +0.002 A 
ATOM     43  H   UNL     1      13.598   2.656   0.073  0.00  0.00    +0.165 HD
ENDBRANCH  25  27
ENDBRANCH  23  25
ENDBRANCH  13  23
ENDBRANCH  17  21
BRANCH  16  12
ATOM     12  N   UNL     1       6.356  11.316   2.828  0.00  0.00    -0.186 NA
ATOM     41  H   UNL     1       5.802  11.922   3.446  0.00  0.00    +0.148 HD
BRANCH  12   1
ATOM      1  S   UNL     1       6.556  11.823   1.206  0.00  0.00    +0.065 S 
ATOM      5  O   UNL     1       7.209  13.116   1.181  0.00  0.00    -0.153 OA
ATOM      6  O   UNL     1       5.317  11.591   0.489  0.00  0.00    -0.153 OA
BRANCH   1  26
ATOM      2  S   UNL     1       9.265  11.338   0.136  0.00  0.00    -0.077 S 
ATOM     26  C   UNL     1       7.709  10.688   0.434  0.00  0.00    +0.142 A 
ATOM     30  C   UNL     1       7.608   9.378   0.021  0.00  0.00    +0.036 A 
ATOM     33  C   UNL     1       8.824   8.901  -0.548  0.00  0.00    +0.010 A 
ATOM     36  C   UNL     1       9.809   9.865  -0.548  0.00  0.00    +0.047 A 
ENDBRANCH   1  26
ENDBRANCH  12   1
ENDBRANCH  16  12
BRANCH  22  24
ATOM     24  C   UNL     1       8.564   7.197   7.200  0.00  0.00    +0.256 C 
BRANCH  24   7
ATOM      7  O   UNL     1       8.916   6.867   8.521  0.00  0.00    -0.359 OA
BRANCH   7  35
ATOM     35  C   UNL     1      10.057   6.012   8.573  0.00  0.00    +0.280 C 
BRANCH  35  40
ATOM     10  O   UNL     1       8.891   4.388   9.955  0.00  0.00    -0.248 OA
ATOM     40  C   UNL     1       9.644   4.638   9.026  0.00  0.00    +0.331 C 
BRANCH  40   9
ATOM      9  O   UNL     1      10.228   3.693   8.248  0.00  0.00    -0.479 OA
ATOM     46  H   UNL     1       9.908   3.733   7.321  0.00  0.00    +0.295 HD
ENDBRANCH  40   9
ENDBRANCH  35  40
ENDBRANCH   7  35
ENDBRANCH  24   7
ENDBRANCH  22  24
TORSDOF 13
ENDMDL
MODEL 7
REMARK VINA RESULT:      -6.2     23.415     26.141
REMARK  Name = 7134313
REMARK  13 active torsions:
REMARK  status: ('A' for Active; 'I' for Inactive)
REMARK    1  A    between atoms: S_1  and  N_12
REMARK    2  A    between atoms: S_1  and  C_26
REMARK    3  A    between atoms: O_7  and  C_24
REMARK    4  A    between atoms: O_7  and  C_35
REMARK    5  A    between atoms: O_9  and  C_40
REMARK    6  A    between atoms: N_12  and  C_16
REMARK    7  A    between atoms: N_13  and  C_23
REMARK    8  A    between atoms: C_17  and  C_21
REMARK    9  A    between atoms: C_22  and  C_24
REMARK   10  A    between atoms: C_23  and  C_25
REMARK   11  A    between atoms: C_23  and  C_28
REMARK   12  A    between atoms: C_25  and  C_27
REMARK   13  A    between atoms: C_35  and  C_40
REMARK                            x       y       z     vdW  Elec       q    Type
REMARK                         _______ _______ _______ _____ _____    ______ ____
ROOT
ATOM      4  O   UNL     1      12.277   8.305   7.247  0.00  0.00    -0.273 OA
ATOM     11  N   UNL     1      10.471   7.975   5.816  0.00  0.00    -0.288 N 
ATOM     16  C   UNL     1       8.066   9.046   4.568  0.00  0.00    +0.080 C 
ATOM     17  C   UNL     1       9.613   7.069   5.033  0.00  0.00    +0.163 C 
ATOM     18  C   UNL     1       8.169   7.561   4.916  0.00  0.00    +0.052 C 
ATOM     19  C   UNL     1       8.910   9.880   5.528  0.00  0.00    +0.039 C 
ATOM     20  C   UNL     1      10.358   9.408   5.519  0.00  0.00    +0.110 C 
ATOM     22  C   UNL     1      11.473   7.548   6.696  0.00  0.00    +0.242 C 
ENDROOT
BRANCH  17  21
ATOM      3  O   UNL     1       9.662   7.134   2.645  0.00  0.00    -0.274 OA
ATOM     13  N   UNL     1      11.570   6.454   3.793  0.00  0.00    -0.302 N 
ATOM     21  C   UNL     1      10.264   6.904   3.691  0.00  0.00    +0.234 C 
ATOM     42  H   UNL     1      11.985   6.320   4.710  0.00  0.00    +0.150 HD
BRANCH  13  23
ATOM     23  C   UNL     1      12.408   6.193   2.646  0.00  0.00    +0.163 C 
BRANCH  23  28
ATOM      8  O   UNL     1      14.052   7.718   3.582  0.00  0.00    -0.274 OA
ATOM     15  N   UNL     1      14.784   5.750   2.648  0.00  0.00    -0.328 N 
ATOM     28  C   UNL     1      13.811   6.662   3.001  0.00  0.00    +0.231 C 
ATOM     44  H   UNL     1      14.568   4.872   2.190  0.00  0.00    +0.145 HD
ATOM     45  H   UNL     1      15.763   5.934   2.842  0.00  0.00    +0.145 HD
ENDBRANCH  23  28
BRANCH  23  25
ATOM     25  C   UNL     1      12.420   4.707   2.262  0.00  0.00    +0.069 C 
BRANCH  25  27
ATOM     14  N   UNL     1      10.302   4.072  -0.674  0.00  0.00    -0.360 N 
ATOM     27  C   UNL     1      11.804   4.440   0.919  0.00  0.00    -0.020 A 
ATOM     29  C   UNL     1      12.495   4.275  -0.313  0.00  0.00    +0.003 A 
ATOM     31  C   UNL     1      10.458   4.310   0.665  0.00  0.00    +0.087 A 
ATOM     32  C   UNL     1      11.530   4.045  -1.297  0.00  0.00    +0.047 A 
ATOM     34  C   UNL     1      13.853   4.298  -0.688  0.00  0.00    +0.010 A 
ATOM     37  C   UNL     1      11.857   3.837  -2.641  0.00  0.00    +0.026 A 
ATOM     38  C   UNL     1      14.196   4.092  -2.029  0.00  0.00    +0.001 A 
ATOM     39  C   UNL     1      13.211   3.866  -2.989  0.00  0.00    +0.002 A 
ATOM     43  H   UNL     1       9.416   3.939  -1.140  0.00  0.00    +0.165 HD
ENDBRANCH  25  27
ENDBRANCH  23  25
ENDBRANCH  13  23
ENDBRANCH  17  21
BRANCH  16  12
ATOM     12  N   UNL     1       6.648   9.473   4.659  0.00  0.00    -0.186 NA
ATOM     41  H   UNL     1       6.310   9.637   5.616  0.00  0.00    +0.148 HD
BRANCH  12   1
ATOM      1  S   UNL     1       6.045  10.495   3.428  0.00  0.00    +0.065 S 
ATOM      5  O   UNL     1       6.142  11.877   3.855  0.00  0.00    -0.153 OA
ATOM      6  O   UNL     1       4.796   9.946   2.935  0.00  0.00    -0.153 OA
BRANCH   1  26
ATOM      2  S   UNL     1       8.250  11.650   1.838  0.00  0.00    -0.077 S 
ATOM     26  C   UNL     1       7.152  10.348   2.026  0.00  0.00    +0.142 A 
ATOM     30  C   UNL     1       7.313   9.392   1.048  0.00  0.00    +0.036 A 
ATOM     33  C   UNL     1       8.350   9.732   0.131  0.00  0.00    +0.010 A 
ATOM     36  C   UNL     1       8.943  10.935   0.444  0.00  0.00    +0.047 A 
ENDBRANCH   1  26
ENDBRANCH  12   1
ENDBRANCH  16  12
BRANCH  22  24
ATOM     24  C   UNL     1      11.545   6.069   6.980  0.00  0.00    +0.256 C 
BRANCH  24   7
ATOM      7  O   UNL     1      11.360   5.916   8.366  0.00  0.00    -0.359 OA
BRANCH   7  35
ATOM     35  C   UNL     1       9.979   5.837   8.716  0.00  0.00    +0.280 C 
BRANCH  35  40
ATOM     10  O   UNL     1       9.271   3.518   8.881  0.00  0.00    -0.248 OA
ATOM     40  C   UNL     1       9.703   4.531   9.409  0.00  0.00    +0.331 C 
BRANCH  40   9
ATOM      9  O   UNL     1      10.006   4.628  10.728  0.00  0.00    -0.479 OA
ATOM     46  H   UNL     1       9.538   5.376  11.157  0.00  0.00    +0.295 HD
ENDBRANCH  40   9
ENDBRANCH  35  40
ENDBRANCH   7  35
ENDBRANCH  24   7
ENDBRANCH  22  24
TORSDOF 13
ENDMDL
MODEL 8
REMARK VINA RESULT:      -6.1     25.308     28.009
REMARK  Name = 7134313
REMARK  13 active torsions:
REMARK  status: ('A' for Active; 'I' for Inactive)
REMARK    1  A    between atoms: S_1  and  N_12
REMARK    2  A    between atoms: S_1  and  C_26
REMARK    3  A    between atoms: O_7  and  C_24
REMARK    4  A    between atoms: O_7  and  C_35
REMARK    5  A    between atoms: O_9  and  C_40
REMARK    6  A    between atoms: N_12  and  C_16
REMARK    7  A    between atoms: N_13  and  C_23
REMARK    8  A    between atoms: C_17  and  C_21
REMARK    9  A    between atoms: C_22  and  C_24
REMARK   10  A    between atoms: C_23  and  C_25
REMARK   11  A    between atoms: C_23  and  C_28
REMARK   12  A    between atoms: C_25  and  C_27
REMARK   13  A    between atoms: C_35  and  C_40
REMARK                            x       y       z     vdW  Elec       q    Type
REMARK                         _______ _______ _______ _____ _____    ______ ____
ROOT
ATOM      4  O   UNL     1      16.570  10.429   4.045  0.00  0.00    -0.273 OA
ATOM     11  N   UNL     1      14.797   8.922   4.134  0.00  0.00    -0.288 N 
ATOM     16  C   UNL     1      11.949   8.465   4.542  0.00  0.00    +0.080 C 
ATOM     17  C   UNL     1      14.302   7.536   4.204  0.00  0.00    +0.163 C 
ATOM     18  C   UNL     1      12.975   7.409   4.953  0.00  0.00    +0.052 C 
ATOM     19  C   UNL     1      12.555   9.862   4.627  0.00  0.00    +0.039 C 
ATOM     20  C   UNL     1      13.816   9.953   3.776  0.00  0.00    +0.110 C 
ATOM     22  C   UNL     1      16.146   9.286   4.237  0.00  0.00    +0.242 C 
ENDROOT
BRANCH  17  21
ATOM      3  O   UNL     1      14.385   7.778   1.828  0.00  0.00    -0.274 OA
ATOM     13  N   UNL     1      13.872   5.695   2.731  0.00  0.00    -0.302 N 
ATOM     21  C   UNL     1      14.204   7.038   2.792  0.00  0.00    +0.234 C 
ATOM     42  H   UNL     1      13.770   5.163   3.590  0.00  0.00    +0.150 HD
BRANCH  13  23
ATOM     23  C   UNL     1      13.693   4.980   1.488  0.00  0.00    +0.163 C 
BRANCH  23  28
ATOM      8  O   UNL     1      15.688   4.436   0.212  0.00  0.00    -0.274 OA
ATOM     15  N   UNL     1      15.339   3.366   2.214  0.00  0.00    -0.328 N 
ATOM     28  C   UNL     1      14.993   4.242   1.207  0.00  0.00    +0.231 C 
ATOM     44  H   UNL     1      14.767   3.232   3.042  0.00  0.00    +0.145 HD
ATOM     45  H   UNL     1      16.192   2.819   2.159  0.00  0.00    +0.145 HD
ENDBRANCH  23  28
BRANCH  23  25
ATOM     25  C   UNL     1      12.519   3.995   1.550  0.00  0.00    +0.069 C 
BRANCH  25  27
ATOM     14  N   UNL     1       9.723   4.794  -0.699  0.00  0.00    -0.360 N 
ATOM     27  C   UNL     1      11.532   4.182   0.434  0.00  0.00    -0.020 A 
ATOM     29  C   UNL     1      11.668   3.718  -0.904  0.00  0.00    +0.003 A 
ATOM     31  C   UNL     1      10.327   4.840   0.529  0.00  0.00    +0.087 A 
ATOM     32  C   UNL     1      10.519   4.115  -1.595  0.00  0.00    +0.047 A 
ATOM     34  C   UNL     1      12.659   2.996  -1.598  0.00  0.00    +0.010 A 
ATOM     37  C   UNL     1      10.313   3.825  -2.947  0.00  0.00    +0.026 A 
ATOM     38  C   UNL     1      12.467   2.698  -2.952  0.00  0.00    +0.001 A 
ATOM     39  C   UNL     1      11.311   3.108  -3.614  0.00  0.00    +0.002 A 
ATOM     43  H   UNL     1       8.826   5.203  -0.919  0.00  0.00    +0.165 HD
ENDBRANCH  25  27
ENDBRANCH  23  25
ENDBRANCH  13  23
ENDBRANCH  17  21
BRANCH  16  12
ATOM     12  N   UNL     1      10.773   8.382   5.444  0.00  0.00    -0.186 NA
ATOM     41  H   UNL     1      10.409   9.290   5.759  0.00  0.00    +0.148 HD
BRANCH  12   1
ATOM      1  S   UNL     1       9.636   7.138   5.155  0.00  0.00    +0.065 S 
ATOM      5  O   UNL     1      10.096   6.307   4.060  0.00  0.00    -0.153 OA
ATOM      6  O   UNL     1       8.305   7.713   5.155  0.00  0.00    -0.153 OA
BRANCH   1  26
ATOM      2  S   UNL     1       9.160   6.837   8.054  0.00  0.00    -0.077 S 
ATOM     26  C   UNL     1       9.636   6.073   6.597  0.00  0.00    +0.142 A 
ATOM     30  C   UNL     1       9.944   4.744   6.787  0.00  0.00    +0.036 A 
ATOM     33  C   UNL     1       9.788   4.348   8.147  0.00  0.00    +0.010 A 
ATOM     36  C   UNL     1       9.366   5.388   8.944  0.00  0.00    +0.047 A 
ENDBRANCH   1  26
ENDBRANCH  12   1
ENDBRANCH  16  12
BRANCH  22  24
ATOM     24  C   UNL     1      17.117   8.196   4.618  0.00  0.00    +0.256 C 
BRANCH  24   7
ATOM      7  O   UNL     1      18.406   8.741   4.480  0.00  0.00    -0.359 OA
BRANCH   7  35
ATOM     35  C   UNL     1      19.326   7.807   3.917  0.00  0.00    +0.280 C 
BRANCH  35  40
ATOM     10  O   UNL     1      19.315   9.248   1.960  0.00  0.00    -0.248 OA
ATOM     40  C   UNL     1      19.681   8.223   2.516  0.00  0.00    +0.331 C 
BRANCH  40   9
ATOM      9  O   UNL     1      20.479   7.290   1.939  0.00  0.00    -0.479 OA
ATOM     46  H   UNL     1      20.938   6.737   2.607  0.00  0.00    +0.295 HD
ENDBRANCH  40   9
ENDBRANCH  35  40
ENDBRANCH   7  35
ENDBRANCH  24   7
ENDBRANCH  22  24
TORSDOF 13
ENDMDL
MODEL 9
REMARK VINA RESULT:      -6.1     20.255     23.061
REMARK  Name = 7134313
REMARK  13 active torsions:
REMARK  status: ('A' for Active; 'I' for Inactive)
REMARK    1  A    between atoms: S_1  and  N_12
REMARK    2  A    between atoms: S_1  and  C_26
REMARK    3  A    between atoms: O_7  and  C_24
REMARK    4  A    between atoms: O_7  and  C_35
REMARK    5  A    between atoms: O_9  and  C_40
REMARK    6  A    between atoms: N_12  and  C_16
REMARK    7  A    between atoms: N_13  and  C_23
REMARK    8  A    between atoms: C_17  and  C_21
REMARK    9  A    between atoms: C_22  and  C_24
REMARK   10  A    between atoms: C_23  and  C_25
REMARK   11  A    between atoms: C_23  and  C_28
REMARK   12  A    between atoms: C_25  and  C_27
REMARK   13  A    between atoms: C_35  and  C_40
REMARK                            x       y       z     vdW  Elec       q    Type
REMARK                         _______ _______ _______ _____ _____    ______ ____
ROOT
ATOM      4  O   UNL     1     -10.150   8.460  17.695  0.00  0.00    -0.273 OA
ATOM     11  N   UNL     1     -11.976   8.237  19.122  0.00  0.00    -0.288 N 
ATOM     16  C   UNL     1     -13.270   6.777  21.286  0.00  0.00    +0.080 C 
ATOM     17  C   UNL     1     -13.360   8.586  19.487  0.00  0.00    +0.163 C 
ATOM     18  C   UNL     1     -14.101   7.448  20.192  0.00  0.00    +0.052 C 
ATOM     19  C   UNL     1     -11.907   6.360  20.742  0.00  0.00    +0.039 C 
ATOM     20  C   UNL     1     -11.177   7.559  20.149  0.00  0.00    +0.110 C 
ATOM     22  C   UNL     1     -11.347   8.639  17.937  0.00  0.00    +0.242 C 
ENDROOT
BRANCH  17  21
ATOM      3  O   UNL     1     -12.844  10.883  19.898  0.00  0.00    -0.274 OA
ATOM     13  N   UNL     1     -13.748   9.605  21.622  0.00  0.00    -0.302 N 
ATOM     21  C   UNL     1     -13.288   9.823  20.334  0.00  0.00    +0.234 C 
ATOM     42  H   UNL     1     -14.122   8.696  21.875  0.00  0.00    +0.150 HD
BRANCH  13  23
ATOM     23  C   UNL     1     -13.762  10.630  22.640  0.00  0.00    +0.163 C 
BRANCH  23  28
ATOM      8  O   UNL     1     -15.800  10.911  23.933  0.00  0.00    -0.274 OA
ATOM     15  N   UNL     1     -14.572   8.991  24.220  0.00  0.00    -0.328 N 
ATOM     28  C   UNL     1     -14.814  10.229  23.663  0.00  0.00    +0.231 C 
ATOM     44  H   UNL     1     -13.766   8.428  23.971  0.00  0.00    +0.145 HD
ATOM     45  H   UNL     1     -15.207   8.597  24.908  0.00  0.00    +0.145 HD
ENDBRANCH  23  28
BRANCH  23  25
ATOM     25  C   UNL     1     -12.394  10.796  23.315  0.00  0.00    +0.069 C 
BRANCH  25  27
ATOM     14  N   UNL     1     -12.766  13.470  25.809  0.00  0.00    -0.360 N 
ATOM     27  C   UNL     1     -12.434  11.696  24.516  0.00  0.00    -0.020 A 
ATOM     29  C   UNL     1     -12.002  11.374  25.832  0.00  0.00    +0.003 A 
ATOM     31  C   UNL     1     -12.898  12.991  24.533  0.00  0.00    +0.087 A 
ATOM     32  C   UNL     1     -12.221  12.503  26.624  0.00  0.00    +0.047 A 
ATOM     34  C   UNL     1     -11.443  10.226  26.429  0.00  0.00    +0.010 A 
ATOM     37  C   UNL     1     -11.909  12.542  27.987  0.00  0.00    +0.026 A 
ATOM     38  C   UNL     1     -11.126  10.249  27.792  0.00  0.00    +0.001 A 
ATOM     39  C   UNL     1     -11.357  11.391  28.557  0.00  0.00    +0.002 A 
ATOM     43  H   UNL     1     -13.034  14.396  26.110  0.00  0.00    +0.165 HD
ENDBRANCH  25  27
ENDBRANCH  23  25
ENDBRANCH  13  23
ENDBRANCH  17  21
BRANCH  16  12
ATOM     12  N   UNL     1     -13.991   5.578  21.781  0.00  0.00    -0.186 NA
ATOM     41  H   UNL     1     -13.434   4.962  22.386  0.00  0.00    +0.148 HD
BRANCH  12   1
ATOM      1  S   UNL     1     -15.653   5.744  22.148  0.00  0.00    +0.065 S 
ATOM      5  O   UNL     1     -16.439   5.021  21.168  0.00  0.00    -0.153 OA
ATOM      6  O   UNL     1     -15.927   7.135  22.454  0.00  0.00    -0.153 OA
BRANCH   1  26
ATOM      2  S   UNL     1     -17.278   5.488  24.600  0.00  0.00    -0.077 S 
ATOM     26  C   UNL     1     -15.939   4.905  23.706  0.00  0.00    +0.142 A 
ATOM     30  C   UNL     1     -15.298   3.870  24.350  0.00  0.00    +0.036 A 
ATOM     33  C   UNL     1     -15.914   3.551  25.595  0.00  0.00    +0.010 A 
ATOM     36  C   UNL     1     -17.003   4.355  25.855  0.00  0.00    +0.047 A 
ENDBRANCH   1  26
ENDBRANCH  12   1
ENDBRANCH  16  12
BRANCH  22  24
ATOM     24  C   UNL     1     -12.210   9.323  16.907  0.00  0.00    +0.256 C 
BRANCH  24   7
ATOM      7  O   UNL     1     -12.297   8.447  15.810  0.00  0.00    -0.359 OA
BRANCH   7  35
ATOM     35  C   UNL     1     -11.428   8.831  14.746  0.00  0.00    +0.280 C 
BRANCH  35  40
ATOM     10  O   UNL     1     -10.903   7.225  12.999  0.00  0.00    -0.248 OA
ATOM     40  C   UNL     1     -10.780   7.611  14.152  0.00  0.00    +0.331 C 
BRANCH  40   9
ATOM      9  O   UNL     1     -10.023   6.981  15.085  0.00  0.00    -0.479 OA
ATOM     46  H   UNL     1     -10.563   6.402  15.665  0.00  0.00    +0.295 HD
ENDBRANCH  40   9
ENDBRANCH  35  40
ENDBRANCH   7  35
ENDBRANCH  24   7
ENDBRANCH  22  24
TORSDOF 13
ENDMDL
MODEL 10
REMARK VINA RESULT:      -6.1      4.185      8.003
REMARK  Name = 7134313
REMARK  13 active torsions:
REMARK  status: ('A' for Active; 'I' for Inactive)
REMARK    1  A    between atoms: S_1  and  N_12
REMARK    2  A    between atoms: S_1  and  C_26
REMARK    3  A    between atoms: O_7  and  C_24
REMARK    4  A    between atoms: O_7  and  C_35
REMARK    5  A    between atoms: O_9  and  C_40
REMARK    6  A    between atoms: N_12  and  C_16
REMARK    7  A    between atoms: N_13  and  C_23
REMARK    8  A    between atoms: C_17  and  C_21
REMARK    9  A    between atoms: C_22  and  C_24
REMARK   10  A    between atoms: C_23  and  C_25
REMARK   11  A    between atoms: C_23  and  C_28
REMARK   12  A    between atoms: C_25  and  C_27
REMARK   13  A    between atoms: C_35  and  C_40
REMARK                            x       y       z     vdW  Elec       q    Type
REMARK                         _______ _______ _______ _____ _____    ______ ____
ROOT
ATOM      4  O   UNL     1      -4.755 -14.661  17.201  0.00  0.00    -0.273 OA
ATOM     11  N   UNL     1      -5.736 -12.912  16.017  0.00  0.00    -0.288 N 
ATOM     16  C   UNL     1      -7.796 -10.857  15.881  0.00  0.00    +0.080 C 
ATOM     17  C   UNL     1      -5.903 -12.155  14.764  0.00  0.00    +0.163 C 
ATOM     18  C   UNL     1      -7.299 -11.547  14.611  0.00  0.00    +0.052 C 
ATOM     19  C   UNL     1      -7.676 -11.792  17.081  0.00  0.00    +0.039 C 
ATOM     20  C   UNL     1      -6.241 -12.279  17.240  0.00  0.00    +0.110 C 
ATOM     22  C   UNL     1      -5.005 -14.102  16.129  0.00  0.00    +0.242 C 
ENDROOT
BRANCH  17  21
ATOM      3  O   UNL     1      -4.851 -10.135  15.488  0.00  0.00    -0.274 OA
ATOM     13  N   UNL     1      -3.859 -11.375  13.786  0.00  0.00    -0.302 N 
ATOM     21  C   UNL     1      -4.826 -11.110  14.741  0.00  0.00    +0.234 C 
ATOM     42  H   UNL     1      -3.915 -12.227  13.235  0.00  0.00    +0.150 HD
BRANCH  13  23
ATOM     23  C   UNL     1      -2.726 -10.510  13.546  0.00  0.00    +0.163 C 
BRANCH  23  28
ATOM      8  O   UNL     1      -1.180 -11.749  14.954  0.00  0.00    -0.274 OA
ATOM     15  N   UNL     1      -1.585  -9.541  15.443  0.00  0.00    -0.328 N 
ATOM     28  C   UNL     1      -1.767 -10.697  14.712  0.00  0.00    +0.231 C 
ATOM     44  H   UNL     1      -2.059  -8.672  15.219  0.00  0.00    +0.145 HD
ATOM     45  H   UNL     1      -0.958  -9.524  16.241  0.00  0.00    +0.145 HD
ENDBRANCH  23  28
BRANCH  23  25
ATOM     25  C   UNL     1      -2.026 -10.826  12.219  0.00  0.00    +0.069 C 
BRANCH  25  27
ATOM     14  N   UNL     1      -3.886  -9.390   9.392  0.00  0.00    -0.360 N 
ATOM     27  C   UNL     1      -2.869 -10.510  11.017  0.00  0.00    -0.020 A 
ATOM     29  C   UNL     1      -3.618 -11.437  10.240  0.00  0.00    +0.003 A 
ATOM     31  C   UNL     1      -3.053  -9.261  10.472  0.00  0.00    +0.087 A 
ATOM     32  C   UNL     1      -4.247 -10.709   9.227  0.00  0.00    +0.047 A 
ATOM     34  C   UNL     1      -3.824 -12.830  10.300  0.00  0.00    +0.010 A 
ATOM     37  C   UNL     1      -5.073 -11.306   8.269  0.00  0.00    +0.026 A 
ATOM     38  C   UNL     1      -4.647 -13.442   9.349  0.00  0.00    +0.001 A 
ATOM     39  C   UNL     1      -5.261 -12.689   8.349  0.00  0.00    +0.002 A 
ATOM     43  H   UNL     1      -4.188  -8.630   8.800  0.00  0.00    +0.165 HD
ENDBRANCH  25  27
ENDBRANCH  23  25
ENDBRANCH  13  23
ENDBRANCH  17  21
BRANCH  16  12
ATOM     12  N   UNL     1      -9.216 -10.466  15.701  0.00  0.00    -0.186 NA
ATOM     41  H   UNL     1      -9.883 -11.248  15.720  0.00  0.00    +0.148 HD
BRANCH  12   1
ATOM      1  S   UNL     1      -9.726  -8.984  16.385  0.00  0.00    +0.065 S 
ATOM      5  O   UNL     1     -10.326  -8.157  15.356  0.00  0.00    -0.153 OA
ATOM      6  O   UNL     1      -8.669  -8.476  17.238  0.00  0.00    -0.153 OA
BRANCH   1  26
ATOM      2  S   UNL     1     -10.551 -10.104  18.990  0.00  0.00    -0.077 S 
ATOM     26  C   UNL     1     -11.052  -9.357  17.532  0.00  0.00    +0.142 A 
ATOM     30  C   UNL     1     -12.415  -9.168  17.490  0.00  0.00    +0.036 A 
ATOM     33  C   UNL     1     -13.058  -9.643  18.671  0.00  0.00    +0.010 A 
ATOM     36  C   UNL     1     -12.161 -10.176  19.570  0.00  0.00    +0.047 A 
ENDBRANCH   1  26
ENDBRANCH  12   1
ENDBRANCH  16  12
BRANCH  22  24
ATOM     24  C   UNL     1      -4.514 -14.723  14.845  0.00  0.00    +0.256 C 
BRANCH  24   7
ATOM      7  O   UNL     1      -3.178 -14.314  14.686  0.00  0.00    -0.359 OA
BRANCH   7  35
ATOM     35  C   UNL     1      -2.348 -15.370  14.204  0.00  0.00    +0.280 C 
BRANCH  35  40
ATOM     10  O   UNL     1      -1.913 -15.450  11.815  0.00  0.00    -0.248 OA
ATOM     40  C   UNL     1      -1.699 -14.957  12.912  0.00  0.00    +0.331 C 
BRANCH  40   9
ATOM      9  O   UNL     1      -0.826 -13.942  13.129  0.00  0.00    -0.479 OA
ATOM     46  H   UNL     1      -1.219 -13.234  13.686  0.00  0.00    +0.295 HD
ENDBRANCH  40   9
ENDBRANCH  35  40
ENDBRANCH   7  35
ENDBRANCH  24   7
ENDBRANCH  22  24
TORSDOF 13
ENDMDL
