MODEL 1
REMARK VINA RESULT:      -7.5      0.000      0.000
REMARK  Name = 25389730
REMARK  8 active torsions:
REMARK  status: ('A' for Active; 'I' for Inactive)
REMARK    1  A    between atoms: O_2  and  C_20
REMARK    2  A    between atoms: O_2  and  C_32
REMARK    3  A    between atoms: O_4  and  C_26
REMARK    4  A    between atoms: N_7  and  C_11
REMARK    5  A    between atoms: N_7  and  C_21
REMARK    6  A    between atoms: C_9  and  C_17
REMARK    7  A    between atoms: C_13  and  C_20
REMARK    8  A    between atoms: C_21  and  C_26
REMARK                            x       y       z     vdW  Elec       q    Type
REMARK                         _______ _______ _______ _____ _____    ______ ____
ROOT
ATOM      5  N   UNL     1      13.143  10.116  21.996  0.00  0.00    -0.274 NA
ATOM      6  N   UNL     1      15.598   7.657  20.570  0.00  0.00    -0.356 N 
ATOM      8  C   UNL     1      13.495   9.051  21.009  0.00  0.00    +0.106 C 
ATOM      9  C   UNL     1      11.706  10.487  21.927  0.00  0.00    +0.093 C 
ATOM     10  C   UNL     1      12.640   7.795  21.237  0.00  0.00    +0.044 C 
ATOM     11  C   UNL     1      11.153   8.132  21.123  0.00  0.00    +0.057 C 
ATOM     12  C   UNL     1      10.802   9.244  22.110  0.00  0.00    +0.042 C 
ATOM     13  C   UNL     1      14.087  11.268  21.967  0.00  0.00    +0.172 C 
ATOM     14  C   UNL     1      14.960   8.745  21.097  0.00  0.00    +0.038 A 
ATOM     15  C   UNL     1      15.540  10.855  22.310  0.00  0.00    +0.068 C 
ATOM     16  C   UNL     1      15.910   9.564  21.670  0.00  0.00    -0.016 A 
ATOM     18  C   UNL     1      17.175   8.932  21.518  0.00  0.00    +0.003 A 
ATOM     19  C   UNL     1      16.950   7.738  20.826  0.00  0.00    +0.047 A 
ATOM     24  C   UNL     1      18.493   9.258  21.896  0.00  0.00    +0.010 A 
ATOM     25  C   UNL     1      17.983   6.852  20.495  0.00  0.00    +0.026 A 
ATOM     27  C   UNL     1      19.533   8.380  21.573  0.00  0.00    +0.001 A 
ATOM     30  C   UNL     1      19.280   7.196  20.883  0.00  0.00    +0.002 A 
ATOM     33  H   UNL     1      15.152   6.901  20.070  0.00  0.00    +0.166 HD
ENDROOT
BRANCH   9  17
ATOM      1  F   UNL     1      10.886  13.126  21.250  0.00  0.00    -0.205 F 
ATOM     17  C   UNL     1      11.279  11.526  22.960  0.00  0.00    +0.005 A 
ATOM     22  C   UNL     1      10.889  12.801  22.551  0.00  0.00    +0.128 A 
ATOM     23  C   UNL     1      11.278  11.197  24.315  0.00  0.00    +0.008 A 
ATOM     28  C   UNL     1      10.498  13.748  23.497  0.00  0.00    +0.038 A 
ATOM     29  C   UNL     1      10.887  12.145  25.262  0.00  0.00    +0.000 A 
ATOM     31  C   UNL     1      10.497  13.420  24.853  0.00  0.00    +0.003 A 
ENDBRANCH   9  17
BRANCH  13  20
ATOM      3  O   UNL     1      13.406  11.541  19.670  0.00  0.00    -0.249 OA
ATOM     20  C   UNL     1      14.026  11.964  20.637  0.00  0.00    +0.325 C 
BRANCH  20   2
ATOM      2  O   UNL     1      14.761  13.111  20.689  0.00  0.00    -0.467 OA
ATOM     32  C   UNL     1      14.167  14.189  21.420  0.00  0.00    +0.280 C 
ENDBRANCH  20   2
ENDBRANCH  13  20
BRANCH  11   7
ATOM      7  N   UNL     1      10.346   6.939  21.373  0.00  0.00    -0.311 NA
ATOM     34  H   UNL     1       9.748   7.090  22.187  0.00  0.00    +0.122 HD
BRANCH   7  21
ATOM     21  C   UNL     1      11.194   5.784  21.623  0.00  0.00    +0.109 C 
BRANCH  21  26
ATOM     26  C   UNL     1      10.376   4.503  21.607  0.00  0.00    +0.171 C 
BRANCH  26   4
ATOM      4  O   UNL     1      10.561   3.858  20.355  0.00  0.00    -0.394 OA
ATOM     35  H   UNL     1      10.184   4.441  19.675  0.00  0.00    +0.209 HD
ENDBRANCH  26   4
ENDBRANCH  21  26
ENDBRANCH   7  21
ENDBRANCH  11   7
TORSDOF 7
ENDMDL
MODEL 2
REMARK VINA RESULT:      -7.2      2.938      7.263
REMARK  Name = 25389730
REMARK  8 active torsions:
REMARK  status: ('A' for Active; 'I' for Inactive)
REMARK    1  A    between atoms: O_2  and  C_20
REMARK    2  A    between atoms: O_2  and  C_32
REMARK    3  A    between atoms: O_4  and  C_26
REMARK    4  A    between atoms: N_7  and  C_11
REMARK    5  A    between atoms: N_7  and  C_21
REMARK    6  A    between atoms: C_9  and  C_17
REMARK    7  A    between atoms: C_13  and  C_20
REMARK    8  A    between atoms: C_21  and  C_26
REMARK                            x       y       z     vdW  Elec       q    Type
REMARK                         _______ _______ _______ _____ _____    ______ ____
ROOT
ATOM      5  N   UNL     1      13.611  10.196  20.768  0.00  0.00    -0.274 NA
ATOM      6  N   UNL     1      11.168  13.025  21.142  0.00  0.00    -0.356 N 
ATOM      8  C   UNL     1      12.521  11.057  20.217  0.00  0.00    +0.106 C 
ATOM      9  C   UNL     1      14.175   9.286  19.740  0.00  0.00    +0.093 C 
ATOM     10  C   UNL     1      13.033  11.891  19.032  0.00  0.00    +0.044 C 
ATOM     11  C   UNL     1      13.577  10.980  17.932  0.00  0.00    +0.057 C 
ATOM     12  C   UNL     1      14.669  10.078  18.505  0.00  0.00    +0.042 C 
ATOM     13  C   UNL     1      13.236   9.536  22.049  0.00  0.00    +0.172 C 
ATOM     14  C   UNL     1      11.965  11.926  21.305  0.00  0.00    +0.038 A 
ATOM     15  C   UNL     1      12.911  10.555  23.171  0.00  0.00    +0.068 C 
ATOM     16  C   UNL     1      12.117  11.703  22.657  0.00  0.00    -0.016 A 
ATOM     18  C   UNL     1      11.413  12.728  23.347  0.00  0.00    +0.003 A 
ATOM     19  C   UNL     1      10.829  13.544  22.373  0.00  0.00    +0.047 A 
ATOM     24  C   UNL     1      11.210  13.043  24.706  0.00  0.00    +0.010 A 
ATOM     25  C   UNL     1      10.051  14.663  22.694  0.00  0.00    +0.026 A 
ATOM     27  C   UNL     1      10.436  14.160  25.040  0.00  0.00    +0.001 A 
ATOM     30  C   UNL     1       9.866  14.956  24.048  0.00  0.00    +0.002 A 
ATOM     33  H   UNL     1      10.870  13.407  20.255  0.00  0.00    +0.166 HD
ENDROOT
BRANCH   9  17
ATOM      1  F   UNL     1      14.286   6.460  19.426  0.00  0.00    -0.205 F 
ATOM     17  C   UNL     1      15.338   8.429  20.234  0.00  0.00    +0.005 A 
ATOM     22  C   UNL     1      15.321   7.048  20.043  0.00  0.00    +0.128 A 
ATOM     23  C   UNL     1      16.419   9.031  20.877  0.00  0.00    +0.008 A 
ATOM     28  C   UNL     1      16.385   6.268  20.495  0.00  0.00    +0.038 A 
ATOM     29  C   UNL     1      17.484   8.251  21.329  0.00  0.00    +0.000 A 
ATOM     31  C   UNL     1      17.467   6.870  21.138  0.00  0.00    +0.003 A 
ENDBRANCH   9  17
BRANCH  13  20
ATOM      3  O   UNL     1      10.938   8.942  21.627  0.00  0.00    -0.249 OA
ATOM     20  C   UNL     1      12.091   8.588  21.836  0.00  0.00    +0.325 C 
BRANCH  20   2
ATOM      2  O   UNL     1      12.541   7.303  21.916  0.00  0.00    -0.467 OA
ATOM     32  C   UNL     1      11.628   6.302  21.454  0.00  0.00    +0.280 C 
ENDBRANCH  20   2
ENDBRANCH  13  20
BRANCH  11   7
ATOM      7  N   UNL     1      14.091  11.781  16.823  0.00  0.00    -0.311 NA
ATOM     34  H   UNL     1      13.492  12.594  16.676  0.00  0.00    +0.122 HD
BRANCH   7  21
ATOM     21  C   UNL     1      14.131  11.001  15.596  0.00  0.00    +0.109 C 
BRANCH  21  26
ATOM     26  C   UNL     1      12.964  10.028  15.540  0.00  0.00    +0.171 C 
BRANCH  26   4
ATOM      4  O   UNL     1      13.458   8.741  15.195  0.00  0.00    -0.394 OA
ATOM     35  H   UNL     1      13.669   8.284  16.026  0.00  0.00    +0.209 HD
ENDBRANCH  26   4
ENDBRANCH  21  26
ENDBRANCH   7  21
ENDBRANCH  11   7
TORSDOF 7
ENDMDL
MODEL 3
REMARK VINA RESULT:      -7.1      3.272      6.192
REMARK  Name = 25389730
REMARK  8 active torsions:
REMARK  status: ('A' for Active; 'I' for Inactive)
REMARK    1  A    between atoms: O_2  and  C_20
REMARK    2  A    between atoms: O_2  and  C_32
REMARK    3  A    between atoms: O_4  and  C_26
REMARK    4  A    between atoms: N_7  and  C_11
REMARK    5  A    between atoms: N_7  and  C_21
REMARK    6  A    between atoms: C_9  and  C_17
REMARK    7  A    between atoms: C_13  and  C_20
REMARK    8  A    between atoms: C_21  and  C_26
REMARK                            x       y       z     vdW  Elec       q    Type
REMARK                         _______ _______ _______ _____ _____    ______ ____
ROOT
ATOM      5  N   UNL     1      14.730   8.954  19.375  0.00  0.00    -0.274 NA
ATOM      6  N   UNL     1      17.931   8.649  21.316  0.00  0.00    -0.356 N 
ATOM      8  C   UNL     1      15.602   9.355  20.520  0.00  0.00    +0.106 C 
ATOM      9  C   UNL     1      13.517   9.805  19.273  0.00  0.00    +0.093 C 
ATOM     10  C   UNL     1      16.029  10.826  20.389  0.00  0.00    +0.044 C 
ATOM     11  C   UNL     1      14.802  11.735  20.330  0.00  0.00    +0.057 C 
ATOM     12  C   UNL     1      13.896  11.303  19.179  0.00  0.00    +0.042 C 
ATOM     13  C   UNL     1      14.469   7.488  19.332  0.00  0.00    +0.172 C 
ATOM     14  C   UNL     1      16.787   8.440  20.598  0.00  0.00    +0.038 A 
ATOM     15  C   UNL     1      15.767   6.657  19.170  0.00  0.00    +0.068 C 
ATOM     16  C   UNL     1      16.874   7.199  20.004  0.00  0.00    -0.016 A 
ATOM     18  C   UNL     1      18.137   6.643  20.345  0.00  0.00    +0.003 A 
ATOM     19  C   UNL     1      18.780   7.573  21.167  0.00  0.00    +0.047 A 
ATOM     24  C   UNL     1      18.799   5.436  20.040  0.00  0.00    +0.010 A 
ATOM     25  C   UNL     1      20.057   7.355  21.698  0.00  0.00    +0.026 A 
ATOM     27  C   UNL     1      20.076   5.207  20.564  0.00  0.00    +0.001 A 
ATOM     30  C   UNL     1      20.694   6.153  21.380  0.00  0.00    +0.002 A 
ATOM     33  H   UNL     1      18.133   9.469  21.872  0.00  0.00    +0.166 HD
ENDROOT
BRANCH   9  17
ATOM      1  F   UNL     1      10.872   8.789  19.526  0.00  0.00    -0.205 F 
ATOM     17  C   UNL     1      12.624   9.479  18.079  0.00  0.00    +0.005 A 
ATOM     22  C   UNL     1      11.336   8.983  18.283  0.00  0.00    +0.128 A 
ATOM     23  C   UNL     1      13.097   9.678  16.783  0.00  0.00    +0.008 A 
ATOM     28  C   UNL     1      10.522   8.687  17.191  0.00  0.00    +0.038 A 
ATOM     29  C   UNL     1      12.283   9.381  15.690  0.00  0.00    +0.000 A 
ATOM     31  C   UNL     1      10.995   8.886  15.894  0.00  0.00    +0.003 A 
ENDBRANCH   9  17
BRANCH  13  20
ATOM      3  O   UNL     1      14.053   7.285  21.698  0.00  0.00    -0.249 OA
ATOM     20  C   UNL     1      13.702   7.054  20.549  0.00  0.00    +0.325 C 
BRANCH  20   2
ATOM      2  O   UNL     1      12.582   6.378  20.165  0.00  0.00    -0.467 OA
ATOM     32  C   UNL     1      11.599   6.186  21.187  0.00  0.00    +0.280 C 
ENDBRANCH  20   2
ENDBRANCH  13  20
BRANCH  11   7
ATOM      7  N   UNL     1      15.216  13.129  20.172  0.00  0.00    -0.311 NA
ATOM     34  H   UNL     1      14.560  13.618  19.563  0.00  0.00    +0.122 HD
BRANCH   7  21
ATOM     21  C   UNL     1      16.546  13.210  19.589  0.00  0.00    +0.109 C 
BRANCH  21  26
ATOM     26  C   UNL     1      16.520  14.020  18.303  0.00  0.00    +0.171 C 
BRANCH  26   4
ATOM      4  O   UNL     1      15.180  14.412  18.036  0.00  0.00    -0.394 OA
ATOM     35  H   UNL     1      14.656  14.189  18.823  0.00  0.00    +0.209 HD
ENDBRANCH  26   4
ENDBRANCH  21  26
ENDBRANCH   7  21
ENDBRANCH  11   7
TORSDOF 7
ENDMDL
MODEL 4
REMARK VINA RESULT:      -6.7      2.820      5.234
REMARK  Name = 25389730
REMARK  8 active torsions:
REMARK  status: ('A' for Active; 'I' for Inactive)
REMARK    1  A    between atoms: O_2  and  C_20
REMARK    2  A    between atoms: O_2  and  C_32
REMARK    3  A    between atoms: O_4  and  C_26
REMARK    4  A    between atoms: N_7  and  C_11
REMARK    5  A    between atoms: N_7  and  C_21
REMARK    6  A    between atoms: C_9  and  C_17
REMARK    7  A    between atoms: C_13  and  C_20
REMARK    8  A    between atoms: C_21  and  C_26
REMARK                            x       y       z     vdW  Elec       q    Type
REMARK                         _______ _______ _______ _____ _____    ______ ____
ROOT
ATOM      5  N   UNL     1      13.037  11.526  22.058  0.00  0.00    -0.274 NA
ATOM      6  N   UNL     1      15.668   8.858  22.317  0.00  0.00    -0.356 N 
ATOM      8  C   UNL     1      13.955  10.678  22.877  0.00  0.00    +0.106 C 
ATOM      9  C   UNL     1      12.357  12.562  22.877  0.00  0.00    +0.093 C 
ATOM     10  C   UNL     1      15.016  11.543  23.576  0.00  0.00    +0.044 C 
ATOM     11  C   UNL     1      14.349  12.590  24.467  0.00  0.00    +0.057 C 
ATOM     12  C   UNL     1      13.387  13.435  23.635  0.00  0.00    +0.042 C 
ATOM     13  C   UNL     1      12.132  10.726  21.187  0.00  0.00    +0.172 C 
ATOM     14  C   UNL     1      14.582   9.629  22.008  0.00  0.00    +0.038 A 
ATOM     15  C   UNL     1      12.906   9.856  20.165  0.00  0.00    +0.068 C 
ATOM     16  C   UNL     1      14.108   9.228  20.777  0.00  0.00    -0.016 A 
ATOM     18  C   UNL     1      14.960   8.195  20.300  0.00  0.00    +0.003 A 
ATOM     19  C   UNL     1      15.930   7.984  21.284  0.00  0.00    +0.047 A 
ATOM     24  C   UNL     1      15.002   7.412  19.128  0.00  0.00    +0.010 A 
ATOM     25  C   UNL     1      16.944   7.026  21.152  0.00  0.00    +0.026 A 
ATOM     27  C   UNL     1      16.011   6.453  18.983  0.00  0.00    +0.001 A 
ATOM     30  C   UNL     1      16.966   6.265  19.981  0.00  0.00    +0.002 A 
ATOM     33  H   UNL     1      16.205   8.917  23.171  0.00  0.00    +0.166 HD
ENDROOT
BRANCH   9  17
ATOM      1  F   UNL     1       9.751  13.331  23.722  0.00  0.00    -0.205 F 
ATOM     17  C   UNL     1      11.456  13.499  22.078  0.00  0.00    +0.005 A 
ATOM     22  C   UNL     1      10.189  13.831  22.557  0.00  0.00    +0.128 A 
ATOM     23  C   UNL     1      11.903  14.024  20.865  0.00  0.00    +0.008 A 
ATOM     28  C   UNL     1       9.369  14.687  21.824  0.00  0.00    +0.038 A 
ATOM     29  C   UNL     1      11.082  14.881  20.133  0.00  0.00    +0.000 A 
ATOM     31  C   UNL     1       9.815  15.213  20.612  0.00  0.00    +0.003 A 
ENDBRANCH   9  17
BRANCH  13  20
ATOM      3  O   UNL     1      10.859  10.170  23.158  0.00  0.00    -0.249 OA
ATOM     20  C   UNL     1      11.209   9.883  22.020  0.00  0.00    +0.325 C 
BRANCH  20   2
ATOM      2  O   UNL     1      10.841   8.776  21.314  0.00  0.00    -0.467 OA
ATOM     32  C   UNL     1      10.616   7.597  22.093  0.00  0.00    +0.280 C 
ENDBRANCH  20   2
ENDBRANCH  13  20
BRANCH  11   7
ATOM      7  N   UNL     1      15.364  13.429  25.103  0.00  0.00    -0.311 NA
ATOM     34  H   UNL     1      16.249  12.924  25.154  0.00  0.00    +0.122 HD
BRANCH   7  21
ATOM     21  C   UNL     1      14.957  13.800  26.449  0.00  0.00    +0.109 C 
BRANCH  21  26
ATOM     26  C   UNL     1      14.827  12.568  27.330  0.00  0.00    +0.171 C 
BRANCH  26   4
ATOM      4  O   UNL     1      13.991  12.883  28.436  0.00  0.00    -0.394 OA
ATOM     35  H   UNL     1      14.535  12.801  29.237  0.00  0.00    +0.209 HD
ENDBRANCH  26   4
ENDBRANCH  21  26
ENDBRANCH   7  21
ENDBRANCH  11   7
TORSDOF 7
ENDMDL
MODEL 5
REMARK VINA RESULT:      -6.6      3.043      6.025
REMARK  Name = 25389730
REMARK  8 active torsions:
REMARK  status: ('A' for Active; 'I' for Inactive)
REMARK    1  A    between atoms: O_2  and  C_20
REMARK    2  A    between atoms: O_2  and  C_32
REMARK    3  A    between atoms: O_4  and  C_26
REMARK    4  A    between atoms: N_7  and  C_11
REMARK    5  A    between atoms: N_7  and  C_21
REMARK    6  A    between atoms: C_9  and  C_17
REMARK    7  A    between atoms: C_13  and  C_20
REMARK    8  A    between atoms: C_21  and  C_26
REMARK                            x       y       z     vdW  Elec       q    Type
REMARK                         _______ _______ _______ _____ _____    ______ ____
ROOT
ATOM      5  N   UNL     1      13.737   9.983  20.006  0.00  0.00    -0.274 NA
ATOM      6  N   UNL     1      15.102  10.709  23.430  0.00  0.00    -0.356 N 
ATOM      8  C   UNL     1      14.876  10.019  20.974  0.00  0.00    +0.106 C 
ATOM      9  C   UNL     1      14.114   9.330  18.727  0.00  0.00    +0.093 C 
ATOM     10  C   UNL     1      15.387   8.600  21.265  0.00  0.00    +0.044 C 
ATOM     11  C   UNL     1      15.830   7.915  19.972  0.00  0.00    +0.057 C 
ATOM     12  C   UNL     1      14.675   7.908  18.973  0.00  0.00    +0.042 C 
ATOM     13  C   UNL     1      13.061  11.302  19.859  0.00  0.00    +0.172 C 
ATOM     14  C   UNL     1      14.450  10.722  22.228  0.00  0.00    +0.038 A 
ATOM     15  C   UNL     1      12.452  11.811  21.190  0.00  0.00    +0.068 C 
ATOM     16  C   UNL     1      13.359  11.556  22.341  0.00  0.00    -0.016 A 
ATOM     18  C   UNL     1      13.324  12.045  23.676  0.00  0.00    +0.003 A 
ATOM     19  C   UNL     1      14.427  11.497  24.337  0.00  0.00    +0.047 A 
ATOM     24  C   UNL     1      12.464  12.904  24.390  0.00  0.00    +0.010 A 
ATOM     25  C   UNL     1      14.712  11.766  25.681  0.00  0.00    +0.026 A 
ATOM     27  C   UNL     1      12.737  13.180  25.735  0.00  0.00    +0.001 A 
ATOM     30  C   UNL     1      13.844  12.619  26.368  0.00  0.00    +0.002 A 
ATOM     33  H   UNL     1      15.951  10.198  23.631  0.00  0.00    +0.166 HD
ENDROOT
BRANCH   9  17
ATOM      1  F   UNL     1      11.603   8.149  19.355  0.00  0.00    -0.205 F 
ATOM     17  C   UNL     1      12.968   9.208  17.726  0.00  0.00    +0.005 A 
ATOM     22  C   UNL     1      11.764   8.616  18.109  0.00  0.00    +0.128 A 
ATOM     23  C   UNL     1      13.127   9.691  16.428  0.00  0.00    +0.008 A 
ATOM     28  C   UNL     1      10.719   8.507  17.192  0.00  0.00    +0.038 A 
ATOM     29  C   UNL     1      12.081   9.582  15.511  0.00  0.00    +0.000 A 
ATOM     31  C   UNL     1      10.877   8.990  15.893  0.00  0.00    +0.003 A 
ENDBRANCH   9  17
BRANCH  13  20
ATOM      3  O   UNL     1      15.088  12.604  19.771  0.00  0.00    -0.249 OA
ATOM     20  C   UNL     1      14.006  12.316  19.278  0.00  0.00    +0.325 C 
BRANCH  20   2
ATOM      2  O   UNL     1      13.466  12.845  18.143  0.00  0.00    -0.467 OA
ATOM     32  C   UNL     1      14.397  13.128  17.094  0.00  0.00    +0.280 C 
ENDBRANCH  20   2
ENDBRANCH  13  20
BRANCH  11   7
ATOM      7  N   UNL     1      16.284   6.554  20.253  0.00  0.00    -0.311 NA
ATOM     34  H   UNL     1      16.007   6.285  21.198  0.00  0.00    +0.122 HD
BRANCH   7  21
ATOM     21  C   UNL     1      17.731   6.460  20.145  0.00  0.00    +0.109 C 
BRANCH  21  26
ATOM     26  C   UNL     1      18.126   5.404  19.126  0.00  0.00    +0.171 C 
BRANCH  26   4
ATOM      4  O   UNL     1      17.045   5.212  18.224  0.00  0.00    -0.394 OA
ATOM     35  H   UNL     1      16.265   4.986  18.757  0.00  0.00    +0.209 HD
ENDBRANCH  26   4
ENDBRANCH  21  26
ENDBRANCH   7  21
ENDBRANCH  11   7
TORSDOF 7
ENDMDL
MODEL 6
REMARK VINA RESULT:      -6.4     17.682     19.696
REMARK  Name = 25389730
REMARK  8 active torsions:
REMARK  status: ('A' for Active; 'I' for Inactive)
REMARK    1  A    between atoms: O_2  and  C_20
REMARK    2  A    between atoms: O_2  and  C_32
REMARK    3  A    between atoms: O_4  and  C_26
REMARK    4  A    between atoms: N_7  and  C_11
REMARK    5  A    between atoms: N_7  and  C_21
REMARK    6  A    between atoms: C_9  and  C_17
REMARK    7  A    between atoms: C_13  and  C_20
REMARK    8  A    between atoms: C_21  and  C_26
REMARK                            x       y       z     vdW  Elec       q    Type
REMARK                         _______ _______ _______ _____ _____    ______ ____
ROOT
ATOM      5  N   UNL     1       9.474   7.475   3.820  0.00  0.00    -0.274 NA
ATOM      6  N   UNL     1       6.660   9.804   4.696  0.00  0.00    -0.356 N 
ATOM      8  C   UNL     1       8.810   8.416   4.773  0.00  0.00    +0.106 C 
ATOM      9  C   UNL     1      10.643   6.795   4.432  0.00  0.00    +0.093 C 
ATOM     10  C   UNL     1       8.356   7.675   6.040  0.00  0.00    +0.044 C 
ATOM     11  C   UNL     1       9.546   7.003   6.723  0.00  0.00    +0.057 C 
ATOM     12  C   UNL     1      10.242   6.066   5.737  0.00  0.00    +0.042 C 
ATOM     13  C   UNL     1       9.734   8.089   2.488  0.00  0.00    +0.172 C 
ATOM     14  C   UNL     1       7.664   9.101   4.092  0.00  0.00    +0.038 A 
ATOM     15  C   UNL     1       8.434   8.544   1.778  0.00  0.00    +0.068 C 
ATOM     16  C   UNL     1       7.485   9.185   2.727  0.00  0.00    -0.016 A 
ATOM     18  C   UNL     1       6.305   9.941   2.491  0.00  0.00    +0.003 A 
ATOM     19  C   UNL     1       5.806  10.315   3.742  0.00  0.00    +0.047 A 
ATOM     24  C   UNL     1       5.609  10.349   1.335  0.00  0.00    +0.010 A 
ATOM     25  C   UNL     1       4.643  11.079   3.893  0.00  0.00    +0.026 A 
ATOM     27  C   UNL     1       4.444  11.112   1.472  0.00  0.00    +0.001 A 
ATOM     30  C   UNL     1       3.970  11.470   2.733  0.00  0.00    +0.002 A 
ATOM     33  H   UNL     1       6.551   9.932   5.693  0.00  0.00    +0.166 HD
ENDROOT
BRANCH   9  17
ATOM      1  F   UNL     1      13.164   7.231   3.185  0.00  0.00    -0.205 F 
ATOM     17  C   UNL     1      11.319   5.774   3.521  0.00  0.00    +0.005 A 
ATOM     22  C   UNL     1      12.557   6.059   2.945  0.00  0.00    +0.128 A 
ATOM     23  C   UNL     1      10.696   4.552   3.266  0.00  0.00    +0.008 A 
ATOM     28  C   UNL     1      13.172   5.124   2.114  0.00  0.00    +0.038 A 
ATOM     29  C   UNL     1      11.311   3.616   2.434  0.00  0.00    +0.000 A 
ATOM     31  C   UNL     1      12.549   3.902   1.858  0.00  0.00    +0.003 A 
ENDBRANCH   9  17
BRANCH  13  20
ATOM      3  O   UNL     1      11.162   9.624   3.680  0.00  0.00    -0.249 OA
ATOM     20  C   UNL     1      10.704   9.229   2.615  0.00  0.00    +0.325 C 
BRANCH  20   2
ATOM      2  O   UNL     1      10.978   9.735   1.379  0.00  0.00    -0.467 OA
ATOM     32  C   UNL     1      11.957   9.014   0.623  0.00  0.00    +0.280 C 
ENDBRANCH  20   2
ENDBRANCH  13  20
BRANCH  11   7
ATOM      7  N   UNL     1       9.100   6.273   7.909  0.00  0.00    -0.311 NA
ATOM     34  H   UNL     1       9.049   6.907   8.707  0.00  0.00    +0.122 HD
BRANCH   7  21
ATOM     21  C   UNL     1      10.022   5.194   8.228  0.00  0.00    +0.109 C 
BRANCH  21  26
ATOM     26  C   UNL     1       9.481   4.344   9.366  0.00  0.00    +0.171 C 
BRANCH  26   4
ATOM      4  O   UNL     1      10.214   4.640  10.547  0.00  0.00    -0.394 OA
ATOM     35  H   UNL     1       9.828   5.446  10.928  0.00  0.00    +0.209 HD
ENDBRANCH  26   4
ENDBRANCH  21  26
ENDBRANCH   7  21
ENDBRANCH  11   7
TORSDOF 7
ENDMDL
MODEL 7
REMARK VINA RESULT:      -6.4     16.939     18.002
REMARK  Name = 25389730
REMARK  8 active torsions:
REMARK  status: ('A' for Active; 'I' for Inactive)
REMARK    1  A    between atoms: O_2  and  C_20
REMARK    2  A    between atoms: O_2  and  C_32
REMARK    3  A    between atoms: O_4  and  C_26
REMARK    4  A    between atoms: N_7  and  C_11
REMARK    5  A    between atoms: N_7  and  C_21
REMARK    6  A    between atoms: C_9  and  C_17
REMARK    7  A    between atoms: C_13  and  C_20
REMARK    8  A    between atoms: C_21  and  C_26
REMARK                            x       y       z     vdW  Elec       q    Type
REMARK                         _______ _______ _______ _____ _____    ______ ____
ROOT
ATOM      5  N   UNL     1      10.620   7.389   4.703  0.00  0.00    -0.274 NA
ATOM      6  N   UNL     1      11.722   4.336   2.812  0.00  0.00    -0.356 N 
ATOM      8  C   UNL     1      10.407   5.971   4.280  0.00  0.00    +0.106 C 
ATOM      9  C   UNL     1       9.622   7.824   5.713  0.00  0.00    +0.093 C 
ATOM     10  C   UNL     1      10.471   5.027   5.490  0.00  0.00    +0.044 C 
ATOM     11  C   UNL     1       9.421   5.419   6.530  0.00  0.00    +0.057 C 
ATOM     12  C   UNL     1       9.620   6.877   6.937  0.00  0.00    +0.042 C 
ATOM     13  C   UNL     1      10.789   8.318   3.551  0.00  0.00    +0.172 C 
ATOM     14  C   UNL     1      11.415   5.599   3.235  0.00  0.00    +0.038 A 
ATOM     15  C   UNL     1      12.017   7.962   2.675  0.00  0.00    +0.068 C 
ATOM     16  C   UNL     1      12.146   6.493   2.481  0.00  0.00    -0.016 A 
ATOM     18  C   UNL     1      12.957   5.743   1.586  0.00  0.00    +0.003 A 
ATOM     19  C   UNL     1      12.673   4.394   1.816  0.00  0.00    +0.047 A 
ATOM     24  C   UNL     1      13.905   6.077   0.597  0.00  0.00    +0.010 A 
ATOM     25  C   UNL     1      13.293   3.360   1.104  0.00  0.00    +0.026 A 
ATOM     27  C   UNL     1      14.534   5.052  -0.120  0.00  0.00    +0.001 A 
ATOM     30  C   UNL     1      14.231   3.715   0.131  0.00  0.00    +0.002 A 
ATOM     33  H   UNL     1      11.319   3.483   3.174  0.00  0.00    +0.166 HD
ENDROOT
BRANCH   9  17
ATOM      1  F   UNL     1       7.764   9.938   5.295  0.00  0.00    -0.205 F 
ATOM     17  C   UNL     1       9.834   9.245   6.228  0.00  0.00    +0.005 A 
ATOM     22  C   UNL     1       8.877  10.229   5.984  0.00  0.00    +0.128 A 
ATOM     23  C   UNL     1      10.989   9.558   6.945  0.00  0.00    +0.008 A 
ATOM     28  C   UNL     1       9.074  11.527   6.456  0.00  0.00    +0.038 A 
ATOM     29  C   UNL     1      11.185  10.856   7.419  0.00  0.00    +0.000 A 
ATOM     31  C   UNL     1      10.228  11.840   7.174  0.00  0.00    +0.003 A 
ENDBRANCH   9  17
BRANCH  13  20
ATOM      3  O   UNL     1       8.470   7.870   3.068  0.00  0.00    -0.249 OA
ATOM     20  C   UNL     1       9.536   8.365   2.725  0.00  0.00    +0.325 C 
BRANCH  20   2
ATOM      2  O   UNL     1       9.782   9.032   1.561  0.00  0.00    -0.467 OA
ATOM     32  C   UNL     1       9.134   8.502   0.400  0.00  0.00    +0.280 C 
ENDBRANCH  20   2
ENDBRANCH  13  20
BRANCH  11   7
ATOM      7  N   UNL     1       9.510   4.536   7.692  0.00  0.00    -0.311 NA
ATOM     34  H   UNL     1       8.645   4.003   7.790  0.00  0.00    +0.122 HD
BRANCH   7  21
ATOM     21  C   UNL     1       9.726   5.304   8.908  0.00  0.00    +0.109 C 
BRANCH  21  26
ATOM     26  C   UNL     1       9.065   4.626  10.097  0.00  0.00    +0.171 C 
BRANCH  26   4
ATOM      4  O   UNL     1      10.073   4.234  11.019  0.00  0.00    -0.394 OA
ATOM     35  H   UNL     1       9.634   3.732  11.726  0.00  0.00    +0.209 HD
ENDBRANCH  26   4
ENDBRANCH  21  26
ENDBRANCH   7  21
ENDBRANCH  11   7
TORSDOF 7
ENDMDL
MODEL 8
REMARK VINA RESULT:      -6.4     28.094     29.860
REMARK  Name = 25389730
REMARK  8 active torsions:
REMARK  status: ('A' for Active; 'I' for Inactive)
REMARK    1  A    between atoms: O_2  and  C_20
REMARK    2  A    between atoms: O_2  and  C_32
REMARK    3  A    between atoms: O_4  and  C_26
REMARK    4  A    between atoms: N_7  and  C_11
REMARK    5  A    between atoms: N_7  and  C_21
REMARK    6  A    between atoms: C_9  and  C_17
REMARK    7  A    between atoms: C_13  and  C_20
REMARK    8  A    between atoms: C_21  and  C_26
REMARK                            x       y       z     vdW  Elec       q    Type
REMARK                         _______ _______ _______ _____ _____    ______ ____
ROOT
ATOM      5  N   UNL     1      -7.588  -9.912  15.241  0.00  0.00    -0.274 NA
ATOM      6  N   UNL     1      -4.259 -10.566  13.630  0.00  0.00    -0.356 N 
ATOM      8  C   UNL     1      -6.298 -10.665  15.175  0.00  0.00    +0.106 C 
ATOM      9  C   UNL     1      -8.370 -10.253  16.457  0.00  0.00    +0.093 C 
ATOM     10  C   UNL     1      -5.441 -10.385  16.420  0.00  0.00    +0.044 C 
ATOM     11  C   UNL     1      -6.200 -10.771  17.689  0.00  0.00    +0.057 C 
ATOM     12  C   UNL     1      -7.532 -10.026  17.738  0.00  0.00    +0.042 C 
ATOM     13  C   UNL     1      -8.357  -9.970  13.967  0.00  0.00    +0.172 C 
ATOM     14  C   UNL     1      -5.571 -10.310  13.912  0.00  0.00    +0.038 A 
ATOM     15  C   UNL     1      -7.583  -9.352  12.776  0.00  0.00    +0.068 C 
ATOM     16  C   UNL     1      -6.144  -9.728  12.802  0.00  0.00    -0.016 A 
ATOM     18  C   UNL     1      -5.131  -9.591  11.814  0.00  0.00    +0.003 A 
ATOM     19  C   UNL     1      -3.958 -10.123  12.360  0.00  0.00    +0.047 A 
ATOM     24  C   UNL     1      -5.093  -9.070  10.504  0.00  0.00    +0.010 A 
ATOM     25  C   UNL     1      -2.747 -10.158  11.658  0.00  0.00    +0.026 A 
ATOM     27  C   UNL     1      -3.888  -9.097   9.793  0.00  0.00    +0.001 A 
ATOM     30  C   UNL     1      -2.734  -9.633  10.362  0.00  0.00    +0.002 A 
ATOM     33  H   UNL     1      -3.599 -11.010  14.254  0.00  0.00    +0.166 HD
ENDROOT
BRANCH   9  17
ATOM      1  F   UNL     1     -10.938 -11.470  16.591  0.00  0.00    -0.205 F 
ATOM     17  C   UNL     1      -9.667  -9.464  16.607  0.00  0.00    +0.005 A 
ATOM     22  C   UNL     1     -10.890 -10.132  16.666  0.00  0.00    +0.128 A 
ATOM     23  C   UNL     1      -9.628  -8.072  16.685  0.00  0.00    +0.008 A 
ATOM     28  C   UNL     1     -12.074  -9.408  16.803  0.00  0.00    +0.038 A 
ATOM     29  C   UNL     1     -10.812  -7.348  16.823  0.00  0.00    +0.000 A 
ATOM     31  C   UNL     1     -12.035  -8.016  16.882  0.00  0.00    +0.003 A 
ENDBRANCH   9  17
BRANCH  13  20
ATOM      3  O   UNL     1      -7.985 -12.313  13.538  0.00  0.00    -0.249 OA
ATOM     20  C   UNL     1      -8.770 -11.382  13.665  0.00  0.00    +0.325 C 
BRANCH  20   2
ATOM      2  O   UNL     1     -10.128 -11.448  13.557  0.00  0.00    -0.467 OA
ATOM     32  C   UNL     1     -10.635 -11.524  12.221  0.00  0.00    +0.280 C 
ENDBRANCH  20   2
ENDBRANCH  13  20
BRANCH  11   7
ATOM      7  N   UNL     1      -5.391 -10.472  18.870  0.00  0.00    -0.311 NA
ATOM     34  H   UNL     1      -4.498 -10.068  18.584  0.00  0.00    +0.122 HD
BRANCH   7  21
ATOM     21  C   UNL     1      -5.134 -11.678  19.640  0.00  0.00    +0.109 C 
BRANCH  21  26
ATOM     26  C   UNL     1      -3.997 -12.477  19.025  0.00  0.00    +0.171 C 
BRANCH  26   4
ATOM      4  O   UNL     1      -2.781 -12.106  19.660  0.00  0.00    -0.394 OA
ATOM     35  H   UNL     1      -2.744 -12.581  20.507  0.00  0.00    +0.209 HD
ENDBRANCH  26   4
ENDBRANCH  21  26
ENDBRANCH   7  21
ENDBRANCH  11   7
TORSDOF 7
ENDMDL
MODEL 9
REMARK VINA RESULT:      -6.2     16.332     17.552
REMARK  Name = 25389730
REMARK  8 active torsions:
REMARK  status: ('A' for Active; 'I' for Inactive)
REMARK    1  A    between atoms: O_2  and  C_20
REMARK    2  A    between atoms: O_2  and  C_32
REMARK    3  A    between atoms: O_4  and  C_26
REMARK    4  A    between atoms: N_7  and  C_11
REMARK    5  A    between atoms: N_7  and  C_21
REMARK    6  A    between atoms: C_9  and  C_17
REMARK    7  A    between atoms: C_13  and  C_20
REMARK    8  A    between atoms: C_21  and  C_26
REMARK                            x       y       z     vdW  Elec       q    Type
REMARK                         _______ _______ _______ _____ _____    ______ ____
ROOT
ATOM      5  N   UNL     1      10.183   7.912   5.492  0.00  0.00    -0.274 NA
ATOM      6  N   UNL     1       9.966   5.236   2.865  0.00  0.00    -0.356 N 
ATOM      8  C   UNL     1       9.677   6.587   5.022  0.00  0.00    +0.106 C 
ATOM      9  C   UNL     1       9.849   8.162   6.917  0.00  0.00    +0.093 C 
ATOM     10  C   UNL     1      10.253   5.450   5.880  0.00  0.00    +0.044 C 
ATOM     11  C   UNL     1       9.885   5.650   7.349  0.00  0.00    +0.057 C 
ATOM     12  C   UNL     1      10.375   7.019   7.819  0.00  0.00    +0.042 C 
ATOM     13  C   UNL     1       9.837   9.026   4.565  0.00  0.00    +0.172 C 
ATOM     14  C   UNL     1      10.008   6.406   3.570  0.00  0.00    +0.038 A 
ATOM     15  C   UNL     1      10.443   8.834   3.152  0.00  0.00    +0.068 C 
ATOM     16  C   UNL     1      10.342   7.421   2.698  0.00  0.00    -0.016 A 
ATOM     18  C   UNL     1      10.545   6.841   1.417  0.00  0.00    +0.003 A 
ATOM     19  C   UNL     1      10.305   5.470   1.550  0.00  0.00    +0.047 A 
ATOM     24  C   UNL     1      10.908   7.345   0.151  0.00  0.00    +0.010 A 
ATOM     25  C   UNL     1      10.411   4.577   0.476  0.00  0.00    +0.026 A 
ATOM     27  C   UNL     1      11.018   6.463  -0.930  0.00  0.00    +0.001 A 
ATOM     30  C   UNL     1      10.773   5.101  -0.768  0.00  0.00    +0.002 A 
ATOM     33  H   UNL     1       9.726   4.331   3.245  0.00  0.00    +0.166 HD
ENDROOT
BRANCH   9  17
ATOM      1  F   UNL     1      12.608   8.856   6.850  0.00  0.00    -0.205 F 
ATOM     17  C   UNL     1      10.400   9.475   7.467  0.00  0.00    +0.005 A 
ATOM     22  C   UNL     1      11.767   9.745   7.398  0.00  0.00    +0.128 A 
ATOM     23  C   UNL     1       9.533  10.405   8.040  0.00  0.00    +0.008 A 
ATOM     28  C   UNL     1      12.266  10.946   7.901  0.00  0.00    +0.038 A 
ATOM     29  C   UNL     1      10.033  11.606   8.542  0.00  0.00    +0.000 A 
ATOM     31  C   UNL     1      11.400  11.877   8.473  0.00  0.00    +0.003 A 
ENDBRANCH   9  17
BRANCH  13  20
ATOM      3  O   UNL     1       7.576   8.358   4.062  0.00  0.00    -0.249 OA
ATOM     20  C   UNL     1       8.348   9.205   4.491  0.00  0.00    +0.325 C 
BRANCH  20   2
ATOM      2  O   UNL     1       8.012  10.438   4.969  0.00  0.00    -0.467 OA
ATOM     32  C   UNL     1       6.880  11.052   4.345  0.00  0.00    +0.280 C 
ENDBRANCH  20   2
ENDBRANCH  13  20
BRANCH  11   7
ATOM      7  N   UNL     1      10.464   4.582   8.163  0.00  0.00    -0.311 NA
ATOM     34  H   UNL     1      10.991   3.941   7.570  0.00  0.00    +0.122 HD
BRANCH   7  21
ATOM     21  C   UNL     1       9.423   3.835   8.851  0.00  0.00    +0.109 C 
BRANCH  21  26
ATOM     26  C   UNL     1       9.040   4.520  10.153  0.00  0.00    +0.171 C 
BRANCH  26   4
ATOM      4  O   UNL     1      10.204   4.656  10.958  0.00  0.00    -0.394 OA
ATOM     35  H   UNL     1      10.862   5.138  10.429  0.00  0.00    +0.209 HD
ENDBRANCH  26   4
ENDBRANCH  21  26
ENDBRANCH   7  21
ENDBRANCH  11   7
TORSDOF 7
ENDMDL
MODEL 10
REMARK VINA RESULT:      -6.2     28.363     30.998
REMARK  Name = 25389730
REMARK  8 active torsions:
REMARK  status: ('A' for Active; 'I' for Inactive)
REMARK    1  A    between atoms: O_2  and  C_20
REMARK    2  A    between atoms: O_2  and  C_32
REMARK    3  A    between atoms: O_4  and  C_26
REMARK    4  A    between atoms: N_7  and  C_11
REMARK    5  A    between atoms: N_7  and  C_21
REMARK    6  A    between atoms: C_9  and  C_17
REMARK    7  A    between atoms: C_13  and  C_20
REMARK    8  A    between atoms: C_21  and  C_26
REMARK                            x       y       z     vdW  Elec       q    Type
REMARK                         _______ _______ _______ _____ _____    ______ ____
ROOT
ATOM      5  N   UNL     1      -9.864  -9.706  17.449  0.00  0.00    -0.274 NA
ATOM      6  N   UNL     1      -7.237 -11.749  19.190  0.00  0.00    -0.356 N 
ATOM      8  C   UNL     1      -9.471 -10.870  18.300  0.00  0.00    +0.106 C 
ATOM      9  C   UNL     1     -11.339  -9.552  17.363  0.00  0.00    +0.093 C 
ATOM     10  C   UNL     1     -10.046 -10.726  19.717  0.00  0.00    +0.044 C 
ATOM     11  C   UNL     1     -11.570 -10.614  19.668  0.00  0.00    +0.057 C 
ATOM     12  C   UNL     1     -11.970  -9.443  18.772  0.00  0.00    +0.042 C 
ATOM     13  C   UNL     1      -9.156  -9.681  16.139  0.00  0.00    +0.172 C 
ATOM     14  C   UNL     1      -7.978 -11.000  18.319  0.00  0.00    +0.038 A 
ATOM     15  C   UNL     1      -7.618  -9.574  16.296  0.00  0.00    +0.068 C 
ATOM     16  C   UNL     1      -7.118 -10.432  17.404  0.00  0.00    -0.016 A 
ATOM     18  C   UNL     1      -5.796 -10.821  17.752  0.00  0.00    +0.003 A 
ATOM     19  C   UNL     1      -5.899 -11.645  18.876  0.00  0.00    +0.047 A 
ATOM     24  C   UNL     1      -4.517 -10.558  17.220  0.00  0.00    +0.010 A 
ATOM     25  C   UNL     1      -4.783 -12.220  19.496  0.00  0.00    +0.026 A 
ATOM     27  C   UNL     1      -3.393 -11.124  17.832  0.00  0.00    +0.001 A 
ATOM     30  C   UNL     1      -3.526 -11.942  18.952  0.00  0.00    +0.002 A 
ATOM     33  H   UNL     1      -7.608 -12.297  19.955  0.00  0.00    +0.166 HD
ENDROOT
BRANCH   9  17
ATOM      1  F   UNL     1     -13.440  -9.638  15.446  0.00  0.00    -0.205 F 
ATOM     17  C   UNL     1     -11.794  -8.337  16.558  0.00  0.00    +0.005 A 
ATOM     22  C   UNL     1     -12.833  -8.458  15.635  0.00  0.00    +0.128 A 
ATOM     23  C   UNL     1     -11.168  -7.105  16.747  0.00  0.00    +0.008 A 
ATOM     28  C   UNL     1     -13.246  -7.346  14.902  0.00  0.00    +0.038 A 
ATOM     29  C   UNL     1     -11.582  -5.993  16.014  0.00  0.00    +0.000 A 
ATOM     31  C   UNL     1     -12.621  -6.114  15.091  0.00  0.00    +0.003 A 
ENDBRANCH   9  17
BRANCH  13  20
ATOM      3  O   UNL     1      -9.070 -12.002  15.492  0.00  0.00    -0.249 OA
ATOM     20  C   UNL     1      -9.529 -10.881  15.316  0.00  0.00    +0.325 C 
BRANCH  20   2
ATOM      2  O   UNL     1     -10.439 -10.518  14.367  0.00  0.00    -0.467 OA
ATOM     32  C   UNL     1      -9.982  -9.552  13.415  0.00  0.00    +0.280 C 
ENDBRANCH  20   2
ENDBRANCH  13  20
BRANCH  11   7
ATOM      7  N   UNL     1     -12.106 -10.444  21.017  0.00  0.00    -0.311 NA
ATOM     34  H   UNL     1     -11.721 -11.159  21.635  0.00  0.00    +0.122 HD
BRANCH   7  21
ATOM     21  C   UNL     1     -13.556 -10.559  21.015  0.00  0.00    +0.109 C 
BRANCH  21  26
ATOM     26  C   UNL     1     -14.005 -11.710  21.900  0.00  0.00    +0.171 C 
BRANCH  26   4
ATOM      4  O   UNL     1     -12.880 -12.203  22.616  0.00  0.00    -0.394 OA
ATOM     35  H   UNL     1     -12.601 -13.024  22.179  0.00  0.00    +0.209 HD
ENDBRANCH  26   4
ENDBRANCH  21  26
ENDBRANCH   7  21
ENDBRANCH  11   7
TORSDOF 7
ENDMDL
