MODEL 1
REMARK VINA RESULT:      -7.8      0.000      0.000
REMARK  Name = 40533374
REMARK  5 active torsions:
REMARK  status: ('A' for Active; 'I' for Inactive)
REMARK    1  A    between atoms: N_4  and  C_12
REMARK    2  A    between atoms: N_5  and  C_13
REMARK    3  A    between atoms: N_8  and  C_20
REMARK    4  A    between atoms: C_18  and  C_19
REMARK    5  A    between atoms: C_20  and  C_22
REMARK                            x       y       z     vdW  Elec       q    Type
REMARK                         _______ _______ _______ _____ _____    ______ ____
ROOT
ATOM      1  O   UNL     1     -18.439   3.381  25.958  0.00  0.00    -0.370 OA
ATOM      2  O   UNL     1     -16.018   2.470  24.203  0.00  0.00    -0.370 OA
ATOM     10  C   UNL     1     -16.156   2.816  25.593  0.00  0.00    +0.175 C 
ATOM     11  C   UNL     1     -17.154   3.955  25.674  0.00  0.00    +0.171 C 
ATOM     12  C   UNL     1     -16.815   1.676  26.350  0.00  0.00    +0.166 C 
ATOM     13  C   UNL     1     -17.145   4.555  24.289  0.00  0.00    +0.131 C 
ATOM     14  C   UNL     1     -18.298   1.964  26.129  0.00  0.00    +0.190 C 
ATOM     15  C   UNL     1     -16.810   3.365  23.411  0.00  0.00    +0.185 C 
ENDROOT
BRANCH  13   5
ATOM      3  O   UNL     1     -16.915   6.738  22.377  0.00  0.00    -0.253 OA
ATOM      5  N   UNL     1     -16.062   5.565  24.191  0.00  0.00    -0.292 N 
ATOM      8  N   UNL     1     -14.917   7.381  23.366  0.00  0.00    -0.295 N 
ATOM     17  C   UNL     1     -16.045   6.575  23.232  0.00  0.00    +0.300 C 
ATOM     31  H   UNL     1     -15.331   5.556  24.896  0.00  0.00    +0.151 HD
ATOM     32  H   UNL     1     -14.262   7.185  24.117  0.00  0.00    +0.151 HD
BRANCH   8  20
ATOM     20  C   UNL     1     -14.652   8.506  22.499  0.00  0.00    +0.141 C 
BRANCH  20  22
ATOM     22  C   UNL     1     -13.455   8.272  21.624  0.00  0.00    -0.030 A 
ATOM     24  C   UNL     1     -13.028   6.970  21.360  0.00  0.00    +0.005 A 
ATOM     25  C   UNL     1     -12.770   9.355  21.074  0.00  0.00    +0.005 A 
ATOM     28  C   UNL     1     -11.916   6.752  20.546  0.00  0.00    +0.000 A 
ATOM     29  C   UNL     1     -11.658   9.138  20.261  0.00  0.00    +0.000 A 
ATOM     30  C   UNL     1     -11.231   7.836  19.997  0.00  0.00    +0.000 A 
ENDBRANCH  20  22
ENDBRANCH   8  20
ENDBRANCH  13   5
BRANCH  12   4
ATOM      4  N   UNL     1     -16.364   1.640  27.799  0.00  0.00    -0.243 N 
ATOM      6  N   UNL     1     -16.577   0.552  28.557  0.00  0.00    -0.065 NA
ATOM      7  N   UNL     1     -16.081   0.809  29.762  0.00  0.00    -0.128 NA
ATOM     16  C   UNL     1     -15.728   2.621  28.495  0.00  0.00    +0.140 A 
ATOM     18  C   UNL     1     -15.558   2.071  29.742  0.00  0.00    +0.131 A 
BRANCH  18  19
ATOM      9  N   UNL     1     -15.757   3.094  31.852  0.00  0.00    -0.253 NA
ATOM     19  C   UNL     1     -14.931   2.710  30.854  0.00  0.00    +0.092 A 
ATOM     21  C   UNL     1     -13.559   2.904  30.866  0.00  0.00    +0.030 A 
ATOM     23  C   UNL     1     -13.000   3.532  31.972  0.00  0.00    +0.004 A 
ATOM     26  C   UNL     1     -15.179   3.701  32.912  0.00  0.00    +0.111 A 
ATOM     27  C   UNL     1     -13.818   3.942  33.019  0.00  0.00    +0.020 A 
ENDBRANCH  18  19
ENDBRANCH  12   4
TORSDOF 5
ENDMDL
MODEL 2
REMARK VINA RESULT:      -7.5     20.093     22.002
REMARK  Name = 40533374
REMARK  5 active torsions:
REMARK  status: ('A' for Active; 'I' for Inactive)
REMARK    1  A    between atoms: N_4  and  C_12
REMARK    2  A    between atoms: N_5  and  C_13
REMARK    3  A    between atoms: N_8  and  C_20
REMARK    4  A    between atoms: C_18  and  C_19
REMARK    5  A    between atoms: C_20  and  C_22
REMARK                            x       y       z     vdW  Elec       q    Type
REMARK                         _______ _______ _______ _____ _____    ______ ____
ROOT
ATOM      1  O   UNL     1      -4.916 -11.795  10.443  0.00  0.00    -0.370 OA
ATOM      2  O   UNL     1      -3.656  -9.078   9.552  0.00  0.00    -0.370 OA
ATOM     10  C   UNL     1      -4.118  -9.585  10.817  0.00  0.00    +0.175 C 
ATOM     11  C   UNL     1      -5.347 -10.429  10.538  0.00  0.00    +0.171 C 
ATOM     12  C   UNL     1      -3.104 -10.561  11.387  0.00  0.00    +0.166 C 
ATOM     13  C   UNL     1      -5.837  -9.941   9.196  0.00  0.00    +0.131 C 
ATOM     14  C   UNL     1      -3.510 -11.869  10.712  0.00  0.00    +0.190 C 
ATOM     15  C   UNL     1      -4.558  -9.493   8.517  0.00  0.00    +0.185 C 
ENDROOT
BRANCH  13   5
ATOM      3  O   UNL     1      -7.716  -8.809   7.284  0.00  0.00    -0.253 OA
ATOM      5  N   UNL     1      -6.732  -8.774   9.388  0.00  0.00    -0.292 N 
ATOM      8  N   UNL     1      -8.322  -7.202   8.845  0.00  0.00    -0.295 N 
ATOM     17  C   UNL     1      -7.600  -8.308   8.403  0.00  0.00    +0.300 C 
ATOM     31  H   UNL     1      -6.759  -8.333  10.302  0.00  0.00    +0.151 HD
ATOM     32  H   UNL     1      -8.176  -6.871   9.794  0.00  0.00    +0.151 HD
BRANCH   8  20
ATOM     20  C   UNL     1      -9.294  -6.522   8.022  0.00  0.00    +0.141 C 
BRANCH  20  22
ATOM     22  C   UNL     1     -10.228  -5.676   8.838  0.00  0.00    -0.030 A 
ATOM     24  C   UNL     1     -11.183  -6.281   9.655  0.00  0.00    +0.005 A 
ATOM     25  C   UNL     1     -10.141  -4.285   8.779  0.00  0.00    +0.005 A 
ATOM     28  C   UNL     1     -12.051  -5.495  10.414  0.00  0.00    +0.000 A 
ATOM     29  C   UNL     1     -11.009  -3.499   9.538  0.00  0.00    +0.000 A 
ATOM     30  C   UNL     1     -11.964  -4.104  10.354  0.00  0.00    +0.000 A 
ENDBRANCH  20  22
ENDBRANCH   8  20
ENDBRANCH  13   5
BRANCH  12   4
ATOM      4  N   UNL     1      -3.138 -10.570  12.905  0.00  0.00    -0.243 N 
ATOM      6  N   UNL     1      -2.001 -10.514  13.616  0.00  0.00    -0.065 NA
ATOM      7  N   UNL     1      -2.338 -10.536  14.901  0.00  0.00    -0.128 NA
ATOM     16  C   UNL     1      -4.232 -10.630  13.711  0.00  0.00    +0.140 A 
ATOM     18  C   UNL     1      -3.700 -10.607  14.977  0.00  0.00    +0.131 A 
BRANCH  18  19
ATOM      9  N   UNL     1      -5.675 -10.088  16.147  0.00  0.00    -0.253 NA
ATOM     19  C   UNL     1      -4.447 -10.651  16.193  0.00  0.00    +0.092 A 
ATOM     21  C   UNL     1      -3.907 -11.243  17.323  0.00  0.00    +0.030 A 
ATOM     23  C   UNL     1      -4.676 -11.257  18.481  0.00  0.00    +0.004 A 
ATOM     26  C   UNL     1      -6.394 -10.121  17.291  0.00  0.00    +0.111 A 
ATOM     27  C   UNL     1      -5.944 -10.688  18.473  0.00  0.00    +0.020 A 
ENDBRANCH  18  19
ENDBRANCH  12   4
TORSDOF 5
ENDMDL
MODEL 3
REMARK VINA RESULT:      -7.5     18.933     20.898
REMARK  Name = 40533374
REMARK  5 active torsions:
REMARK  status: ('A' for Active; 'I' for Inactive)
REMARK    1  A    between atoms: N_4  and  C_12
REMARK    2  A    between atoms: N_5  and  C_13
REMARK    3  A    between atoms: N_8  and  C_20
REMARK    4  A    between atoms: C_18  and  C_19
REMARK    5  A    between atoms: C_20  and  C_22
REMARK                            x       y       z     vdW  Elec       q    Type
REMARK                         _______ _______ _______ _____ _____    ______ ____
ROOT
ATOM      1  O   UNL     1      -6.496 -12.901  17.319  0.00  0.00    -0.370 OA
ATOM      2  O   UNL     1      -4.860 -10.537  18.544  0.00  0.00    -0.370 OA
ATOM     10  C   UNL     1      -6.061 -10.602  17.755  0.00  0.00    +0.175 C 
ATOM     11  C   UNL     1      -5.881 -11.731  16.758  0.00  0.00    +0.171 C 
ATOM     12  C   UNL     1      -7.229 -11.039  18.621  0.00  0.00    +0.166 C 
ATOM     13  C   UNL     1      -4.386 -11.917  16.674  0.00  0.00    +0.131 C 
ATOM     14  C   UNL     1      -7.111 -12.560  18.569  0.00  0.00    +0.190 C 
ATOM     15  C   UNL     1      -3.920 -11.503  18.056  0.00  0.00    +0.185 C 
ENDROOT
BRANCH  13   5
ATOM      3  O   UNL     1      -2.815 -12.592  14.318  0.00  0.00    -0.253 OA
ATOM      5  N   UNL     1      -3.824 -10.989  15.662  0.00  0.00    -0.292 N 
ATOM      8  N   UNL     1      -2.676 -10.340  13.777  0.00  0.00    -0.295 N 
ATOM     17  C   UNL     1      -3.081 -11.415  14.564  0.00  0.00    +0.300 C 
ATOM     31  H   UNL     1      -4.046 -10.001  15.741  0.00  0.00    +0.151 HD
ATOM     32  H   UNL     1      -2.962  -9.403  14.046  0.00  0.00    +0.151 HD
BRANCH   8  20
ATOM     20  C   UNL     1      -1.892 -10.501  12.575  0.00  0.00    +0.141 C 
BRANCH  20  22
ATOM     22  C   UNL     1      -2.747 -10.498  11.341  0.00  0.00    -0.030 A 
ATOM     24  C   UNL     1      -2.954  -9.311  10.639  0.00  0.00    +0.005 A 
ATOM     25  C   UNL     1      -3.334 -11.683  10.896  0.00  0.00    +0.005 A 
ATOM     28  C   UNL     1      -3.748  -9.308   9.492  0.00  0.00    +0.000 A 
ATOM     29  C   UNL     1      -4.128 -11.681   9.750  0.00  0.00    +0.000 A 
ATOM     30  C   UNL     1      -4.336 -10.493   9.048  0.00  0.00    +0.000 A 
ENDBRANCH  20  22
ENDBRANCH   8  20
ENDBRANCH  13   5
BRANCH  12   4
ATOM      4  N   UNL     1      -8.540 -10.467  18.111  0.00  0.00    -0.243 N 
ATOM      6  N   UNL     1      -9.675 -11.181  18.187  0.00  0.00    -0.065 NA
ATOM      7  N   UNL     1     -10.645 -10.435  17.672  0.00  0.00    -0.128 NA
ATOM     16  C   UNL     1      -8.751  -9.248  17.546  0.00  0.00    +0.140 A 
ATOM     18  C   UNL     1     -10.097  -9.248  17.274  0.00  0.00    +0.131 A 
BRANCH  18  19
ATOM      9  N   UNL     1     -10.074  -7.162  16.184  0.00  0.00    -0.253 NA
ATOM     19  C   UNL     1     -10.823  -8.177  16.670  0.00  0.00    +0.092 A 
ATOM     21  C   UNL     1     -12.206  -8.219  16.607  0.00  0.00    +0.030 A 
ATOM     23  C   UNL     1     -12.863  -7.151  16.008  0.00  0.00    +0.004 A 
ATOM     26  C   UNL     1     -10.747  -6.141  15.609  0.00  0.00    +0.111 A 
ATOM     27  C   UNL     1     -12.127  -6.088  15.497  0.00  0.00    +0.020 A 
ENDBRANCH  18  19
ENDBRANCH  12   4
TORSDOF 5
ENDMDL
MODEL 4
REMARK VINA RESULT:      -7.4      1.745      2.603
REMARK  Name = 40533374
REMARK  5 active torsions:
REMARK  status: ('A' for Active; 'I' for Inactive)
REMARK    1  A    between atoms: N_4  and  C_12
REMARK    2  A    between atoms: N_5  and  C_13
REMARK    3  A    between atoms: N_8  and  C_20
REMARK    4  A    between atoms: C_18  and  C_19
REMARK    5  A    between atoms: C_20  and  C_22
REMARK                            x       y       z     vdW  Elec       q    Type
REMARK                         _______ _______ _______ _____ _____    ______ ____
ROOT
ATOM      1  O   UNL     1     -17.795   3.806  28.365  0.00  0.00    -0.370 OA
ATOM      2  O   UNL     1     -16.054   1.944  26.557  0.00  0.00    -0.370 OA
ATOM     10  C   UNL     1     -15.746   2.834  27.645  0.00  0.00    +0.175 C 
ATOM     11  C   UNL     1     -16.662   4.035  27.513  0.00  0.00    +0.171 C 
ATOM     12  C   UNL     1     -16.138   2.196  28.966  0.00  0.00    +0.166 C 
ATOM     13  C   UNL     1     -17.087   4.022  26.065  0.00  0.00    +0.131 C 
ATOM     14  C   UNL     1     -17.613   2.573  29.074  0.00  0.00    +0.190 C 
ATOM     15  C   UNL     1     -17.051   2.546  25.720  0.00  0.00    +0.185 C 
ENDROOT
BRANCH  13   5
ATOM      3  O   UNL     1     -17.583   5.819  23.830  0.00  0.00    -0.253 OA
ATOM      5  N   UNL     1     -16.086   4.747  25.246  0.00  0.00    -0.292 N 
ATOM      8  N   UNL     1     -15.298   6.140  23.593  0.00  0.00    -0.295 N 
ATOM     17  C   UNL     1     -16.429   5.589  24.190  0.00  0.00    +0.300 C 
ATOM     31  H   UNL     1     -15.107   4.676  25.508  0.00  0.00    +0.151 HD
ATOM     32  H   UNL     1     -14.384   5.910  23.972  0.00  0.00    +0.151 HD
BRANCH   8  20
ATOM     20  C   UNL     1     -15.368   7.050  22.474  0.00  0.00    +0.141 C 
BRANCH  20  22
ATOM     22  C   UNL     1     -14.050   7.175  21.767  0.00  0.00    -0.030 A 
ATOM     24  C   UNL     1     -13.694   8.380  21.161  0.00  0.00    +0.005 A 
ATOM     25  C   UNL     1     -13.179   6.086  21.716  0.00  0.00    +0.005 A 
ATOM     28  C   UNL     1     -12.469   8.496  20.504  0.00  0.00    +0.000 A 
ATOM     29  C   UNL     1     -11.954   6.202  21.059  0.00  0.00    +0.000 A 
ATOM     30  C   UNL     1     -11.599   7.407  20.453  0.00  0.00    +0.000 A 
ENDBRANCH  20  22
ENDBRANCH   8  20
ENDBRANCH  13   5
BRANCH  12   4
ATOM      4  N   UNL     1     -15.253   2.684  30.100  0.00  0.00    -0.243 N 
ATOM      6  N   UNL     1     -14.007   2.208  30.250  0.00  0.00    -0.065 NA
ATOM      7  N   UNL     1     -13.481   2.810  31.311  0.00  0.00    -0.128 NA
ATOM     16  C   UNL     1     -15.560   3.601  31.057  0.00  0.00    +0.140 A 
ATOM     18  C   UNL     1     -14.418   3.666  31.817  0.00  0.00    +0.131 A 
BRANCH  18  19
ATOM      9  N   UNL     1     -13.875   5.776  32.707  0.00  0.00    -0.253 NA
ATOM     19  C   UNL     1     -14.228   4.497  32.962  0.00  0.00    +0.092 A 
ATOM     21  C   UNL     1     -14.406   3.981  34.236  0.00  0.00    +0.030 A 
ATOM     23  C   UNL     1     -14.207   4.833  35.317  0.00  0.00    +0.004 A 
ATOM     26  C   UNL     1     -13.691   6.575  33.781  0.00  0.00    +0.111 A 
ATOM     27  C   UNL     1     -13.843   6.156  35.093  0.00  0.00    +0.020 A 
ENDBRANCH  18  19
ENDBRANCH  12   4
TORSDOF 5
ENDMDL
MODEL 5
REMARK VINA RESULT:      -7.3      2.064      3.611
REMARK  Name = 40533374
REMARK  5 active torsions:
REMARK  status: ('A' for Active; 'I' for Inactive)
REMARK    1  A    between atoms: N_4  and  C_12
REMARK    2  A    between atoms: N_5  and  C_13
REMARK    3  A    between atoms: N_8  and  C_20
REMARK    4  A    between atoms: C_18  and  C_19
REMARK    5  A    between atoms: C_20  and  C_22
REMARK                            x       y       z     vdW  Elec       q    Type
REMARK                         _______ _______ _______ _____ _____    ______ ____
ROOT
ATOM      1  O   UNL     1     -17.317   6.134  23.884  0.00  0.00    -0.370 OA
ATOM      2  O   UNL     1     -17.308   4.441  21.256  0.00  0.00    -0.370 OA
ATOM     10  C   UNL     1     -16.741   4.239  22.564  0.00  0.00    +0.175 C 
ATOM     11  C   UNL     1     -16.272   5.593  23.061  0.00  0.00    +0.171 C 
ATOM     12  C   UNL     1     -17.826   3.827  23.543  0.00  0.00    +0.166 C 
ATOM     13  C   UNL     1     -16.116   6.417  21.806  0.00  0.00    +0.131 C 
ATOM     14  C   UNL     1     -18.380   5.177  23.990  0.00  0.00    +0.190 C 
ATOM     15  C   UNL     1     -17.157   5.817  20.882  0.00  0.00    +0.185 C 
ENDROOT
BRANCH  13   5
ATOM      3  O   UNL     1     -13.777   8.128  22.082  0.00  0.00    -0.253 OA
ATOM      5  N   UNL     1     -14.763   6.203  21.236  0.00  0.00    -0.292 N 
ATOM      8  N   UNL     1     -12.552   6.648  20.782  0.00  0.00    -0.295 N 
ATOM     17  C   UNL     1     -13.705   7.089  21.427  0.00  0.00    +0.300 C 
ATOM     31  H   UNL     1     -14.584   5.338  20.734  0.00  0.00    +0.151 HD
ATOM     32  H   UNL     1     -12.579   5.765  20.282  0.00  0.00    +0.151 HD
BRANCH   8  20
ATOM     20  C   UNL     1     -11.307   7.378  20.819  0.00  0.00    +0.141 C 
BRANCH  20  22
ATOM     22  C   UNL     1     -11.074   8.158  19.558  0.00  0.00    -0.030 A 
ATOM     24  C   UNL     1     -10.607   9.471  19.625  0.00  0.00    +0.005 A 
ATOM     25  C   UNL     1     -11.323   7.569  18.318  0.00  0.00    +0.005 A 
ATOM     28  C   UNL     1     -10.390  10.195  18.453  0.00  0.00    +0.000 A 
ATOM     29  C   UNL     1     -11.106   8.293  17.146  0.00  0.00    +0.000 A 
ATOM     30  C   UNL     1     -10.640   9.606  17.213  0.00  0.00    +0.000 A 
ENDBRANCH  20  22
ENDBRANCH   8  20
ENDBRANCH  13   5
BRANCH  12   4
ATOM      4  N   UNL     1     -17.268   2.950  24.649  0.00  0.00    -0.243 N 
ATOM      6  N   UNL     1     -16.944   1.669  24.411  0.00  0.00    -0.065 NA
ATOM      7  N   UNL     1     -16.487   1.160  25.550  0.00  0.00    -0.128 NA
ATOM     16  C   UNL     1     -17.029   3.296  25.943  0.00  0.00    +0.140 A 
ATOM     18  C   UNL     1     -16.533   2.142  26.498  0.00  0.00    +0.131 A 
BRANCH  18  19
ATOM      9  N   UNL     1     -16.355   0.766  28.399  0.00  0.00    -0.253 NA
ATOM     19  C   UNL     1     -16.124   1.982  27.856  0.00  0.00    +0.092 A 
ATOM     21  C   UNL     1     -15.532   3.035  28.536  0.00  0.00    +0.030 A 
ATOM     23  C   UNL     1     -15.153   2.826  29.857  0.00  0.00    +0.004 A 
ATOM     26  C   UNL     1     -15.974   0.599  29.685  0.00  0.00    +0.111 A 
ATOM     27  C   UNL     1     -15.375   1.588  30.450  0.00  0.00    +0.020 A 
ENDBRANCH  18  19
ENDBRANCH  12   4
TORSDOF 5
ENDMDL
MODEL 6
REMARK VINA RESULT:      -7.3     19.933     23.121
REMARK  Name = 40533374
REMARK  5 active torsions:
REMARK  status: ('A' for Active; 'I' for Inactive)
REMARK    1  A    between atoms: N_4  and  C_12
REMARK    2  A    between atoms: N_5  and  C_13
REMARK    3  A    between atoms: N_8  and  C_20
REMARK    4  A    between atoms: C_18  and  C_19
REMARK    5  A    between atoms: C_20  and  C_22
REMARK                            x       y       z     vdW  Elec       q    Type
REMARK                         _______ _______ _______ _____ _____    ______ ____
ROOT
ATOM      1  O   UNL     1      -4.781  -9.274   8.595  0.00  0.00    -0.370 OA
ATOM      2  O   UNL     1      -6.631 -11.379   9.979  0.00  0.00    -0.370 OA
ATOM     10  C   UNL     1      -6.741  -9.962   9.758  0.00  0.00    +0.175 C 
ATOM     11  C   UNL     1      -5.350  -9.376   9.909  0.00  0.00    +0.171 C 
ATOM     12  C   UNL     1      -7.115  -9.689   8.311  0.00  0.00    +0.166 C 
ATOM     13  C   UNL     1      -4.601 -10.403  10.724  0.00  0.00    +0.131 C 
ATOM     14  C   UNL     1      -5.752  -9.692   7.625  0.00  0.00    +0.190 C 
ATOM     15  C   UNL     1      -5.277 -11.701  10.328  0.00  0.00    +0.185 C 
ENDROOT
BRANCH  13   5
ATOM      3  O   UNL     1      -3.017 -11.378  12.963  0.00  0.00    -0.253 OA
ATOM      5  N   UNL     1      -4.821 -10.149  12.169  0.00  0.00    -0.292 N 
ATOM      8  N   UNL     1      -4.433 -10.274  14.433  0.00  0.00    -0.295 N 
ATOM     17  C   UNL     1      -4.000 -10.666  13.169  0.00  0.00    +0.300 C 
ATOM     31  H   UNL     1      -5.569  -9.516  12.437  0.00  0.00    +0.151 HD
ATOM     32  H   UNL     1      -5.243  -9.666  14.505  0.00  0.00    +0.151 HD
BRANCH   8  20
ATOM     20  C   UNL     1      -3.760 -10.670  15.648  0.00  0.00    +0.141 C 
BRANCH  20  22
ATOM     22  C   UNL     1      -4.687 -10.672  16.829  0.00  0.00    -0.030 A 
ATOM     24  C   UNL     1      -5.919 -10.023  16.749  0.00  0.00    +0.005 A 
ATOM     25  C   UNL     1      -4.317 -11.324  18.005  0.00  0.00    +0.005 A 
ATOM     28  C   UNL     1      -6.781 -10.025  17.847  0.00  0.00    +0.000 A 
ATOM     29  C   UNL     1      -5.178 -11.327  19.102  0.00  0.00    +0.000 A 
ATOM     30  C   UNL     1      -6.410 -10.677  19.023  0.00  0.00    +0.000 A 
ENDBRANCH  20  22
ENDBRANCH   8  20
ENDBRANCH  13   5
BRANCH  12   4
ATOM      4  N   UNL     1      -7.911  -8.403   8.179  0.00  0.00    -0.243 N 
ATOM      6  N   UNL     1      -7.806  -7.642   7.078  0.00  0.00    -0.065 NA
ATOM      7  N   UNL     1      -8.608  -6.596   7.244  0.00  0.00    -0.128 NA
ATOM     16  C   UNL     1      -8.780  -7.867   9.079  0.00  0.00    +0.140 A 
ATOM     18  C   UNL     1      -9.212  -6.718   8.464  0.00  0.00    +0.131 A 
BRANCH  18  19
ATOM      9  N   UNL     1     -11.138  -6.320   9.757  0.00  0.00    -0.253 NA
ATOM     19  C   UNL     1     -10.148  -5.787   9.006  0.00  0.00    +0.092 A 
ATOM     21  C   UNL     1     -10.010  -4.431   8.754  0.00  0.00    +0.030 A 
ATOM     23  C   UNL     1     -10.950  -3.568   9.305  0.00  0.00    +0.004 A 
ATOM     26  C   UNL     1     -12.032  -5.450  10.277  0.00  0.00    +0.111 A 
ATOM     27  C   UNL     1     -11.983  -4.079  10.083  0.00  0.00    +0.020 A 
ENDBRANCH  18  19
ENDBRANCH  12   4
TORSDOF 5
ENDMDL
MODEL 7
REMARK VINA RESULT:      -7.1     33.285     37.368
REMARK  Name = 40533374
REMARK  5 active torsions:
REMARK  status: ('A' for Active; 'I' for Inactive)
REMARK    1  A    between atoms: N_4  and  C_12
REMARK    2  A    between atoms: N_5  and  C_13
REMARK    3  A    between atoms: N_8  and  C_20
REMARK    4  A    between atoms: C_18  and  C_19
REMARK    5  A    between atoms: C_20  and  C_22
REMARK                            x       y       z     vdW  Elec       q    Type
REMARK                         _______ _______ _______ _____ _____    ______ ____
ROOT
ATOM      1  O   UNL     1      11.731   8.989   5.103  0.00  0.00    -0.370 OA
ATOM      2  O   UNL     1      11.850   6.611   7.127  0.00  0.00    -0.370 OA
ATOM     10  C   UNL     1      12.835   7.252   6.298  0.00  0.00    +0.175 C 
ATOM     11  C   UNL     1      12.152   7.620   4.995  0.00  0.00    +0.171 C 
ATOM     12  C   UNL     1      13.241   8.583   6.906  0.00  0.00    +0.166 C 
ATOM     13  C   UNL     1      10.951   6.708   4.935  0.00  0.00    +0.131 C 
ATOM     14  C   UNL     1      12.168   9.521   6.361  0.00  0.00    +0.190 C 
ATOM     15  C   UNL     1      10.621   6.494   6.398  0.00  0.00    +0.185 C 
ENDROOT
BRANCH  13   5
ATOM      3  O   UNL     1      11.092   6.060   2.100  0.00  0.00    -0.253 OA
ATOM      5  N   UNL     1      11.338   5.415   4.318  0.00  0.00    -0.292 N 
ATOM      8  N   UNL     1      11.768   3.906   2.637  0.00  0.00    -0.295 N 
ATOM     17  C   UNL     1      11.373   5.206   2.942  0.00  0.00    +0.300 C 
ATOM     31  H   UNL     1      11.652   4.667   4.929  0.00  0.00    +0.151 HD
ATOM     32  H   UNL     1      12.002   3.275   3.397  0.00  0.00    +0.151 HD
BRANCH   8  20
ATOM     20  C   UNL     1      11.889   3.422   1.281  0.00  0.00    +0.141 C 
BRANCH  20  22
ATOM     22  C   UNL     1      13.254   3.681   0.712  0.00  0.00    -0.030 A 
ATOM     24  C   UNL     1      14.388   3.477   1.499  0.00  0.00    +0.005 A 
ATOM     25  C   UNL     1      13.389   4.124  -0.604  0.00  0.00    +0.005 A 
ATOM     28  C   UNL     1      15.656   3.717   0.969  0.00  0.00    +0.000 A 
ATOM     29  C   UNL     1      14.657   4.364  -1.133  0.00  0.00    +0.000 A 
ATOM     30  C   UNL     1      15.790   4.161  -0.346  0.00  0.00    +0.000 A 
ENDBRANCH  20  22
ENDBRANCH   8  20
ENDBRANCH  13   5
BRANCH  12   4
ATOM      4  N   UNL     1      14.671   8.943   6.545  0.00  0.00    -0.243 N 
ATOM      6  N   UNL     1      15.070  10.225   6.522  0.00  0.00    -0.065 NA
ATOM      7  N   UNL     1      16.353  10.232   6.177  0.00  0.00    -0.128 NA
ATOM     16  C   UNL     1      15.684   8.095   6.216  0.00  0.00    +0.140 A 
ATOM     18  C   UNL     1      16.744   8.936   5.986  0.00  0.00    +0.131 A 
BRANCH  18  19
ATOM      9  N   UNL     1      18.980   8.525   6.594  0.00  0.00    -0.253 NA
ATOM     19  C   UNL     1      18.059   8.531   5.605  0.00  0.00    +0.092 A 
ATOM     21  C   UNL     1      18.328   8.173   4.294  0.00  0.00    +0.030 A 
ATOM     23  C   UNL     1      19.624   7.787   3.977  0.00  0.00    +0.004 A 
ATOM     26  C   UNL     1      20.230   8.144   6.249  0.00  0.00    +0.111 A 
ATOM     27  C   UNL     1      20.600   7.769   4.967  0.00  0.00    +0.020 A 
ENDBRANCH  18  19
ENDBRANCH  12   4
TORSDOF 5
ENDMDL
MODEL 8
REMARK VINA RESULT:      -7.1     31.538     37.418
REMARK  Name = 40533374
REMARK  5 active torsions:
REMARK  status: ('A' for Active; 'I' for Inactive)
REMARK    1  A    between atoms: N_4  and  C_12
REMARK    2  A    between atoms: N_5  and  C_13
REMARK    3  A    between atoms: N_8  and  C_20
REMARK    4  A    between atoms: C_18  and  C_19
REMARK    5  A    between atoms: C_20  and  C_22
REMARK                            x       y       z     vdW  Elec       q    Type
REMARK                         _______ _______ _______ _____ _____    ______ ____
ROOT
ATOM      1  O   UNL     1      13.168   5.646  -0.530  0.00  0.00    -0.370 OA
ATOM      2  O   UNL     1      13.446   2.830   0.797  0.00  0.00    -0.370 OA
ATOM     10  C   UNL     1      12.405   3.463   0.032  0.00  0.00    +0.175 C 
ATOM     11  C   UNL     1      12.382   4.926   0.432  0.00  0.00    +0.171 C 
ATOM     12  C   UNL     1      12.775   3.475  -1.441  0.00  0.00    +0.166 C 
ATOM     13  C   UNL     1      13.057   4.952   1.782  0.00  0.00    +0.131 C 
ATOM     14  C   UNL     1      13.623   4.740  -1.544  0.00  0.00    +0.190 C 
ATOM     15  C   UNL     1      14.023   3.787   1.695  0.00  0.00    +0.185 C 
ENDROOT
BRANCH  13   5
ATOM      3  O   UNL     1      11.219   6.850   3.004  0.00  0.00    -0.253 OA
ATOM      5  N   UNL     1      12.056   4.689   2.845  0.00  0.00    -0.292 N 
ATOM      8  N   UNL     1      10.379   5.156   4.349  0.00  0.00    -0.295 N 
ATOM     17  C   UNL     1      11.219   5.673   3.366  0.00  0.00    +0.300 C 
ATOM     31  H   UNL     1      11.933   3.732   3.162  0.00  0.00    +0.151 HD
ATOM     32  H   UNL     1      10.434   4.165   4.566  0.00  0.00    +0.151 HD
BRANCH   8  20
ATOM     20  C   UNL     1       9.409   5.961   5.053  0.00  0.00    +0.141 C 
BRANCH  20  22
ATOM     22  C   UNL     1       9.408   5.679   6.527  0.00  0.00    -0.030 A 
ATOM     24  C   UNL     1       9.037   6.678   7.428  0.00  0.00    +0.005 A 
ATOM     25  C   UNL     1       9.777   4.419   6.997  0.00  0.00    +0.005 A 
ATOM     28  C   UNL     1       9.036   6.416   8.798  0.00  0.00    +0.000 A 
ATOM     29  C   UNL     1       9.776   4.156   8.367  0.00  0.00    +0.000 A 
ATOM     30  C   UNL     1       9.406   5.155   9.268  0.00  0.00    +0.000 A 
ENDBRANCH  20  22
ENDBRANCH   8  20
ENDBRANCH  13   5
BRANCH  12   4
ATOM      4  N   UNL     1      11.538   3.441  -2.321  0.00  0.00    -0.243 N 
ATOM      6  N   UNL     1      10.721   2.376  -2.315  0.00  0.00    -0.065 NA
ATOM      7  N   UNL     1       9.738   2.628  -3.172  0.00  0.00    -0.128 NA
ATOM     16  C   UNL     1      11.104   4.403  -3.180  0.00  0.00    +0.140 A 
ATOM     18  C   UNL     1       9.957   3.865  -3.711  0.00  0.00    +0.131 A 
BRANCH  18  19
ATOM      9  N   UNL     1       9.542   4.428  -5.958  0.00  0.00    -0.253 NA
ATOM     19  C   UNL     1       9.115   4.493  -4.677  0.00  0.00    +0.092 A 
ATOM     21  C   UNL     1       7.943   5.118  -4.282  0.00  0.00    +0.030 A 
ATOM     23  C   UNL     1       7.160   5.714  -5.263  0.00  0.00    +0.004 A 
ATOM     26  C   UNL     1       8.755   5.019  -6.885  0.00  0.00    +0.111 A 
ATOM     27  C   UNL     1       7.567   5.668  -6.592  0.00  0.00    +0.020 A 
ENDBRANCH  18  19
ENDBRANCH  12   4
TORSDOF 5
ENDMDL
MODEL 9
REMARK VINA RESULT:      -6.9     19.536     21.887
REMARK  Name = 40533374
REMARK  5 active torsions:
REMARK  status: ('A' for Active; 'I' for Inactive)
REMARK    1  A    between atoms: N_4  and  C_12
REMARK    2  A    between atoms: N_5  and  C_13
REMARK    3  A    between atoms: N_8  and  C_20
REMARK    4  A    between atoms: C_18  and  C_19
REMARK    5  A    between atoms: C_20  and  C_22
REMARK                            x       y       z     vdW  Elec       q    Type
REMARK                         _______ _______ _______ _____ _____    ______ ____
ROOT
ATOM      1  O   UNL     1      -8.500 -10.067   9.319  0.00  0.00    -0.370 OA
ATOM      2  O   UNL     1      -7.608  -8.108   7.053  0.00  0.00    -0.370 OA
ATOM     10  C   UNL     1      -7.110  -8.382   8.375  0.00  0.00    +0.175 C 
ATOM     11  C   UNL     1      -8.313  -8.645   9.261  0.00  0.00    +0.171 C 
ATOM     12  C   UNL     1      -6.338  -9.690   8.379  0.00  0.00    +0.166 C 
ATOM     13  C   UNL     1      -9.462  -7.997   8.528  0.00  0.00    +0.131 C 
ATOM     14  C   UNL     1      -7.452 -10.714   8.585  0.00  0.00    +0.190 C 
ATOM     15  C   UNL     1      -9.042  -8.114   7.076  0.00  0.00    +0.185 C 
ENDROOT
BRANCH  13   5
ATOM      3  O   UNL     1     -11.707  -6.186   8.135  0.00  0.00    -0.253 OA
ATOM      5  N   UNL     1      -9.549  -6.565   8.905  0.00  0.00    -0.292 N 
ATOM      8  N   UNL     1     -10.489  -4.476   9.123  0.00  0.00    -0.295 N 
ATOM     17  C   UNL     1     -10.676  -5.780   8.671  0.00  0.00    +0.300 C 
ATOM     31  H   UNL     1      -8.772  -6.154   9.415  0.00  0.00    +0.151 HD
ATOM     32  H   UNL     1      -9.611  -4.237   9.574  0.00  0.00    +0.151 HD
BRANCH   8  20
ATOM     20  C   UNL     1     -11.502  -3.454   9.005  0.00  0.00    +0.141 C 
BRANCH  20  22
ATOM     22  C   UNL     1     -12.458  -3.474  10.162  0.00  0.00    -0.030 A 
ATOM     24  C   UNL     1     -13.831  -3.372   9.933  0.00  0.00    +0.005 A 
ATOM     25  C   UNL     1     -11.975  -3.595  11.465  0.00  0.00    +0.005 A 
ATOM     28  C   UNL     1     -14.720  -3.391  11.008  0.00  0.00    +0.000 A 
ATOM     29  C   UNL     1     -12.864  -3.614  12.540  0.00  0.00    +0.000 A 
ATOM     30  C   UNL     1     -14.236  -3.511  12.311  0.00  0.00    +0.000 A 
ENDBRANCH  20  22
ENDBRANCH   8  20
ENDBRANCH  13   5
BRANCH  12   4
ATOM      4  N   UNL     1      -5.249  -9.686   9.438  0.00  0.00    -0.243 N 
ATOM      6  N   UNL     1      -4.056  -9.122   9.191  0.00  0.00    -0.065 NA
ATOM      7  N   UNL     1      -3.318  -9.269  10.285  0.00  0.00    -0.128 NA
ATOM     16  C   UNL     1      -5.309 -10.209  10.693  0.00  0.00    +0.140 A 
ATOM     18  C   UNL     1      -4.069  -9.932  11.214  0.00  0.00    +0.131 A 
BRANCH  18  19
ATOM      9  N   UNL     1      -4.595 -10.463  13.446  0.00  0.00    -0.253 NA
ATOM     19  C   UNL     1      -3.623 -10.279  12.525  0.00  0.00    +0.092 A 
ATOM     21  C   UNL     1      -2.269 -10.409  12.791  0.00  0.00    +0.030 A 
ATOM     23  C   UNL     1      -1.889 -10.747  14.084  0.00  0.00    +0.004 A 
ATOM     26  C   UNL     1      -4.188 -10.791  14.692  0.00  0.00    +0.111 A 
ATOM     27  C   UNL     1      -2.861 -10.944  15.059  0.00  0.00    +0.020 A 
ENDBRANCH  18  19
ENDBRANCH  12   4
TORSDOF 5
ENDMDL
MODEL 10
REMARK VINA RESULT:      -6.9     26.334     30.364
REMARK  Name = 40533374
REMARK  5 active torsions:
REMARK  status: ('A' for Active; 'I' for Inactive)
REMARK    1  A    between atoms: N_4  and  C_12
REMARK    2  A    between atoms: N_5  and  C_13
REMARK    3  A    between atoms: N_8  and  C_20
REMARK    4  A    between atoms: C_18  and  C_19
REMARK    5  A    between atoms: C_20  and  C_22
REMARK                            x       y       z     vdW  Elec       q    Type
REMARK                         _______ _______ _______ _____ _____    ______ ____
ROOT
ATOM      1  O   UNL     1       6.467  10.677   1.833  0.00  0.00    -0.370 OA
ATOM      2  O   UNL     1       4.919  11.661   4.363  0.00  0.00    -0.370 OA
ATOM     10  C   UNL     1       5.535  10.411   4.007  0.00  0.00    +0.175 C 
ATOM     11  C   UNL     1       5.300  10.203   2.523  0.00  0.00    +0.171 C 
ATOM     12  C   UNL     1       7.044  10.518   4.143  0.00  0.00    +0.166 C 
ATOM     13  C   UNL     1       4.114  11.082   2.208  0.00  0.00    +0.131 C 
ATOM     14  C   UNL     1       7.444  11.103   2.792  0.00  0.00    +0.190 C 
ATOM     15  C   UNL     1       4.256  12.207   3.214  0.00  0.00    +0.185 C 
ENDROOT
BRANCH  13   5
ATOM      3  O   UNL     1       1.391  11.921   1.614  0.00  0.00    -0.253 OA
ATOM      5  N   UNL     1       2.858  10.337   2.470  0.00  0.00    -0.292 N 
ATOM      8  N   UNL     1       0.594   9.931   2.500  0.00  0.00    -0.295 N 
ATOM     17  C   UNL     1       1.596  10.830   2.146  0.00  0.00    +0.300 C 
ATOM     31  H   UNL     1       2.928   9.396   2.846  0.00  0.00    +0.151 HD
ATOM     32  H   UNL     1       0.860   9.042   2.915  0.00  0.00    +0.151 HD
BRANCH   8  20
ATOM     20  C   UNL     1      -0.808  10.192   2.275  0.00  0.00    +0.141 C 
BRANCH  20  22
ATOM     22  C   UNL     1      -1.663   9.679   3.397  0.00  0.00    -0.030 A 
ATOM     24  C   UNL     1      -1.077   9.313   4.609  0.00  0.00    +0.005 A 
ATOM     25  C   UNL     1      -3.043   9.570   3.228  0.00  0.00    +0.005 A 
ATOM     28  C   UNL     1      -1.872   8.837   5.652  0.00  0.00    +0.000 A 
ATOM     29  C   UNL     1      -3.838   9.094   4.271  0.00  0.00    +0.000 A 
ATOM     30  C   UNL     1      -3.252   8.727   5.483  0.00  0.00    +0.000 A 
ENDBRANCH  20  22
ENDBRANCH   8  20
ENDBRANCH  13   5
BRANCH  12   4
ATOM      4  N   UNL     1       7.665   9.175   4.485  0.00  0.00    -0.243 N 
ATOM      6  N   UNL     1       8.005   8.311   3.515  0.00  0.00    -0.065 NA
ATOM      7  N   UNL     1       8.517   7.237   4.107  0.00  0.00    -0.128 NA
ATOM     16  C   UNL     1       7.948   8.681   5.721  0.00  0.00    +0.140 A 
ATOM     18  C   UNL     1       8.489   7.447   5.457  0.00  0.00    +0.131 A 
BRANCH  18  19
ATOM      9  N   UNL     1       8.869   6.926   7.720  0.00  0.00    -0.253 NA
ATOM     19  C   UNL     1       8.956   6.518   6.435  0.00  0.00    +0.092 A 
ATOM     21  C   UNL     1       9.457   5.286   6.045  0.00  0.00    +0.030 A 
ATOM     23  C   UNL     1       9.898   4.419   7.038  0.00  0.00    +0.004 A 
ATOM     26  C   UNL     1       9.307   6.058   8.658  0.00  0.00    +0.111 A 
ATOM     27  C   UNL     1       9.826   4.805   8.372  0.00  0.00    +0.020 A 
ENDBRANCH  18  19
ENDBRANCH  12   4
TORSDOF 5
ENDMDL
