MODEL 1
REMARK VINA RESULT:      -7.1      0.000      0.000
REMARK  Name = 75367087
REMARK  6 active torsions:
REMARK  status: ('A' for Active; 'I' for Inactive)
REMARK    1  A    between atoms: O_3  and  C_9
REMARK    2  A    between atoms: N_5  and  C_7
REMARK    3  A    between atoms: N_5  and  C_8
REMARK    4  A    between atoms: N_6  and  C_16
REMARK    5  A    between atoms: C_12  and  C_16
REMARK    6  A    between atoms: C_17  and  C_18
REMARK                            x       y       z     vdW  Elec       q    Type
REMARK                         _______ _______ _______ _____ _____    ______ ____
ROOT
ATOM      2  O   UNL     1      10.670   7.155  21.181  0.00  0.00    -0.371 OA
ATOM      8  C   UNL     1      11.332   9.272  22.033  0.00  0.00    +0.111 C 
ATOM      9  C   UNL     1      12.401   8.766  21.081  0.00  0.00    +0.164 C 
ATOM     12  C   UNL     1      11.610   7.748  20.269  0.00  0.00    +0.165 C 
ATOM     15  C   UNL     1      10.579   7.990  22.349  0.00  0.00    +0.181 C 
ENDROOT
BRANCH   9   3
ATOM      3  O   UNL     1      12.935   9.789  20.265  0.00  0.00    -0.388 OA
ATOM     25  H   UNL     1      13.754  10.112  20.676  0.00  0.00    +0.210 HD
ENDBRANCH   9   3
BRANCH   8   5
ATOM      5  N   UNL     1      11.868   9.921  23.218  0.00  0.00    -0.306 NA
ATOM     24  H   UNL     1      12.798  10.291  23.027  0.00  0.00    +0.123 HD
BRANCH   5   7
ATOM      7  C   UNL     1      10.990  10.983  23.674  0.00  0.00    +0.054 C 
ATOM     10  C   UNL     1      11.128  12.258  22.850  0.00  0.00    +0.019 C 
ATOM     11  C   UNL     1      11.329  11.466  25.080  0.00  0.00    +0.019 C 
ATOM     13  C   UNL     1      10.500  13.330  23.736  0.00  0.00    +0.002 C 
ATOM     14  C   UNL     1      10.629  12.819  25.173  0.00  0.00    +0.002 C 
ENDBRANCH   5   7
ENDBRANCH   8   5
BRANCH  12  16
ATOM     16  C   UNL     1      12.480   6.665  19.654  0.00  0.00    +0.138 C 
BRANCH  16   6
ATOM      4  O   UNL     1      14.792   7.249  18.055  0.00  0.00    -0.270 OA
ATOM      6  N   UNL     1      13.836   6.762  20.113  0.00  0.00    -0.309 N 
ATOM     17  C   UNL     1      14.900   7.051  19.263  0.00  0.00    +0.244 C 
ATOM     26  H   UNL     1      14.004   6.540  21.087  0.00  0.00    +0.149 HD
BRANCH  17  18
ATOM      1  F   UNL     1      19.992   7.201  21.621  0.00  0.00    -0.205 F 
ATOM     18  C   UNL     1      16.247   7.090  19.887  0.00  0.00    +0.037 A 
ATOM     19  C   UNL     1      17.208   6.145  19.530  0.00  0.00    +0.016 A 
ATOM     20  C   UNL     1      16.550   8.072  20.830  0.00  0.00    +0.016 A 
ATOM     21  C   UNL     1      18.474   6.182  20.115  0.00  0.00    +0.039 A 
ATOM     22  C   UNL     1      17.816   8.109  21.417  0.00  0.00    +0.039 A 
ATOM     23  C   UNL     1      18.777   7.164  21.059  0.00  0.00    +0.123 A 
ENDBRANCH  17  18
ENDBRANCH  16   6
ENDBRANCH  12  16
TORSDOF 6
ENDMDL
MODEL 2
REMARK VINA RESULT:      -6.8      2.978      4.839
REMARK  Name = 75367087
REMARK  6 active torsions:
REMARK  status: ('A' for Active; 'I' for Inactive)
REMARK    1  A    between atoms: O_3  and  C_9
REMARK    2  A    between atoms: N_5  and  C_7
REMARK    3  A    between atoms: N_5  and  C_8
REMARK    4  A    between atoms: N_6  and  C_16
REMARK    5  A    between atoms: C_12  and  C_16
REMARK    6  A    between atoms: C_17  and  C_18
REMARK                            x       y       z     vdW  Elec       q    Type
REMARK                         _______ _______ _______ _____ _____    ______ ____
ROOT
ATOM      2  O   UNL     1      12.144   9.093  21.491  0.00  0.00    -0.371 OA
ATOM      8  C   UNL     1      12.036   7.316  19.918  0.00  0.00    +0.111 C 
ATOM      9  C   UNL     1      13.441   7.388  20.487  0.00  0.00    +0.164 C 
ATOM     12  C   UNL     1      13.193   8.155  21.779  0.00  0.00    +0.165 C 
ATOM     15  C   UNL     1      11.498   8.694  20.269  0.00  0.00    +0.181 C 
ENDROOT
BRANCH   9   3
ATOM      3  O   UNL     1      13.997   6.111  20.731  0.00  0.00    -0.388 OA
ATOM     25  H   UNL     1      13.453   5.662  21.399  0.00  0.00    +0.210 HD
ENDBRANCH   9   3
BRANCH   8   5
ATOM      5  N   UNL     1      11.999   7.040  18.491  0.00  0.00    -0.306 NA
ATOM     24  H   UNL     1      11.201   6.448  18.267  0.00  0.00    +0.123 HD
BRANCH   5   7
ATOM      7  C   UNL     1      11.941   8.271  17.722  0.00  0.00    +0.054 C 
ATOM     10  C   UNL     1      10.816   8.272  16.694  0.00  0.00    +0.019 C 
ATOM     11  C   UNL     1      13.176   8.481  16.854  0.00  0.00    +0.019 C 
ATOM     13  C   UNL     1      11.205   9.393  15.735  0.00  0.00    +0.002 C 
ATOM     14  C   UNL     1      12.726   9.529  15.838  0.00  0.00    +0.002 C 
ENDBRANCH   5   7
ENDBRANCH   8   5
BRANCH  12  16
ATOM     16  C   UNL     1      14.420   8.896  22.281  0.00  0.00    +0.138 C 
BRANCH  16   6
ATOM      4  O   UNL     1      16.910  10.057  21.445  0.00  0.00    -0.270 OA
ATOM      6  N   UNL     1      15.626   8.192  21.953  0.00  0.00    -0.309 N 
ATOM     17  C   UNL     1      16.792   8.840  21.555  0.00  0.00    +0.244 C 
ATOM     26  H   UNL     1      15.577   7.180  21.954  0.00  0.00    +0.149 HD
BRANCH  17  18
ATOM      1  F   UNL     1      21.159   5.539  20.307  0.00  0.00    -0.205 F 
ATOM     18  C   UNL     1      17.948   7.967  21.224  0.00  0.00    +0.037 A 
ATOM     19  C   UNL     1      19.243   8.376  21.539  0.00  0.00    +0.016 A 
ATOM     20  C   UNL     1      17.737   6.738  20.599  0.00  0.00    +0.016 A 
ATOM     21  C   UNL     1      20.329   7.556  21.229  0.00  0.00    +0.039 A 
ATOM     22  C   UNL     1      18.822   5.917  20.289  0.00  0.00    +0.039 A 
ATOM     23  C   UNL     1      20.117   6.327  20.604  0.00  0.00    +0.123 A 
ENDBRANCH  17  18
ENDBRANCH  16   6
ENDBRANCH  12  16
TORSDOF 6
ENDMDL
MODEL 3
REMARK VINA RESULT:      -6.7      1.487      2.142
REMARK  Name = 75367087
REMARK  6 active torsions:
REMARK  status: ('A' for Active; 'I' for Inactive)
REMARK    1  A    between atoms: O_3  and  C_9
REMARK    2  A    between atoms: N_5  and  C_7
REMARK    3  A    between atoms: N_5  and  C_8
REMARK    4  A    between atoms: N_6  and  C_16
REMARK    5  A    between atoms: C_12  and  C_16
REMARK    6  A    between atoms: C_17  and  C_18
REMARK                            x       y       z     vdW  Elec       q    Type
REMARK                         _______ _______ _______ _____ _____    ______ ____
ROOT
ATOM      2  O   UNL     1      12.873   6.807  20.802  0.00  0.00    -0.371 OA
ATOM      8  C   UNL     1      10.861   8.023  21.142  0.00  0.00    +0.111 C 
ATOM      9  C   UNL     1      11.434   8.386  19.784  0.00  0.00    +0.164 C 
ATOM     12  C   UNL     1      12.343   7.192  19.522  0.00  0.00    +0.165 C 
ATOM     15  C   UNL     1      12.074   7.420  21.830  0.00  0.00    +0.181 C 
ENDROOT
BRANCH   9   3
ATOM      3  O   UNL     1      10.439   8.518  18.789  0.00  0.00    -0.388 OA
ATOM     25  H   UNL     1      10.863   8.825  17.970  0.00  0.00    +0.210 HD
ENDBRANCH   9   3
BRANCH   8   5
ATOM      5  N   UNL     1      10.307   9.159  21.862  0.00  0.00    -0.306 NA
ATOM     24  H   UNL     1       9.715   8.836  22.625  0.00  0.00    +0.123 HD
BRANCH   5   7
ATOM      7  C   UNL     1      11.361  10.017  22.373  0.00  0.00    +0.054 C 
ATOM     10  C   UNL     1      11.064  10.546  23.771  0.00  0.00    +0.019 C 
ATOM     11  C   UNL     1      11.519  11.300  21.566  0.00  0.00    +0.019 C 
ATOM     13  C   UNL     1      12.017  11.729  23.918  0.00  0.00    +0.002 C 
ATOM     14  C   UNL     1      12.311  12.215  22.496  0.00  0.00    +0.002 C 
ENDBRANCH   5   7
ENDBRANCH   8   5
BRANCH  12  16
ATOM     16  C   UNL     1      13.482   7.502  18.568  0.00  0.00    +0.138 C 
BRANCH  16   6
ATOM      4  O   UNL     1      15.419   9.244  19.776  0.00  0.00    -0.270 OA
ATOM      6  N   UNL     1      14.748   7.120  19.124  0.00  0.00    -0.309 N 
ATOM     17  C   UNL     1      15.628   8.036  19.693  0.00  0.00    +0.244 C 
ATOM     26  H   UNL     1      15.014   6.147  19.024  0.00  0.00    +0.149 HD
BRANCH  17  18
ATOM      1  F   UNL     1      20.474   5.954  21.617  0.00  0.00    -0.205 F 
ATOM     18  C   UNL     1      16.911   7.486  20.202  0.00  0.00    +0.037 A 
ATOM     19  C   UNL     1      17.586   8.134  21.236  0.00  0.00    +0.016 A 
ATOM     20  C   UNL     1      17.439   6.322  19.645  0.00  0.00    +0.016 A 
ATOM     21  C   UNL     1      18.790   7.617  21.715  0.00  0.00    +0.039 A 
ATOM     22  C   UNL     1      18.644   5.804  20.123  0.00  0.00    +0.039 A 
ATOM     23  C   UNL     1      19.318   6.452  21.158  0.00  0.00    +0.123 A 
ENDBRANCH  17  18
ENDBRANCH  16   6
ENDBRANCH  12  16
TORSDOF 6
ENDMDL
MODEL 4
REMARK VINA RESULT:      -6.6      2.899      7.575
REMARK  Name = 75367087
REMARK  6 active torsions:
REMARK  status: ('A' for Active; 'I' for Inactive)
REMARK    1  A    between atoms: O_3  and  C_9
REMARK    2  A    between atoms: N_5  and  C_7
REMARK    3  A    between atoms: N_5  and  C_8
REMARK    4  A    between atoms: N_6  and  C_16
REMARK    5  A    between atoms: C_12  and  C_16
REMARK    6  A    between atoms: C_17  and  C_18
REMARK                            x       y       z     vdW  Elec       q    Type
REMARK                         _______ _______ _______ _____ _____    ______ ____
ROOT
ATOM      2  O   UNL     1      13.345   9.120  18.983  0.00  0.00    -0.371 OA
ATOM      8  C   UNL     1      15.019   7.926  20.172  0.00  0.00    +0.111 C 
ATOM      9  C   UNL     1      13.661   7.588  20.758  0.00  0.00    +0.164 C 
ATOM     12  C   UNL     1      12.742   7.974  19.607  0.00  0.00    +0.165 C 
ATOM     15  C   UNL     1      14.712   9.211  19.421  0.00  0.00    +0.181 C 
ENDROOT
BRANCH   9   3
ATOM      3  O   UNL     1      13.536   6.221  21.096  0.00  0.00    -0.388 OA
ATOM     25  H   UNL     1      14.391   5.786  20.936  0.00  0.00    +0.210 HD
ENDBRANCH   9   3
BRANCH   8   5
ATOM      5  N   UNL     1      16.061   8.090  21.174  0.00  0.00    -0.306 NA
ATOM     24  H   UNL     1      15.652   8.120  22.106  0.00  0.00    +0.123 HD
BRANCH   5   7
ATOM      7  C   UNL     1      17.038   7.020  21.090  0.00  0.00    +0.054 C 
ATOM     10  C   UNL     1      18.470   7.514  21.261  0.00  0.00    +0.019 C 
ATOM     11  C   UNL     1      17.081   6.367  19.714  0.00  0.00    +0.019 C 
ATOM     13  C   UNL     1      19.315   6.372  20.703  0.00  0.00    +0.002 C 
ATOM     14  C   UNL     1      18.419   5.632  19.706  0.00  0.00    +0.002 C 
ENDBRANCH   5   7
ENDBRANCH   8   5
BRANCH  12  16
ATOM     16  C   UNL     1      11.332   8.316  20.053  0.00  0.00    +0.138 C 
BRANCH  16   6
ATOM      4  O   UNL     1      10.850   8.531  22.876  0.00  0.00    -0.270 OA
ATOM      6  N   UNL     1      11.309   9.523  20.829  0.00  0.00    -0.309 N 
ATOM     17  C   UNL     1      11.066   9.533  22.200  0.00  0.00    +0.244 C 
ATOM     26  H   UNL     1      11.409  10.394  20.320  0.00  0.00    +0.149 HD
BRANCH  17  18
ATOM      1  F   UNL     1      11.006  14.574  24.671  0.00  0.00    -0.205 F 
ATOM     18  C   UNL     1      11.050  10.867  22.854  0.00  0.00    +0.037 A 
ATOM     19  C   UNL     1      10.961  10.961  24.242  0.00  0.00    +0.016 A 
ATOM     20  C   UNL     1      11.122  12.024  22.079  0.00  0.00    +0.016 A 
ATOM     21  C   UNL     1      10.947  12.213  24.857  0.00  0.00    +0.039 A 
ATOM     22  C   UNL     1      11.107  13.277  22.693  0.00  0.00    +0.039 A 
ATOM     23  C   UNL     1      11.020  13.371  24.082  0.00  0.00    +0.123 A 
ENDBRANCH  17  18
ENDBRANCH  16   6
ENDBRANCH  12  16
TORSDOF 6
ENDMDL
MODEL 5
REMARK VINA RESULT:      -6.5     25.973     27.771
REMARK  Name = 75367087
REMARK  6 active torsions:
REMARK  status: ('A' for Active; 'I' for Inactive)
REMARK    1  A    between atoms: O_3  and  C_9
REMARK    2  A    between atoms: N_5  and  C_7
REMARK    3  A    between atoms: N_5  and  C_8
REMARK    4  A    between atoms: N_6  and  C_16
REMARK    5  A    between atoms: C_12  and  C_16
REMARK    6  A    between atoms: C_17  and  C_18
REMARK                            x       y       z     vdW  Elec       q    Type
REMARK                         _______ _______ _______ _____ _____    ______ ____
ROOT
ATOM      2  O   UNL     1      -1.133 -11.446  15.049  0.00  0.00    -0.371 OA
ATOM      8  C   UNL     1      -3.162 -11.039  16.215  0.00  0.00    +0.111 C 
ATOM      9  C   UNL     1      -3.482 -11.664  14.870  0.00  0.00    +0.164 C 
ATOM     12  C   UNL     1      -2.150 -12.318  14.527  0.00  0.00    +0.165 C 
ATOM     15  C   UNL     1      -1.744 -10.543  15.987  0.00  0.00    +0.181 C 
ENDROOT
BRANCH   9   3
ATOM      3  O   UNL     1      -4.530 -12.611  14.942  0.00  0.00    -0.388 OA
ATOM     25  H   UNL     1      -4.235 -13.352  15.497  0.00  0.00    +0.210 HD
ENDBRANCH   9   3
BRANCH   8   5
ATOM      5  N   UNL     1      -4.080  -9.978  16.597  0.00  0.00    -0.306 NA
ATOM     24  H   UNL     1      -4.674  -9.725  15.810  0.00  0.00    +0.123 HD
BRANCH   5   7
ATOM      7  C   UNL     1      -4.894 -10.375  17.732  0.00  0.00    +0.054 C 
ATOM     10  C   UNL     1      -4.373 -11.631  18.421  0.00  0.00    +0.019 C 
ATOM     11  C   UNL     1      -6.305 -10.785  17.329  0.00  0.00    +0.019 C 
ATOM     13  C   UNL     1      -5.565 -12.112  19.242  0.00  0.00    +0.002 C 
ATOM     14  C   UNL     1      -6.811 -11.567  18.540  0.00  0.00    +0.002 C 
ENDBRANCH   5   7
ENDBRANCH   8   5
BRANCH  12  16
ATOM     16  C   UNL     1      -1.943 -12.512  13.035  0.00  0.00    +0.138 C 
BRANCH  16   6
ATOM      4  O   UNL     1      -1.495  -9.902  11.925  0.00  0.00    -0.270 OA
ATOM      6  N   UNL     1      -2.877 -11.733  12.273  0.00  0.00    -0.309 N 
ATOM     17  C   UNL     1      -2.572 -10.471  11.771  0.00  0.00    +0.244 C 
ATOM     26  H   UNL     1      -3.810 -12.115  12.170  0.00  0.00    +0.149 HD
BRANCH  17  18
ATOM      1  F   UNL     1      -6.671  -7.871   8.950  0.00  0.00    -0.205 F 
ATOM     18  C   UNL     1      -3.657  -9.783  11.025  0.00  0.00    +0.037 A 
ATOM     19  C   UNL     1      -3.434  -9.342   9.720  0.00  0.00    +0.016 A 
ATOM     20  C   UNL     1      -4.896  -9.576  11.629  0.00  0.00    +0.016 A 
ATOM     21  C   UNL     1      -4.452  -8.697   9.019  0.00  0.00    +0.039 A 
ATOM     22  C   UNL     1      -5.915  -8.930  10.928  0.00  0.00    +0.039 A 
ATOM     23  C   UNL     1      -5.693  -8.491   9.623  0.00  0.00    +0.123 A 
ENDBRANCH  17  18
ENDBRANCH  16   6
ENDBRANCH  12  16
TORSDOF 6
ENDMDL
MODEL 6
REMARK VINA RESULT:      -6.1      4.842      8.948
REMARK  Name = 75367087
REMARK  6 active torsions:
REMARK  status: ('A' for Active; 'I' for Inactive)
REMARK    1  A    between atoms: O_3  and  C_9
REMARK    2  A    between atoms: N_5  and  C_7
REMARK    3  A    between atoms: N_5  and  C_8
REMARK    4  A    between atoms: N_6  and  C_16
REMARK    5  A    between atoms: C_12  and  C_16
REMARK    6  A    between atoms: C_17  and  C_18
REMARK                            x       y       z     vdW  Elec       q    Type
REMARK                         _______ _______ _______ _____ _____    ______ ____
ROOT
ATOM      2  O   UNL     1      17.522   7.283  21.149  0.00  0.00    -0.371 OA
ATOM      8  C   UNL     1      19.260   6.049  20.100  0.00  0.00    +0.111 C 
ATOM      9  C   UNL     1      17.927   5.624  19.511  0.00  0.00    +0.164 C 
ATOM     12  C   UNL     1      17.054   6.819  19.871  0.00  0.00    +0.165 C 
ATOM     15  C   UNL     1      18.819   6.713  21.394  0.00  0.00    +0.181 C 
ENDROOT
BRANCH   9   3
ATOM      3  O   UNL     1      17.988   5.418  18.114  0.00  0.00    -0.388 OA
ATOM     25  H   UNL     1      18.680   4.762  17.930  0.00  0.00    +0.210 HD
ENDBRANCH   9   3
BRANCH   8   5
ATOM      5  N   UNL     1      20.181   4.944  20.314  0.00  0.00    -0.306 NA
ATOM     24  H   UNL     1      20.488   4.564  19.420  0.00  0.00    +0.123 HD
BRANCH   5   7
ATOM      7  C   UNL     1      21.326   5.365  21.100  0.00  0.00    +0.054 C 
ATOM     10  C   UNL     1      22.624   5.362  20.300  0.00  0.00    +0.019 C 
ATOM     11  C   UNL     1      21.644   4.403  22.239  0.00  0.00    +0.019 C 
ATOM     13  C   UNL     1      23.709   5.379  21.373  0.00  0.00    +0.002 C 
ATOM     14  C   UNL     1      23.077   4.762  22.624  0.00  0.00    +0.002 C 
ENDBRANCH   5   7
ENDBRANCH   8   5
BRANCH  12  16
ATOM     16  C   UNL     1      15.577   6.479  19.959  0.00  0.00    +0.138 C 
BRANCH  16   6
ATOM      4  O   UNL     1      12.741   6.931  19.940  0.00  0.00    -0.270 OA
ATOM      6  N   UNL     1      14.824   7.156  18.942  0.00  0.00    -0.309 N 
ATOM     17  C   UNL     1      13.445   7.331  19.016  0.00  0.00    +0.244 C 
ATOM     26  H   UNL     1      15.335   7.449  18.117  0.00  0.00    +0.149 HD
BRANCH  17  18
ATOM      1  F   UNL     1      11.044   9.977  14.686  0.00  0.00    -0.205 F 
ATOM     18  C   UNL     1      12.810   8.030  17.870  0.00  0.00    +0.037 A 
ATOM     19  C   UNL     1      11.420   8.057  17.754  0.00  0.00    +0.016 A 
ATOM     20  C   UNL     1      13.602   8.660  16.911  0.00  0.00    +0.016 A 
ATOM     21  C   UNL     1      10.823   8.715  16.679  0.00  0.00    +0.039 A 
ATOM     22  C   UNL     1      13.006   9.317  15.835  0.00  0.00    +0.039 A 
ATOM     23  C   UNL     1      11.616   9.345  15.719  0.00  0.00    +0.123 A 
ENDBRANCH  17  18
ENDBRANCH  16   6
ENDBRANCH  12  16
TORSDOF 6
ENDMDL
MODEL 7
REMARK VINA RESULT:      -6.1      3.817      6.976
REMARK  Name = 75367087
REMARK  6 active torsions:
REMARK  status: ('A' for Active; 'I' for Inactive)
REMARK    1  A    between atoms: O_3  and  C_9
REMARK    2  A    between atoms: N_5  and  C_7
REMARK    3  A    between atoms: N_5  and  C_8
REMARK    4  A    between atoms: N_6  and  C_16
REMARK    5  A    between atoms: C_12  and  C_16
REMARK    6  A    between atoms: C_17  and  C_18
REMARK                            x       y       z     vdW  Elec       q    Type
REMARK                         _______ _______ _______ _____ _____    ______ ____
ROOT
ATOM      2  O   UNL     1      10.848   8.209  19.765  0.00  0.00    -0.371 OA
ATOM      8  C   UNL     1      12.805   7.739  18.504  0.00  0.00    +0.111 C 
ATOM      9  C   UNL     1      13.084   7.464  19.971  0.00  0.00    +0.164 C 
ATOM     12  C   UNL     1      11.670   7.295  20.510  0.00  0.00    +0.165 C 
ATOM     15  C   UNL     1      11.571   8.621  18.593  0.00  0.00    +0.181 C 
ENDROOT
BRANCH   9   3
ATOM      3  O   UNL     1      13.867   6.304  20.170  0.00  0.00    -0.388 OA
ATOM     25  H   UNL     1      14.601   6.527  20.766  0.00  0.00    +0.210 HD
ENDBRANCH   9   3
BRANCH   8   5
ATOM      5  N   UNL     1      13.912   8.379  17.811  0.00  0.00    -0.306 NA
ATOM     24  H   UNL     1      13.941   8.075  16.839  0.00  0.00    +0.123 HD
BRANCH   5   7
ATOM      7  C   UNL     1      13.805   9.825  17.881  0.00  0.00    +0.054 C 
ATOM     10  C   UNL     1      14.067  10.501  16.540  0.00  0.00    +0.019 C 
ATOM     11  C   UNL     1      14.869  10.451  18.775  0.00  0.00    +0.019 C 
ATOM     13  C   UNL     1      14.352  11.952  16.918  0.00  0.00    +0.002 C 
ATOM     14  C   UNL     1      14.868  11.920  18.359  0.00  0.00    +0.002 C 
ENDBRANCH   5   7
ENDBRANCH   8   5
BRANCH  12  16
ATOM     16  C   UNL     1      11.554   7.594  21.994  0.00  0.00    +0.138 C 
BRANCH  16   6
ATOM      4  O   UNL     1      13.228   9.877  22.477  0.00  0.00    -0.270 OA
ATOM      6  N   UNL     1      11.119   8.942  22.223  0.00  0.00    -0.309 N 
ATOM     17  C   UNL     1      12.005   9.992  22.449  0.00  0.00    +0.244 C 
ATOM     26  H   UNL     1      10.119   9.093  22.283  0.00  0.00    +0.149 HD
BRANCH  17  18
ATOM      1  F   UNL     1       9.699  15.026  23.376  0.00  0.00    -0.205 F 
ATOM     18  C   UNL     1      11.396  11.324  22.694  0.00  0.00    +0.037 A 
ATOM     19  C   UNL     1      11.299  12.248  21.654  0.00  0.00    +0.016 A 
ATOM     20  C   UNL     1      10.921  11.650  23.964  0.00  0.00    +0.016 A 
ATOM     21  C   UNL     1      10.725  13.499  21.884  0.00  0.00    +0.039 A 
ATOM     22  C   UNL     1      10.348  12.901  24.195  0.00  0.00    +0.039 A 
ATOM     23  C   UNL     1      10.250  13.825  23.155  0.00  0.00    +0.123 A 
ENDBRANCH  17  18
ENDBRANCH  16   6
ENDBRANCH  12  16
TORSDOF 6
ENDMDL
MODEL 8
REMARK VINA RESULT:      -6.1      5.994     11.291
REMARK  Name = 75367087
REMARK  6 active torsions:
REMARK  status: ('A' for Active; 'I' for Inactive)
REMARK    1  A    between atoms: O_3  and  C_9
REMARK    2  A    between atoms: N_5  and  C_7
REMARK    3  A    between atoms: N_5  and  C_8
REMARK    4  A    between atoms: N_6  and  C_16
REMARK    5  A    between atoms: C_12  and  C_16
REMARK    6  A    between atoms: C_17  and  C_18
REMARK                            x       y       z     vdW  Elec       q    Type
REMARK                         _______ _______ _______ _____ _____    ______ ____
ROOT
ATOM      2  O   UNL     1      23.446   6.316  22.245  0.00  0.00    -0.371 OA
ATOM      8  C   UNL     1      23.709   4.911  20.349  0.00  0.00    +0.111 C 
ATOM      9  C   UNL     1      22.247   4.924  20.755  0.00  0.00    +0.164 C 
ATOM     12  C   UNL     1      22.182   6.209  21.570  0.00  0.00    +0.165 C 
ATOM     15  C   UNL     1      24.378   5.421  21.614  0.00  0.00    +0.181 C 
ENDROOT
BRANCH   9   3
ATOM      3  O   UNL     1      21.371   4.960  19.645  0.00  0.00    -0.388 OA
ATOM     25  H   UNL     1      20.598   4.407  19.847  0.00  0.00    +0.210 HD
ENDBRANCH   9   3
BRANCH   8   5
ATOM      5  N   UNL     1      24.188   3.599  19.943  0.00  0.00    -0.306 NA
ATOM     24  H   UNL     1      24.941   3.694  19.263  0.00  0.00    +0.123 HD
BRANCH   5   7
ATOM      7  C   UNL     1      24.642   2.832  21.089  0.00  0.00    +0.054 C 
ATOM     10  C   UNL     1      26.138   2.544  21.051  0.00  0.00    +0.019 C 
ATOM     11  C   UNL     1      24.042   1.431  21.135  0.00  0.00    +0.019 C 
ATOM     13  C   UNL     1      26.310   1.396  22.042  0.00  0.00    +0.002 C 
ATOM     14  C   UNL     1      24.958   0.679  22.097  0.00  0.00    +0.002 C 
ENDBRANCH   5   7
ENDBRANCH   8   5
BRANCH  12  16
ATOM     16  C   UNL     1      21.054   6.219  22.587  0.00  0.00    +0.138 C 
BRANCH  16   6
ATOM      4  O   UNL     1      19.643   8.499  21.562  0.00  0.00    -0.270 OA
ATOM      6  N   UNL     1      19.771   6.214  21.944  0.00  0.00    -0.309 N 
ATOM     17  C   UNL     1      19.160   7.373  21.476  0.00  0.00    +0.244 C 
ATOM     26  H   UNL     1      19.286   5.326  21.905  0.00  0.00    +0.149 HD
BRANCH  17  18
ATOM      1  F   UNL     1      14.095   6.732  19.141  0.00  0.00    -0.205 F 
ATOM     18  C   UNL     1      17.820   7.204  20.858  0.00  0.00    +0.037 A 
ATOM     19  C   UNL     1      17.647   6.310  19.801  0.00  0.00    +0.016 A 
ATOM     20  C   UNL     1      16.734   7.939  21.333  0.00  0.00    +0.016 A 
ATOM     21  C   UNL     1      16.389   6.150  19.221  0.00  0.00    +0.039 A 
ATOM     22  C   UNL     1      15.475   7.780  20.753  0.00  0.00    +0.039 A 
ATOM     23  C   UNL     1      15.303   6.885  19.697  0.00  0.00    +0.123 A 
ENDBRANCH  17  18
ENDBRANCH  16   6
ENDBRANCH  12  16
TORSDOF 6
ENDMDL
MODEL 9
REMARK VINA RESULT:      -6.1     27.405     29.385
REMARK  Name = 75367087
REMARK  6 active torsions:
REMARK  status: ('A' for Active; 'I' for Inactive)
REMARK    1  A    between atoms: O_3  and  C_9
REMARK    2  A    between atoms: N_5  and  C_7
REMARK    3  A    between atoms: N_5  and  C_8
REMARK    4  A    between atoms: N_6  and  C_16
REMARK    5  A    between atoms: C_12  and  C_16
REMARK    6  A    between atoms: C_17  and  C_18
REMARK                            x       y       z     vdW  Elec       q    Type
REMARK                         _______ _______ _______ _____ _____    ______ ____
ROOT
ATOM      2  O   UNL     1     -11.888  -8.389  15.736  0.00  0.00    -0.371 OA
ATOM      8  C   UNL     1     -11.960  -6.293  14.620  0.00  0.00    +0.111 C 
ATOM      9  C   UNL     1     -10.913  -6.233  15.717  0.00  0.00    +0.164 C 
ATOM     12  C   UNL     1     -10.635  -7.714  15.937  0.00  0.00    +0.165 C 
ATOM     15  C   UNL     1     -12.784  -7.493  15.055  0.00  0.00    +0.181 C 
ENDROOT
BRANCH   9   3
ATOM      3  O   UNL     1      -9.751  -5.530  15.326  0.00  0.00    -0.388 OA
ATOM     25  H   UNL     1      -9.696  -4.712  15.847  0.00  0.00    +0.210 HD
ENDBRANCH   9   3
BRANCH   8   5
ATOM      5  N   UNL     1     -12.749  -5.077  14.500  0.00  0.00    -0.306 NA
ATOM     24  H   UNL     1     -12.232  -4.284  14.875  0.00  0.00    +0.123 HD
BRANCH   5   7
ATOM      7  C   UNL     1     -13.116  -4.828  13.118  0.00  0.00    +0.054 C 
ATOM     10  C   UNL     1     -12.052  -4.047  12.356  0.00  0.00    +0.019 C 
ATOM     11  C   UNL     1     -14.338  -3.926  12.986  0.00  0.00    +0.019 C 
ATOM     13  C   UNL     1     -12.798  -3.517  11.135  0.00  0.00    +0.002 C 
ATOM     14  C   UNL     1     -14.272  -3.440  11.541  0.00  0.00    +0.002 C 
ENDBRANCH   5   7
ENDBRANCH   8   5
BRANCH  12  16
ATOM     16  C   UNL     1     -10.101  -8.025  17.324  0.00  0.00    +0.138 C 
BRANCH  16   6
ATOM      4  O   UNL     1      -9.175 -10.584  18.243  0.00  0.00    -0.270 OA
ATOM      6  N   UNL     1      -8.755  -8.521  17.266  0.00  0.00    -0.309 N 
ATOM     17  C   UNL     1      -8.396  -9.780  17.738  0.00  0.00    +0.244 C 
ATOM     26  H   UNL     1      -8.049  -7.879  16.926  0.00  0.00    +0.149 HD
BRANCH  17  18
ATOM      1  F   UNL     1      -2.959 -11.122  17.330  0.00  0.00    -0.205 F 
ATOM     18  C   UNL     1      -6.957 -10.134  17.630  0.00  0.00    +0.037 A 
ATOM     19  C   UNL     1      -6.315 -10.771  18.692  0.00  0.00    +0.016 A 
ATOM     20  C   UNL     1      -6.249  -9.831  16.468  0.00  0.00    +0.016 A 
ATOM     21  C   UNL     1      -4.964 -11.105  18.591  0.00  0.00    +0.039 A 
ATOM     22  C   UNL     1      -4.898 -10.164  16.366  0.00  0.00    +0.039 A 
ATOM     23  C   UNL     1      -4.256 -10.801  17.428  0.00  0.00    +0.123 A 
ENDBRANCH  17  18
ENDBRANCH  16   6
ENDBRANCH  12  16
TORSDOF 6
ENDMDL
MODEL 10
REMARK VINA RESULT:      -6.0      3.768      4.782
REMARK  Name = 75367087
REMARK  6 active torsions:
REMARK  status: ('A' for Active; 'I' for Inactive)
REMARK    1  A    between atoms: O_3  and  C_9
REMARK    2  A    between atoms: N_5  and  C_7
REMARK    3  A    between atoms: N_5  and  C_8
REMARK    4  A    between atoms: N_6  and  C_16
REMARK    5  A    between atoms: C_12  and  C_16
REMARK    6  A    between atoms: C_17  and  C_18
REMARK                            x       y       z     vdW  Elec       q    Type
REMARK                         _______ _______ _______ _____ _____    ______ ____
ROOT
ATOM      2  O   UNL     1      14.998   7.535  21.196  0.00  0.00    -0.371 OA
ATOM      8  C   UNL     1      12.687   7.391  21.725  0.00  0.00    +0.111 C 
ATOM      9  C   UNL     1      12.877   7.074  20.254  0.00  0.00    +0.164 C 
ATOM     12  C   UNL     1      14.352   6.694  20.225  0.00  0.00    +0.165 C 
ATOM     15  C   UNL     1      13.990   8.102  22.052  0.00  0.00    +0.181 C 
ENDROOT
BRANCH   9   3
ATOM      3  O   UNL     1      12.052   6.014  19.812  0.00  0.00    -0.388 OA
ATOM     25  H   UNL     1      11.965   6.075  18.846  0.00  0.00    +0.210 HD
ENDBRANCH   9   3
BRANCH   8   5
ATOM      5  N   UNL     1      11.513   8.206  21.998  0.00  0.00    -0.306 NA
ATOM     24  H   UNL     1      11.025   7.856  22.820  0.00  0.00    +0.123 HD
BRANCH   5   7
ATOM      7  C   UNL     1      11.877   9.599  22.186  0.00  0.00    +0.054 C 
ATOM     10  C   UNL     1      10.971  10.315  23.182  0.00  0.00    +0.019 C 
ATOM     11  C   UNL     1      11.695  10.431  20.923  0.00  0.00    +0.019 C 
ATOM     13  C   UNL     1      11.218  11.793  22.894  0.00  0.00    +0.002 C 
ATOM     14  C   UNL     1      11.685  11.869  21.438  0.00  0.00    +0.002 C 
ENDBRANCH   5   7
ENDBRANCH   8   5
BRANCH  12  16
ATOM     16  C   UNL     1      14.997   6.893  18.865  0.00  0.00    +0.138 C 
BRANCH  16   6
ATOM      4  O   UNL     1      13.537   7.921  16.616  0.00  0.00    -0.270 OA
ATOM      6  N   UNL     1      14.921   8.264  18.447  0.00  0.00    -0.309 N 
ATOM     17  C   UNL     1      14.185   8.674  17.339  0.00  0.00    +0.244 C 
ATOM     26  H   UNL     1      15.491   8.927  18.958  0.00  0.00    +0.149 HD
BRANCH  17  18
ATOM      1  F   UNL     1      14.350  14.156  16.140  0.00  0.00    -0.205 F 
ATOM     18  C   UNL     1      14.230  10.124  17.022  0.00  0.00    +0.037 A 
ATOM     19  C   UNL     1      14.536  10.546  15.728  0.00  0.00    +0.016 A 
ATOM     20  C   UNL     1      13.965  11.064  18.017  0.00  0.00    +0.016 A 
ATOM     21  C   UNL     1      14.576  11.907  15.429  0.00  0.00    +0.039 A 
ATOM     22  C   UNL     1      14.006  12.426  17.719  0.00  0.00    +0.039 A 
ATOM     23  C   UNL     1      14.311  12.847  16.426  0.00  0.00    +0.123 A 
ENDBRANCH  17  18
ENDBRANCH  16   6
ENDBRANCH  12  16
TORSDOF 6
ENDMDL
