MODEL 1
REMARK VINA RESULT:      -6.9      0.000      0.000
REMARK  Name = 25389034
REMARK  6 active torsions:
REMARK  status: ('A' for Active; 'I' for Inactive)
REMARK    1  A    between atoms: N_4  and  C_18
REMARK    2  A    between atoms: N_5  and  C_15
REMARK    3  A    between atoms: C_8  and  C_14
REMARK    4  A    between atoms: C_9  and  C_15
REMARK    5  A    between atoms: C_17  and  C_20
REMARK    6  A    between atoms: C_19  and  C_21
REMARK                            x       y       z     vdW  Elec       q    Type
REMARK                         _______ _______ _______ _____ _____    ______ ____
ROOT
ATOM      3  N   UNL     1      -6.179 -10.358  17.788  0.00  0.00    -0.297 NA
ATOM      7  C   UNL     1      -4.600 -12.215  16.871  0.00  0.00    +0.002 C 
ATOM      8  C   UNL     1      -4.156 -10.819  16.353  0.00  0.00    +0.055 C 
ATOM      9  C   UNL     1      -6.981 -11.460  17.195  0.00  0.00    +0.074 C 
ATOM     10  C   UNL     1      -6.067 -12.467  16.464  0.00  0.00    +0.024 C 
ATOM     11  C   UNL     1      -4.562 -12.150  18.413  0.00  0.00    +0.019 C 
ATOM     12  C   UNL     1      -5.253  -9.798  16.772  0.00  0.00    +0.094 C 
ATOM     13  C   UNL     1      -5.368 -10.929  18.889  0.00  0.00    +0.085 C 
ENDROOT
BRANCH   8  14
ATOM      4  N   UNL     1      -2.481 -10.575  14.461  0.00  0.00    -0.270 N 
ATOM      6  N   UNL     1      -2.355 -10.467  13.128  0.00  0.00    -0.171 NA
ATOM     14  C   UNL     1      -3.773 -10.685  14.886  0.00  0.00    +0.044 A 
ATOM     16  C   UNL     1      -4.546 -10.643  13.751  0.00  0.00    +0.053 A 
ATOM     17  C   UNL     1      -3.620 -10.509  12.700  0.00  0.00    +0.093 A 
ATOM     18  C   UNL     1      -1.295 -10.565  15.286  0.00  0.00    +0.172 C 
BRANCH  17  20
ATOM      1  F   UNL     1      -4.781 -10.155   7.264  0.00  0.00    -0.205 F 
ATOM     20  C   UNL     1      -3.920 -10.418  11.294  0.00  0.00    +0.002 A 
ATOM     22  C   UNL     1      -4.221 -11.570  10.569  0.00  0.00    +0.013 A 
ATOM     23  C   UNL     1      -3.909  -9.176  10.658  0.00  0.00    +0.013 A 
ATOM     24  C   UNL     1      -4.512 -11.482   9.208  0.00  0.00    +0.039 A 
ATOM     25  C   UNL     1      -4.201  -9.088   9.297  0.00  0.00    +0.039 A 
ATOM     26  C   UNL     1      -4.502 -10.241   8.572  0.00  0.00    +0.123 A 
ENDBRANCH  17  20
ENDBRANCH   8  14
BRANCH   9  15
ATOM     15  C   UNL     1      -8.100 -10.944  16.288  0.00  0.00    +0.123 C 
BRANCH  15   5
ATOM      2  O   UNL     1      -9.411  -8.700  14.992  0.00  0.00    -0.276 OA
ATOM      5  N   UNL     1      -8.812  -9.873  16.914  0.00  0.00    -0.314 N 
ATOM     19  C   UNL     1      -9.414  -8.831  16.213  0.00  0.00    +0.210 C 
ATOM     21  C   UNL     1     -10.118  -7.853  17.114  0.00  0.00    +0.109 C 
ATOM     27  H   UNL     1      -8.852  -9.863  17.929  0.00  0.00    +0.149 HD
ENDBRANCH  15   5
ENDBRANCH   9  15
TORSDOF 4
ENDMDL
MODEL 2
REMARK VINA RESULT:      -6.6     27.450     29.724
REMARK  Name = 25389034
REMARK  6 active torsions:
REMARK  status: ('A' for Active; 'I' for Inactive)
REMARK    1  A    between atoms: N_4  and  C_18
REMARK    2  A    between atoms: N_5  and  C_15
REMARK    3  A    between atoms: C_8  and  C_14
REMARK    4  A    between atoms: C_9  and  C_15
REMARK    5  A    between atoms: C_17  and  C_20
REMARK    6  A    between atoms: C_19  and  C_21
REMARK                            x       y       z     vdW  Elec       q    Type
REMARK                         _______ _______ _______ _____ _____    ______ ____
ROOT
ATOM      3  N   UNL     1      12.133  12.345  23.838  0.00  0.00    -0.297 NA
ATOM      7  C   UNL     1      12.158  12.220  21.237  0.00  0.00    +0.002 C 
ATOM      8  C   UNL     1      12.023  10.798  21.848  0.00  0.00    +0.055 C 
ATOM      9  C   UNL     1      13.282  13.122  23.303  0.00  0.00    +0.074 C 
ATOM     10  C   UNL     1      13.435  12.892  21.785  0.00  0.00    +0.024 C 
ATOM     11  C   UNL     1      10.957  13.042  21.753  0.00  0.00    +0.019 C 
ATOM     12  C   UNL     1      12.218  10.934  23.385  0.00  0.00    +0.094 C 
ATOM     13  C   UNL     1      10.890  12.934  23.286  0.00  0.00    +0.085 C 
ENDROOT
BRANCH   8  14
ATOM      4  N   UNL     1      12.355   8.716  20.435  0.00  0.00    -0.270 N 
ATOM      6  N   UNL     1      13.264   7.818  20.019  0.00  0.00    -0.171 NA
ATOM     14  C   UNL     1      12.867   9.679  21.256  0.00  0.00    +0.044 A 
ATOM     16  C   UNL     1      14.203   9.389  21.386  0.00  0.00    +0.053 A 
ATOM     17  C   UNL     1      14.391   8.234  20.603  0.00  0.00    +0.093 A 
ATOM     18  C   UNL     1      10.985   8.587  19.999  0.00  0.00    +0.172 C 
BRANCH  17  20
ATOM      1  F   UNL     1      19.167   5.474  19.835  0.00  0.00    -0.205 F 
ATOM     20  C   UNL     1      15.626   7.520  20.404  0.00  0.00    +0.002 A 
ATOM     22  C   UNL     1      15.771   6.669  19.309  0.00  0.00    +0.013 A 
ATOM     23  C   UNL     1      16.676   7.679  21.308  0.00  0.00    +0.013 A 
ATOM     24  C   UNL     1      16.966   5.978  19.117  0.00  0.00    +0.039 A 
ATOM     25  C   UNL     1      17.873   6.988  21.115  0.00  0.00    +0.039 A 
ATOM     26  C   UNL     1      18.018   6.137  20.020  0.00  0.00    +0.123 A 
ENDBRANCH  17  20
ENDBRANCH   8  14
BRANCH   9  15
ATOM     15  C   UNL     1      14.582  12.835  24.058  0.00  0.00    +0.123 C 
BRANCH  15   5
ATOM      2  O   UNL     1      14.454  11.243  26.484  0.00  0.00    -0.276 OA
ATOM      5  N   UNL     1      14.505  13.308  25.405  0.00  0.00    -0.314 N 
ATOM     19  C   UNL     1      14.448  12.471  26.517  0.00  0.00    +0.210 C 
ATOM     21  C   UNL     1      14.399  13.230  27.815  0.00  0.00    +0.109 C 
ATOM     27  H   UNL     1      14.462  14.313  25.550  0.00  0.00    +0.149 HD
ENDBRANCH  15   5
ENDBRANCH   9  15
TORSDOF 4
ENDMDL
MODEL 3
REMARK VINA RESULT:      -6.5      3.438      7.460
REMARK  Name = 25389034
REMARK  6 active torsions:
REMARK  status: ('A' for Active; 'I' for Inactive)
REMARK    1  A    between atoms: N_4  and  C_18
REMARK    2  A    between atoms: N_5  and  C_15
REMARK    3  A    between atoms: C_8  and  C_14
REMARK    4  A    between atoms: C_9  and  C_15
REMARK    5  A    between atoms: C_17  and  C_20
REMARK    6  A    between atoms: C_19  and  C_21
REMARK                            x       y       z     vdW  Elec       q    Type
REMARK                         _______ _______ _______ _____ _____    ______ ____
ROOT
ATOM      3  N   UNL     1      -5.309 -12.427  16.912  0.00  0.00    -0.297 NA
ATOM      7  C   UNL     1      -5.854 -10.726  18.808  0.00  0.00    +0.002 C 
ATOM      8  C   UNL     1      -7.149 -11.441  18.331  0.00  0.00    +0.055 C 
ATOM      9  C   UNL     1      -4.697 -11.107  16.603  0.00  0.00    +0.074 C 
ATOM     10  C   UNL     1      -5.179 -10.036  17.604  0.00  0.00    +0.024 C 
ATOM     11  C   UNL     1      -4.891 -11.829  19.297  0.00  0.00    +0.019 C 
ATOM     12  C   UNL     1      -6.777 -12.281  17.075  0.00  0.00    +0.094 C 
ATOM     13  C   UNL     1      -4.746 -12.898  18.200  0.00  0.00    +0.085 C 
ENDROOT
BRANCH   8  14
ATOM      4  N   UNL     1      -9.515 -10.710  18.887  0.00  0.00    -0.270 N 
ATOM      6  N   UNL     1     -10.507  -9.877  18.532  0.00  0.00    -0.171 NA
ATOM     14  C   UNL     1      -8.396 -10.598  18.113  0.00  0.00    +0.044 A 
ATOM     16  C   UNL     1      -8.679  -9.625  17.186  0.00  0.00    +0.053 A 
ATOM     17  C   UNL     1      -9.991  -9.217  17.492  0.00  0.00    +0.093 A 
ATOM     18  C   UNL     1      -9.711 -11.607  20.002  0.00  0.00    +0.172 C 
BRANCH  17  20
ATOM      1  F   UNL     1     -12.970  -5.323  14.850  0.00  0.00    -0.205 F 
ATOM     20  C   UNL     1     -10.761  -8.210  16.808  0.00  0.00    +0.002 A 
ATOM     22  C   UNL     1     -10.122  -7.105  16.247  0.00  0.00    +0.013 A 
ATOM     23  C   UNL     1     -12.146  -8.340  16.709  0.00  0.00    +0.013 A 
ATOM     24  C   UNL     1     -10.867  -6.130  15.586  0.00  0.00    +0.039 A 
ATOM     25  C   UNL     1     -12.892  -7.365  16.047  0.00  0.00    +0.039 A 
ATOM     26  C   UNL     1     -12.253  -6.259  15.485  0.00  0.00    +0.123 A 
ENDBRANCH  17  20
ENDBRANCH   8  14
BRANCH   9  15
ATOM     15  C   UNL     1      -4.934 -10.681  15.153  0.00  0.00    +0.123 C 
BRANCH  15   5
ATOM      2  O   UNL     1      -4.180 -11.552  12.487  0.00  0.00    -0.276 OA
ATOM      5  N   UNL     1      -3.694 -10.447  14.480  0.00  0.00    -0.314 N 
ATOM     19  C   UNL     1      -3.415 -10.903  13.194  0.00  0.00    +0.210 C 
ATOM     21  C   UNL     1      -2.047 -10.495  12.717  0.00  0.00    +0.109 C 
ATOM     27  H   UNL     1      -2.971  -9.944  14.986  0.00  0.00    +0.149 HD
ENDBRANCH  15   5
ENDBRANCH   9  15
TORSDOF 4
ENDMDL
MODEL 4
REMARK VINA RESULT:      -6.4     23.142     26.781
REMARK  Name = 25389034
REMARK  6 active torsions:
REMARK  status: ('A' for Active; 'I' for Inactive)
REMARK    1  A    between atoms: N_4  and  C_18
REMARK    2  A    between atoms: N_5  and  C_15
REMARK    3  A    between atoms: C_8  and  C_14
REMARK    4  A    between atoms: C_9  and  C_15
REMARK    5  A    between atoms: C_17  and  C_20
REMARK    6  A    between atoms: C_19  and  C_21
REMARK                            x       y       z     vdW  Elec       q    Type
REMARK                         _______ _______ _______ _____ _____    ______ ____
ROOT
ATOM      3  N   UNL     1      12.174   6.149   0.087  0.00  0.00    -0.297 NA
ATOM      7  C   UNL     1      10.043   4.861   0.848  0.00  0.00    +0.002 C 
ATOM      8  C   UNL     1      10.065   6.287   1.465  0.00  0.00    +0.055 C 
ATOM      9  C   UNL     1      12.549   4.807   0.604  0.00  0.00    +0.074 C 
ATOM     10  C   UNL     1      11.332   4.112   1.249  0.00  0.00    +0.024 C 
ATOM     11  C   UNL     1      10.080   5.038  -0.685  0.00  0.00    +0.019 C 
ATOM     12  C   UNL     1      11.450   6.914   1.134  0.00  0.00    +0.094 C 
ATOM     13  C   UNL     1      11.258   5.954  -1.061  0.00  0.00    +0.085 C 
ENDROOT
BRANCH   8  14
ATOM      4  N   UNL     1       8.946   7.475   3.409  0.00  0.00    -0.270 N 
ATOM      6  N   UNL     1       8.735   7.428   4.735  0.00  0.00    -0.171 NA
ATOM     14  C   UNL     1       9.699   6.440   2.934  0.00  0.00    +0.044 A 
ATOM     16  C   UNL     1      10.002   5.664   4.026  0.00  0.00    +0.053 A 
ATOM     17  C   UNL     1       9.383   6.321   5.107  0.00  0.00    +0.093 A 
ATOM     18  C   UNL     1       8.387   8.563   2.643  0.00  0.00    +0.172 C 
BRANCH  17  20
ATOM      1  F   UNL     1       9.446   4.731  10.444  0.00  0.00    -0.205 F 
ATOM     20  C   UNL     1       9.399   5.910   6.487  0.00  0.00    +0.002 A 
ATOM     22  C   UNL     1       9.004   6.801   7.485  0.00  0.00    +0.013 A 
ATOM     23  C   UNL     1       9.810   4.621   6.826  0.00  0.00    +0.013 A 
ATOM     24  C   UNL     1       9.020   6.403   8.821  0.00  0.00    +0.039 A 
ATOM     25  C   UNL     1       9.825   4.222   8.163  0.00  0.00    +0.039 A 
ATOM     26  C   UNL     1       9.431   5.114   9.161  0.00  0.00    +0.123 A 
ENDBRANCH  17  20
ENDBRANCH   8  14
BRANCH   9  15
ATOM     15  C   UNL     1      13.745   4.863   1.558  0.00  0.00    +0.123 C 
BRANCH  15   5
ATOM      2  O   UNL     1      16.016   4.026  -0.046  0.00  0.00    -0.276 OA
ATOM      5  N   UNL     1      14.785   5.689   1.025  0.00  0.00    -0.314 N 
ATOM     19  C   UNL     1      15.843   5.202   0.261  0.00  0.00    +0.210 C 
ATOM     21  C   UNL     1      16.780   6.288  -0.193  0.00  0.00    +0.109 C 
ATOM     27  H   UNL     1      14.759   6.681   1.245  0.00  0.00    +0.149 HD
ENDBRANCH  15   5
ENDBRANCH   9  15
TORSDOF 4
ENDMDL
MODEL 5
REMARK VINA RESULT:      -6.4     26.788     29.219
REMARK  Name = 25389034
REMARK  6 active torsions:
REMARK  status: ('A' for Active; 'I' for Inactive)
REMARK    1  A    between atoms: N_4  and  C_18
REMARK    2  A    between atoms: N_5  and  C_15
REMARK    3  A    between atoms: C_8  and  C_14
REMARK    4  A    between atoms: C_9  and  C_15
REMARK    5  A    between atoms: C_17  and  C_20
REMARK    6  A    between atoms: C_19  and  C_21
REMARK                            x       y       z     vdW  Elec       q    Type
REMARK                         _______ _______ _______ _____ _____    ______ ____
ROOT
ATOM      3  N   UNL     1      11.661  11.049  20.782  0.00  0.00    -0.297 NA
ATOM      7  C   UNL     1      12.907  10.369  22.966  0.00  0.00    +0.002 C 
ATOM      8  C   UNL     1      13.908  10.944  21.926  0.00  0.00    +0.055 C 
ATOM      9  C   UNL     1      11.278   9.668  21.177  0.00  0.00    +0.074 C 
ATOM     10  C   UNL     1      12.157   9.172  22.344  0.00  0.00    +0.024 C 
ATOM     11  C   UNL     1      11.859  11.472  23.232  0.00  0.00    +0.019 C 
ATOM     12  C   UNL     1      13.130  11.136  20.591  0.00  0.00    +0.094 C 
ATOM     13  C   UNL     1      11.284  11.959  21.890  0.00  0.00    +0.085 C 
ENDROOT
BRANCH   8  14
ATOM      4  N   UNL     1      16.442  10.807  21.944  0.00  0.00    -0.270 N 
ATOM      6  N   UNL     1      17.489   9.998  21.708  0.00  0.00    -0.171 NA
ATOM     14  C   UNL     1      15.230  10.219  21.724  0.00  0.00    +0.044 A 
ATOM     16  C   UNL     1      15.504   8.937  21.315  0.00  0.00    +0.053 A 
ATOM     17  C   UNL     1      16.910   8.857  21.324  0.00  0.00    +0.093 A 
ATOM     18  C   UNL     1      16.682  12.161  22.385  0.00  0.00    +0.172 C 
BRANCH  17  20
ATOM      1  F   UNL     1      20.004   4.431  19.963  0.00  0.00    -0.205 F 
ATOM     20  C   UNL     1      17.710   7.712  20.972  0.00  0.00    +0.002 A 
ATOM     22  C   UNL     1      17.264   6.825  19.993  0.00  0.00    +0.013 A 
ATOM     23  C   UNL     1      18.930   7.492  21.610  0.00  0.00    +0.013 A 
ATOM     24  C   UNL     1      18.039   5.717  19.652  0.00  0.00    +0.039 A 
ATOM     25  C   UNL     1      19.705   6.383  21.269  0.00  0.00    +0.039 A 
ATOM     26  C   UNL     1      19.259   5.495  20.290  0.00  0.00    +0.123 A 
ENDBRANCH  17  20
ENDBRANCH   8  14
BRANCH   9  15
ATOM     15  C   UNL     1      11.300   8.697  19.994  0.00  0.00    +0.123 C 
BRANCH  15   5
ATOM      2  O   UNL     1      12.125   7.165  17.669  0.00  0.00    -0.276 OA
ATOM      5  N   UNL     1      12.618   8.588  19.447  0.00  0.00    -0.314 N 
ATOM     19  C   UNL     1      12.927   7.828  18.322  0.00  0.00    +0.210 C 
ATOM     21  C   UNL     1      14.382   7.908  17.947  0.00  0.00    +0.109 C 
ATOM     27  H   UNL     1      13.370   9.072  19.929  0.00  0.00    +0.149 HD
ENDBRANCH  15   5
ENDBRANCH   9  15
TORSDOF 4
ENDMDL
MODEL 6
REMARK VINA RESULT:      -6.3      2.348      4.432
REMARK  Name = 25389034
REMARK  6 active torsions:
REMARK  status: ('A' for Active; 'I' for Inactive)
REMARK    1  A    between atoms: N_4  and  C_18
REMARK    2  A    between atoms: N_5  and  C_15
REMARK    3  A    between atoms: C_8  and  C_14
REMARK    4  A    between atoms: C_9  and  C_15
REMARK    5  A    between atoms: C_17  and  C_20
REMARK    6  A    between atoms: C_19  and  C_21
REMARK                            x       y       z     vdW  Elec       q    Type
REMARK                         _______ _______ _______ _____ _____    ______ ____
ROOT
ATOM      3  N   UNL     1      -6.691 -12.756  18.375  0.00  0.00    -0.297 NA
ATOM      7  C   UNL     1      -7.154 -10.217  18.028  0.00  0.00    +0.002 C 
ATOM      8  C   UNL     1      -7.683 -11.036  16.818  0.00  0.00    +0.055 C 
ATOM      9  C   UNL     1      -5.449 -11.975  18.616  0.00  0.00    +0.074 C 
ATOM     10  C   UNL     1      -5.649 -10.498  18.216  0.00  0.00    +0.024 C 
ATOM     11  C   UNL     1      -7.876 -10.758  19.282  0.00  0.00    +0.019 C 
ATOM     12  C   UNL     1      -7.194 -12.502  17.002  0.00  0.00    +0.094 C 
ATOM     13  C   UNL     1      -7.716 -12.287  19.337  0.00  0.00    +0.085 C 
ENDROOT
BRANCH   8  14
ATOM      4  N   UNL     1      -8.376  -9.961  14.626  0.00  0.00    -0.270 N 
ATOM      6  N   UNL     1      -7.930  -9.555  13.426  0.00  0.00    -0.171 NA
ATOM     14  C   UNL     1      -7.409 -10.508  15.418  0.00  0.00    +0.044 A 
ATOM     16  C   UNL     1      -6.250 -10.457  14.683  0.00  0.00    +0.053 A 
ATOM     17  C   UNL     1      -6.631  -9.861  13.466  0.00  0.00    +0.093 A 
ATOM     18  C   UNL     1      -9.772  -9.792  14.955  0.00  0.00    +0.172 C 
BRANCH  17  20
ATOM      1  F   UNL     1      -3.329  -8.771   9.115  0.00  0.00    -0.205 F 
ATOM     20  C   UNL     1      -5.777  -9.579  12.340  0.00  0.00    +0.002 A 
ATOM     22  C   UNL     1      -6.216  -8.725  11.329  0.00  0.00    +0.013 A 
ATOM     23  C   UNL     1      -4.512 -10.161  12.263  0.00  0.00    +0.013 A 
ATOM     24  C   UNL     1      -5.389  -8.452  10.240  0.00  0.00    +0.039 A 
ATOM     25  C   UNL     1      -3.685  -9.888  11.173  0.00  0.00    +0.039 A 
ATOM     26  C   UNL     1      -4.124  -9.033  10.161  0.00  0.00    +0.123 A 
ENDBRANCH  17  20
ENDBRANCH   8  14
BRANCH   9  15
ATOM     15  C   UNL     1      -4.230 -12.593  17.928  0.00  0.00    +0.123 C 
BRANCH  15   5
ATOM      2  O   UNL     1      -3.469 -12.627  15.126  0.00  0.00    -0.276 OA
ATOM      5  N   UNL     1      -3.486 -11.599  17.217  0.00  0.00    -0.314 N 
ATOM     19  C   UNL     1      -3.164 -11.695  15.866  0.00  0.00    +0.210 C 
ATOM     21  C   UNL     1      -2.398 -10.501  15.364  0.00  0.00    +0.109 C 
ATOM     27  H   UNL     1      -3.153 -10.795  17.741  0.00  0.00    +0.149 HD
ENDBRANCH  15   5
ENDBRANCH   9  15
TORSDOF 4
ENDMDL
MODEL 7
REMARK VINA RESULT:      -6.3     26.710     29.295
REMARK  Name = 25389034
REMARK  6 active torsions:
REMARK  status: ('A' for Active; 'I' for Inactive)
REMARK    1  A    between atoms: N_4  and  C_18
REMARK    2  A    between atoms: N_5  and  C_15
REMARK    3  A    between atoms: C_8  and  C_14
REMARK    4  A    between atoms: C_9  and  C_15
REMARK    5  A    between atoms: C_17  and  C_20
REMARK    6  A    between atoms: C_19  and  C_21
REMARK                            x       y       z     vdW  Elec       q    Type
REMARK                         _______ _______ _______ _____ _____    ______ ____
ROOT
ATOM      3  N   UNL     1      13.492   9.685  20.147  0.00  0.00    -0.297 NA
ATOM      7  C   UNL     1      14.860   8.942  22.235  0.00  0.00    +0.002 C 
ATOM      8  C   UNL     1      15.798   9.132  21.010  0.00  0.00    +0.055 C 
ATOM      9  C   UNL     1      12.858   8.495  20.773  0.00  0.00    +0.074 C 
ATOM     10  C   UNL     1      13.762   7.917  21.882  0.00  0.00    +0.024 C 
ATOM     11  C   UNL     1      14.157  10.297  22.471  0.00  0.00    +0.019 C 
ATOM     12  C   UNL     1      14.893   9.374  19.768  0.00  0.00    +0.094 C 
ATOM     13  C   UNL     1      13.516  10.771  21.155  0.00  0.00    +0.085 C 
ENDROOT
BRANCH   8  14
ATOM      4  N   UNL     1      16.720   7.086  19.824  0.00  0.00    -0.270 N 
ATOM      6  N   UNL     1      17.774   6.255  19.749  0.00  0.00    -0.171 NA
ATOM     14  C   UNL     1      16.864   8.077  20.751  0.00  0.00    +0.044 A 
ATOM     16  C   UNL     1      18.096   7.879  21.323  0.00  0.00    +0.053 A 
ATOM     17  C   UNL     1      18.611   6.745  20.668  0.00  0.00    +0.093 A 
ATOM     18  C   UNL     1      15.584   6.865  18.960  0.00  0.00    +0.172 C 
BRANCH  17  20
ATOM      1  F   UNL     1      23.543   4.323  21.576  0.00  0.00    -0.205 F 
ATOM     20  C   UNL     1      19.887   6.119  20.903  0.00  0.00    +0.002 A 
ATOM     22  C   UNL     1      20.897   6.819  21.560  0.00  0.00    +0.013 A 
ATOM     23  C   UNL     1      20.111   4.811  20.472  0.00  0.00    +0.013 A 
ATOM     24  C   UNL     1      22.132   6.213  21.788  0.00  0.00    +0.039 A 
ATOM     25  C   UNL     1      21.347   4.205  20.699  0.00  0.00    +0.039 A 
ATOM     26  C   UNL     1      22.357   4.906  21.357  0.00  0.00    +0.123 A 
ENDBRANCH  17  20
ENDBRANCH   8  14
BRANCH   9  15
ATOM     15  C   UNL     1      12.468   7.433  19.743  0.00  0.00    +0.123 C 
BRANCH  15   5
ATOM      2  O   UNL     1      12.928   7.811  16.901  0.00  0.00    -0.276 OA
ATOM      5  N   UNL     1      11.556   7.967  18.779  0.00  0.00    -0.314 N 
ATOM     19  C   UNL     1      11.860   8.114  17.428  0.00  0.00    +0.210 C 
ATOM     21  C   UNL     1      10.714   8.676  16.632  0.00  0.00    +0.109 C 
ATOM     27  H   UNL     1      10.649   8.281  19.111  0.00  0.00    +0.149 HD
ENDBRANCH  15   5
ENDBRANCH   9  15
TORSDOF 4
ENDMDL
MODEL 8
REMARK VINA RESULT:      -6.3     18.154     21.093
REMARK  Name = 25389034
REMARK  6 active torsions:
REMARK  status: ('A' for Active; 'I' for Inactive)
REMARK    1  A    between atoms: N_4  and  C_18
REMARK    2  A    between atoms: N_5  and  C_15
REMARK    3  A    between atoms: C_8  and  C_14
REMARK    4  A    between atoms: C_9  and  C_15
REMARK    5  A    between atoms: C_17  and  C_20
REMARK    6  A    between atoms: C_19  and  C_21
REMARK                            x       y       z     vdW  Elec       q    Type
REMARK                         _______ _______ _______ _____ _____    ______ ____
ROOT
ATOM      3  N   UNL     1       0.028 -13.379  -7.190  0.00  0.00    -0.297 NA
ATOM      7  C   UNL     1       2.497 -12.841  -6.563  0.00  0.00    +0.002 C 
ATOM      8  C   UNL     1       2.205 -14.355  -6.370  0.00  0.00    +0.055 C 
ATOM      9  C   UNL     1       0.075 -12.221  -6.259  0.00  0.00    +0.074 C 
ATOM     10  C   UNL     1       1.505 -12.017  -5.715  0.00  0.00    +0.024 C 
ATOM     11  C   UNL     1       2.206 -12.517  -8.044  0.00  0.00    +0.019 C 
ATOM     12  C   UNL     1       0.675 -14.560  -6.566  0.00  0.00    +0.094 C 
ATOM     13  C   UNL     1       0.796 -13.017  -8.404  0.00  0.00    +0.085 C 
ENDROOT
BRANCH   8  14
ATOM      4  N   UNL     1       2.759 -16.386  -4.952  0.00  0.00    -0.270 N 
ATOM      6  N   UNL     1       3.248 -16.783  -3.765  0.00  0.00    -0.171 NA
ATOM     14  C   UNL     1       2.721 -15.031  -5.108  0.00  0.00    +0.044 A 
ATOM     16  C   UNL     1       3.217 -14.505  -3.940  0.00  0.00    +0.053 A 
ATOM     17  C   UNL     1       3.526 -15.629  -3.151  0.00  0.00    +0.093 A 
ATOM     18  C   UNL     1       2.337 -17.381  -5.910  0.00  0.00    +0.172 C 
BRANCH  17  20
ATOM      1  F   UNL     1       5.668 -15.605   1.990  0.00  0.00    -0.205 F 
ATOM     20  C   UNL     1       4.080 -15.623  -1.821  0.00  0.00    +0.002 A 
ATOM     22  C   UNL     1       4.528 -14.428  -1.259  0.00  0.00    +0.013 A 
ATOM     23  C   UNL     1       4.169 -16.811  -1.098  0.00  0.00    +0.013 A 
ATOM     24  C   UNL     1       5.064 -14.422   0.028  0.00  0.00    +0.039 A 
ATOM     25  C   UNL     1       4.705 -16.805   0.190  0.00  0.00    +0.039 A 
ATOM     26  C   UNL     1       5.153 -15.610   0.753  0.00  0.00    +0.123 A 
ENDBRANCH  17  20
ENDBRANCH   8  14
BRANCH   9  15
ATOM     15  C   UNL     1      -0.953 -12.337  -5.132  0.00  0.00    +0.123 C 
BRANCH  15   5
ATOM      2  O   UNL     1      -1.058 -14.716  -3.470  0.00  0.00    -0.276 OA
ATOM      5  N   UNL     1      -0.309 -12.547  -3.872  0.00  0.00    -0.314 N 
ATOM     19  C   UNL     1      -0.412 -13.726  -3.138  0.00  0.00    +0.210 C 
ATOM     21  C   UNL     1       0.385 -13.689  -1.863  0.00  0.00    +0.109 C 
ATOM     27  H   UNL     1       0.230 -11.777  -3.484  0.00  0.00    +0.149 HD
ENDBRANCH  15   5
ENDBRANCH   9  15
TORSDOF 4
ENDMDL
MODEL 9
REMARK VINA RESULT:      -6.1     12.163     17.005
REMARK  Name = 25389034
REMARK  6 active torsions:
REMARK  status: ('A' for Active; 'I' for Inactive)
REMARK    1  A    between atoms: N_4  and  C_18
REMARK    2  A    between atoms: N_5  and  C_15
REMARK    3  A    between atoms: C_8  and  C_14
REMARK    4  A    between atoms: C_9  and  C_15
REMARK    5  A    between atoms: C_17  and  C_20
REMARK    6  A    between atoms: C_19  and  C_21
REMARK                            x       y       z     vdW  Elec       q    Type
REMARK                         _______ _______ _______ _____ _____    ______ ____
ROOT
ATOM      3  N   UNL     1       2.953 -15.681  -1.962  0.00  0.00    -0.297 NA
ATOM      7  C   UNL     1       3.859 -14.594   0.224  0.00  0.00    +0.002 C 
ATOM      8  C   UNL     1       2.855 -15.732   0.558  0.00  0.00    +0.055 C 
ATOM      9  C   UNL     1       2.831 -14.202  -2.042  0.00  0.00    +0.074 C 
ATOM     10  C   UNL     1       3.168 -13.554  -0.683  0.00  0.00    +0.024 C 
ATOM     11  C   UNL     1       4.996 -15.232  -0.604  0.00  0.00    +0.019 C 
ATOM     12  C   UNL     1       2.212 -16.191  -0.782  0.00  0.00    +0.094 C 
ATOM     13  C   UNL     1       4.387 -16.010  -1.784  0.00  0.00    +0.085 C 
ENDROOT
BRANCH   8  14
ATOM      4  N   UNL     1       1.740 -16.216   2.786  0.00  0.00    -0.270 N 
ATOM      6  N   UNL     1       0.753 -15.833   3.614  0.00  0.00    -0.171 NA
ATOM     14  C   UNL     1       1.817 -15.478   1.641  0.00  0.00    +0.044 A 
ATOM     16  C   UNL     1       0.808 -14.550   1.725  0.00  0.00    +0.053 A 
ATOM     17  C   UNL     1       0.187 -14.815   2.960  0.00  0.00    +0.093 A 
ATOM     18  C   UNL     1       2.589 -17.322   3.164  0.00  0.00    +0.172 C 
BRANCH  17  20
ATOM      1  F   UNL     1      -4.160 -12.109   5.150  0.00  0.00    -0.205 F 
ATOM     20  C   UNL     1      -0.937 -14.116   3.527  0.00  0.00    +0.002 A 
ATOM     22  C   UNL     1      -1.208 -14.220   4.891  0.00  0.00    +0.013 A 
ATOM     23  C   UNL     1      -1.755 -13.335   2.711  0.00  0.00    +0.013 A 
ATOM     24  C   UNL     1      -2.296 -13.542   5.440  0.00  0.00    +0.039 A 
ATOM     25  C   UNL     1      -2.844 -12.657   3.259  0.00  0.00    +0.039 A 
ATOM     26  C   UNL     1      -3.115 -12.761   4.624  0.00  0.00    +0.123 A 
ENDBRANCH  17  20
ENDBRANCH   8  14
BRANCH   9  15
ATOM     15  C   UNL     1       1.462 -13.758  -2.563  0.00  0.00    +0.123 C 
BRANCH  15   5
ATOM      2  O   UNL     1       1.554 -12.796  -5.301  0.00  0.00    -0.276 OA
ATOM      5  N   UNL     1       1.501 -12.398  -3.005  0.00  0.00    -0.314 N 
ATOM     19  C   UNL     1       1.543 -12.023  -4.346  0.00  0.00    +0.210 C 
ATOM     21  C   UNL     1       1.552 -10.530  -4.533  0.00  0.00    +0.109 C 
ATOM     27  H   UNL     1       1.528 -11.671  -2.296  0.00  0.00    +0.149 HD
ENDBRANCH  15   5
ENDBRANCH   9  15
TORSDOF 4
ENDMDL
MODEL 10
REMARK VINA RESULT:      -6.1      5.452      9.034
REMARK  Name = 25389034
REMARK  6 active torsions:
REMARK  status: ('A' for Active; 'I' for Inactive)
REMARK    1  A    between atoms: N_4  and  C_18
REMARK    2  A    between atoms: N_5  and  C_15
REMARK    3  A    between atoms: C_8  and  C_14
REMARK    4  A    between atoms: C_9  and  C_15
REMARK    5  A    between atoms: C_17  and  C_20
REMARK    6  A    between atoms: C_19  and  C_21
REMARK                            x       y       z     vdW  Elec       q    Type
REMARK                         _______ _______ _______ _____ _____    ______ ____
ROOT
ATOM      3  N   UNL     1      -6.035 -11.905  17.253  0.00  0.00    -0.297 NA
ATOM      7  C   UNL     1      -6.364 -11.352  19.776  0.00  0.00    +0.002 C 
ATOM      8  C   UNL     1      -7.360 -12.457  19.328  0.00  0.00    +0.055 C 
ATOM      9  C   UNL     1      -6.156 -10.436  17.439  0.00  0.00    +0.074 C 
ATOM     10  C   UNL     1      -6.556 -10.102  18.892  0.00  0.00    +0.024 C 
ATOM     11  C   UNL     1      -4.945 -11.892  19.495  0.00  0.00    +0.019 C 
ATOM     12  C   UNL     1      -7.243 -12.587  17.782  0.00  0.00    +0.094 C 
ATOM     13  C   UNL     1      -4.864 -12.368  18.034  0.00  0.00    +0.085 C 
ENDROOT
BRANCH   8  14
ATOM      4  N   UNL     1      -9.434 -13.333  20.500  0.00  0.00    -0.270 N 
ATOM      6  N   UNL     1     -10.709 -13.047  20.812  0.00  0.00    -0.171 NA
ATOM     14  C   UNL     1      -8.806 -12.351  19.790  0.00  0.00    +0.044 A 
ATOM     16  C   UNL     1      -9.736 -11.354  19.625  0.00  0.00    +0.053 A 
ATOM     17  C   UNL     1     -10.889 -11.837  20.275  0.00  0.00    +0.093 A 
ATOM     18  C   UNL     1      -8.870 -14.593  20.922  0.00  0.00    +0.172 C 
BRANCH  17  20
ATOM      1  F   UNL     1     -15.793  -9.237  20.722  0.00  0.00    -0.205 F 
ATOM     20  C   UNL     1     -12.157 -11.165  20.391  0.00  0.00    +0.002 A 
ATOM     22  C   UNL     1     -13.194 -11.753  21.114  0.00  0.00    +0.013 A 
ATOM     23  C   UNL     1     -12.348  -9.926  19.779  0.00  0.00    +0.013 A 
ATOM     24  C   UNL     1     -14.422 -11.102  21.226  0.00  0.00    +0.039 A 
ATOM     25  C   UNL     1     -13.576  -9.275  19.891  0.00  0.00    +0.039 A 
ATOM     26  C   UNL     1     -14.614  -9.863  20.614  0.00  0.00    +0.123 A 
ENDBRANCH  17  20
ENDBRANCH   8  14
BRANCH   9  15
ATOM     15  C   UNL     1      -7.105  -9.796  16.424  0.00  0.00    +0.123 C 
BRANCH  15   5
ATOM      2  O   UNL     1      -9.524  -8.698  15.250  0.00  0.00    -0.276 OA
ATOM      5  N   UNL     1      -8.131  -9.048  17.084  0.00  0.00    -0.314 N 
ATOM     19  C   UNL     1      -9.264  -8.557  16.442  0.00  0.00    +0.210 C 
ATOM     21  C   UNL     1     -10.193  -7.828  17.375  0.00  0.00    +0.109 C 
ATOM     27  H   UNL     1      -8.003  -8.843  18.072  0.00  0.00    +0.149 HD
ENDBRANCH  15   5
ENDBRANCH   9  15
TORSDOF 4
ENDMDL
