REMARK  Name = 75537039
REMARK  3 active torsions:
REMARK  status: ('A' for Active; 'I' for Inactive)
REMARK    1  A    between atoms: N_3  and  C_11
REMARK    2  A    between atoms: C_11  and  C_12
REMARK    3  A    between atoms: C_13  and  C_16
REMARK                            x       y       z     vdW  Elec       q    Type
REMARK                         _______ _______ _______ _____ _____    ______ ____
ROOT
ATOM      1  O   UNL     1      -5.103   0.533   0.062  0.00  0.00    -0.253 OA
ATOM      2  N   UNL     1      -2.764   0.318   0.215  0.00  0.00    -0.279 N 
ATOM      3  N   UNL     1      -0.043   0.704  -0.379  0.00  0.00    -0.295 NA
ATOM      4  N   UNL     1      -4.027  -1.536   0.324  0.00  0.00    -0.297 N 
ATOM      5  C   UNL     1      -1.826  -0.747   0.501  0.00  0.00    +0.109 C 
ATOM      6  C   UNL     1      -0.619  -0.655  -0.432  0.00  0.00    +0.109 C 
ATOM      7  C   UNL     1      -2.281   1.678   0.098  0.00  0.00    +0.125 C 
ATOM      8  C   UNL     1      -2.663  -2.014   0.346  0.00  0.00    +0.129 C 
ATOM      9  C   UNL     1      -1.037   1.714  -0.794  0.00  0.00    +0.104 C 
ATOM     10  C   UNL     1      -4.087  -0.136   0.188  0.00  0.00    +0.303 C 
ATOM     19  H   UNL     1      -4.845  -2.138   0.320  0.00  0.00    +0.150 HD
ENDROOT
BRANCH   3  11
ATOM     11  C   UNL     1       1.149   0.786  -1.222  0.00  0.00    +0.120 C 
BRANCH  11  12
ATOM     12  C   UNL     1       2.344   0.146  -0.567  0.00  0.00    -0.030 A 
ATOM     13  C   UNL     1       3.033   0.794   0.459  0.00  0.00    -0.046 A 
ATOM     14  C   UNL     1       2.761  -1.112  -1.000  0.00  0.00    +0.005 A 
ATOM     15  C   UNL     1       4.137   0.183   1.052  0.00  0.00    +0.003 A 
ATOM     16  C   UNL     1       2.605   2.142   0.939  0.00  0.00    +0.044 C 
ATOM     17  C   UNL     1       3.866  -1.723  -0.407  0.00  0.00    +0.000 A 
ATOM     18  C   UNL     1       4.554  -1.076   0.619  0.00  0.00    +0.000 A 
ENDBRANCH  11  12
ENDBRANCH   3  11
TORSDOF 2
