REMARK  Name = 26762303
REMARK  10 active torsions:
REMARK  status: ('A' for Active; 'I' for Inactive)
REMARK    1  A    between atoms: S_1  and  N_9
REMARK    2  A    between atoms: S_1  and  C_21
REMARK    3  A    between atoms: O_6  and  C_27
REMARK    4  A    between atoms: O_6  and  C_33
REMARK    5  A    between atoms: N_9  and  C_12
REMARK    6  A    between atoms: N_10  and  C_24
REMARK    7  A    between atoms: C_14  and  C_18
REMARK    8  A    between atoms: C_18  and  C_19
REMARK    9  A    between atoms: C_19  and  C_20
REMARK   10  A    between atoms: C_24  and  C_28
REMARK                            x       y       z     vdW  Elec       q    Type
REMARK                         _______ _______ _______ _____ _____    ______ ____
ROOT
ATOM      2  O   UNL     1      -5.794  -1.256  -0.390  0.00  0.00    -0.274 OA
ATOM      7  N   UNL     1      -2.315  -1.796   0.421  0.00  0.00    -0.285 NA
ATOM      8  N   UNL     1      -4.112  -2.038  -1.715  0.00  0.00    -0.313 N 
ATOM     11  C   UNL     1      -3.745  -1.849   0.726  0.00  0.00    +0.145 C 
ATOM     12  C   UNL     1      -2.816   0.290   1.383  0.00  0.00    +0.092 C 
ATOM     13  C   UNL     1      -3.900  -0.726   1.747  0.00  0.00    +0.050 C 
ATOM     14  C   UNL     1      -1.944  -2.667  -0.693  0.00  0.00    +0.075 C 
ATOM     15  C   UNL     1      -1.955  -0.383   0.316  0.00  0.00    +0.106 C 
ATOM     16  C   UNL     1      -2.712  -2.313  -1.962  0.00  0.00    +0.123 C 
ATOM     17  C   UNL     1      -4.632  -1.653  -0.499  0.00  0.00    +0.230 C 
ATOM     35  H   UNL     1      -4.720  -1.964  -2.525  0.00  0.00    +0.149 HD
ENDROOT
BRANCH  12   9
ATOM      9  N   UNL     1      -3.427   1.523   0.837  0.00  0.00    -0.186 NA
ATOM     36  H   UNL     1      -4.082   1.397   0.054  0.00  0.00    +0.148 HD
BRANCH   9   1
ATOM      1  S   UNL     1      -2.627   3.010   1.008  0.00  0.00    +0.059 S 
ATOM      3  O   UNL     1      -2.320   3.237   2.407  0.00  0.00    -0.153 OA
ATOM      4  O   UNL     1      -3.342   4.016   0.246  0.00  0.00    -0.153 OA
BRANCH   1  21
ATOM     21  C   UNL     1      -1.106   2.705   0.159  0.00  0.00    +0.105 A 
ATOM     22  C   UNL     1      -1.004   2.971  -1.206  0.00  0.00    +0.032 A 
ATOM     23  C   UNL     1      -0.008   2.198   0.855  0.00  0.00    +0.032 A 
ATOM     25  C   UNL     1       0.196   2.730  -1.876  0.00  0.00    +0.047 A 
ATOM     26  C   UNL     1       1.191   1.957   0.185  0.00  0.00    +0.047 A 
ATOM     27  C   UNL     1       1.293   2.224  -1.180  0.00  0.00    +0.120 A 
BRANCH  27   6
ATOM      6  O   UNL     1       2.463   1.988  -1.834  0.00  0.00    -0.495 OA
ATOM     33  C   UNL     1       2.497   2.281  -3.230  0.00  0.00    +0.277 C 
ENDBRANCH  27   6
ENDBRANCH   1  21
ENDBRANCH   9   1
ENDBRANCH  12   9
BRANCH  14  18
ATOM     18  C   UNL     1      -0.436  -2.677  -0.947  0.00  0.00    +0.029 C 
BRANCH  18  19
ATOM     19  C   UNL     1       0.333  -2.989   0.329  0.00  0.00    +0.097 C 
BRANCH  19  20
ATOM      5  O   UNL     1       2.358  -3.288  -0.963  0.00  0.00    -0.276 OA
ATOM     10  N   UNL     1       2.522  -2.604   1.249  0.00  0.00    -0.311 N 
ATOM     20  C   UNL     1       1.835  -2.986   0.105  0.00  0.00    +0.213 C 
ATOM     37  H   UNL     1       2.008  -2.362   2.091  0.00  0.00    +0.149 HD
BRANCH  10  24
ATOM     24  C   UNL     1       3.962  -2.523   1.292  0.00  0.00    +0.139 C 
BRANCH  24  28
ATOM     28  C   UNL     1       4.461  -1.162   0.902  0.00  0.00    -0.030 A 
ATOM     29  C   UNL     1       4.747  -0.881  -0.434  0.00  0.00    +0.005 A 
ATOM     30  C   UNL     1       4.638  -0.178   1.875  0.00  0.00    +0.005 A 
ATOM     31  C   UNL     1       5.210   0.384  -0.797  0.00  0.00    +0.000 A 
ATOM     32  C   UNL     1       5.101   1.086   1.512  0.00  0.00    +0.000 A 
ATOM     34  C   UNL     1       5.387   1.367   0.176  0.00  0.00    +0.000 A 
ENDBRANCH  24  28
ENDBRANCH  10  24
ENDBRANCH  19  20
ENDBRANCH  18  19
ENDBRANCH  14  18
TORSDOF 9
