MODEL 1
REMARK VINA RESULT:      -7.5      0.000      0.000
REMARK  Name = 71694019
REMARK  8 active torsions:
REMARK  status: ('A' for Active; 'I' for Inactive)
REMARK    1  A    between atoms: S_1  and  N_6
REMARK    2  A    between atoms: S_1  and  C_17
REMARK    3  A    between atoms: O_2  and  C_10
REMARK    4  A    between atoms: O_3  and  C_12
REMARK    5  A    between atoms: N_6  and  C_9
REMARK    6  A    between atoms: C_8  and  C_13
REMARK    7  A    between atoms: C_14  and  C_18
REMARK    8  A    between atoms: C_23  and  C_26
REMARK                            x       y       z     vdW  Elec       q    Type
REMARK                         _______ _______ _______ _____ _____    ______ ____
ROOT
ATOM      8  C   UNL     1      14.034   9.017  18.730  0.00  0.00    +0.043 C 
ATOM      9  C   UNL     1      12.635   8.456  19.108  0.00  0.00    +0.115 C 
ATOM     10  C   UNL     1      11.860   8.339  17.790  0.00  0.00    +0.162 C 
ATOM     11  C   UNL     1      14.047   9.078  17.193  0.00  0.00    +0.043 C 
ATOM     12  C   UNL     1      12.584   9.293  16.843  0.00  0.00    +0.145 C 
ENDROOT
BRANCH   8  13
ATOM     13  C   UNL     1      15.189   8.228  19.303  0.00  0.00    -0.040 A 
ATOM     14  C   UNL     1      16.051   8.796  20.242  0.00  0.00    -0.047 A 
ATOM     15  C   UNL     1      15.389   6.914  18.880  0.00  0.00    +0.004 A 
ATOM     16  C   UNL     1      17.111   8.050  20.758  0.00  0.00    +0.003 A 
ATOM     18  C   UNL     1      15.858  10.202  20.711  0.00  0.00    +0.044 C 
ATOM     19  C   UNL     1      16.449   6.168  19.395  0.00  0.00    +0.000 A 
ATOM     20  C   UNL     1      17.310   6.736  20.334  0.00  0.00    +0.000 A 
ENDBRANCH   8  13
BRANCH  10   2
ATOM      2  O   UNL     1      11.971   6.993  17.329  0.00  0.00    -0.388 OA
ATOM     28  H   UNL     1      12.411   6.481  18.029  0.00  0.00    +0.210 HD
ENDBRANCH  10   2
BRANCH  12   3
ATOM      3  O   UNL     1      12.329   9.011  15.483  0.00  0.00    -0.389 OA
ATOM     29  H   UNL     1      12.251   9.861  15.017  0.00  0.00    +0.210 HD
ENDBRANCH  12   3
BRANCH   9   6
ATOM      6  N   UNL     1      11.944   9.421  20.002  0.00  0.00    -0.184 NA
ATOM     27  H   UNL     1      11.784  10.371  19.650  0.00  0.00    +0.148 HD
BRANCH   6   1
ATOM      1  S   UNL     1      11.756   9.060  21.652  0.00  0.00    +0.059 S 
ATOM      4  O   UNL     1      13.033   8.657  22.207  0.00  0.00    -0.153 OA
ATOM      5  O   UNL     1      10.589   8.214  21.815  0.00  0.00    -0.153 OA
BRANCH   1  17
ATOM     17  C   UNL     1      11.345  10.642  22.326  0.00  0.00    +0.106 A 
ATOM     21  C   UNL     1      11.321  11.767  21.502  0.00  0.00    +0.047 A 
ATOM     22  C   UNL     1      11.045  10.764  23.683  0.00  0.00    +0.028 A 
ATOM     23  C   UNL     1      10.997  13.015  22.035  0.00  0.00    +0.054 A 
ATOM     24  C   UNL     1      10.721  12.012  24.216  0.00  0.00    +0.003 A 
ATOM     25  C   UNL     1      10.698  13.137  23.392  0.00  0.00    +0.019 A 
BRANCH  23  26
ATOM      7  N   UNL     1      10.952  15.104  20.506  0.00  0.00    -0.191 NA
ATOM     26  C   UNL     1      10.972  14.168  21.191  0.00  0.00    +0.099 C 
ENDBRANCH  23  26
ENDBRANCH   1  17
ENDBRANCH   6   1
ENDBRANCH   9   6
TORSDOF 7
ENDMDL
MODEL 2
REMARK VINA RESULT:      -7.3      3.103      5.459
REMARK  Name = 71694019
REMARK  8 active torsions:
REMARK  status: ('A' for Active; 'I' for Inactive)
REMARK    1  A    between atoms: S_1  and  N_6
REMARK    2  A    between atoms: S_1  and  C_17
REMARK    3  A    between atoms: O_2  and  C_10
REMARK    4  A    between atoms: O_3  and  C_12
REMARK    5  A    between atoms: N_6  and  C_9
REMARK    6  A    between atoms: C_8  and  C_13
REMARK    7  A    between atoms: C_14  and  C_18
REMARK    8  A    between atoms: C_23  and  C_26
REMARK                            x       y       z     vdW  Elec       q    Type
REMARK                         _______ _______ _______ _____ _____    ______ ____
ROOT
ATOM      8  C   UNL     1      13.798  11.736  18.584  0.00  0.00    +0.043 C 
ATOM      9  C   UNL     1      14.121  11.084  17.211  0.00  0.00    +0.115 C 
ATOM     10  C   UNL     1      14.685  12.208  16.334  0.00  0.00    +0.162 C 
ATOM     11  C   UNL     1      14.312  13.182  18.479  0.00  0.00    +0.043 C 
ATOM     12  C   UNL     1      14.182  13.489  16.996  0.00  0.00    +0.145 C 
ENDROOT
BRANCH   8  13
ATOM     13  C   UNL     1      14.366  10.988  19.769  0.00  0.00    -0.040 A 
ATOM     14  C   UNL     1      13.574  10.695  20.880  0.00  0.00    -0.047 A 
ATOM     15  C   UNL     1      15.703  10.591  19.742  0.00  0.00    +0.004 A 
ATOM     16  C   UNL     1      14.119  10.004  21.962  0.00  0.00    +0.003 A 
ATOM     18  C   UNL     1      12.140  11.111  20.932  0.00  0.00    +0.044 C 
ATOM     19  C   UNL     1      16.248   9.900  20.824  0.00  0.00    +0.000 A 
ATOM     20  C   UNL     1      15.456   9.607  21.935  0.00  0.00    +0.000 A 
ENDBRANCH   8  13
BRANCH  10   2
ATOM      2  O   UNL     1      16.109  12.140  16.390  0.00  0.00    -0.388 OA
ATOM     28  H   UNL     1      16.392  12.610  17.193  0.00  0.00    +0.210 HD
ENDBRANCH  10   2
BRANCH  12   3
ATOM      3  O   UNL     1      14.937  14.625  16.633  0.00  0.00    -0.389 OA
ATOM     29  H   UNL     1      15.587  14.783  17.339  0.00  0.00    +0.210 HD
ENDBRANCH  12   3
BRANCH   9   6
ATOM      6  N   UNL     1      12.864  10.570  16.605  0.00  0.00    -0.184 NA
ATOM     27  H   UNL     1      12.031  11.168  16.648  0.00  0.00    +0.148 HD
BRANCH   6   1
ATOM      1  S   UNL     1      12.737   8.929  16.185  0.00  0.00    +0.059 S 
ATOM      4  O   UNL     1      13.778   8.591  15.233  0.00  0.00    -0.153 OA
ATOM      5  O   UNL     1      11.349   8.629  15.885  0.00  0.00    -0.153 OA
BRANCH   1  17
ATOM     17  C   UNL     1      13.119   8.130  17.715  0.00  0.00    +0.106 A 
ATOM     21  C   UNL     1      12.142   8.009  18.702  0.00  0.00    +0.047 A 
ATOM     22  C   UNL     1      14.399   7.621  17.934  0.00  0.00    +0.028 A 
ATOM     23  C   UNL     1      12.444   7.379  19.910  0.00  0.00    +0.054 A 
ATOM     24  C   UNL     1      14.702   6.991  19.142  0.00  0.00    +0.003 A 
ATOM     25  C   UNL     1      13.724   6.871  20.129  0.00  0.00    +0.019 A 
BRANCH  23  26
ATOM      7  N   UNL     1      10.630   7.154  21.743  0.00  0.00    -0.191 NA
ATOM     26  C   UNL     1      11.443   7.255  20.922  0.00  0.00    +0.099 C 
ENDBRANCH  23  26
ENDBRANCH   1  17
ENDBRANCH   6   1
ENDBRANCH   9   6
TORSDOF 7
ENDMDL
MODEL 3
REMARK VINA RESULT:      -6.9     14.036     17.148
REMARK  Name = 71694019
REMARK  8 active torsions:
REMARK  status: ('A' for Active; 'I' for Inactive)
REMARK    1  A    between atoms: S_1  and  N_6
REMARK    2  A    between atoms: S_1  and  C_17
REMARK    3  A    between atoms: O_2  and  C_10
REMARK    4  A    between atoms: O_3  and  C_12
REMARK    5  A    between atoms: N_6  and  C_9
REMARK    6  A    between atoms: C_8  and  C_13
REMARK    7  A    between atoms: C_14  and  C_18
REMARK    8  A    between atoms: C_23  and  C_26
REMARK                            x       y       z     vdW  Elec       q    Type
REMARK                         _______ _______ _______ _____ _____    ______ ____
ROOT
ATOM      8  C   UNL     1      11.235   5.325   3.019  0.00  0.00    +0.043 C 
ATOM      9  C   UNL     1      12.332   6.244   2.414  0.00  0.00    +0.115 C 
ATOM     10  C   UNL     1      12.592   5.714   0.999  0.00  0.00    +0.162 C 
ATOM     11  C   UNL     1      10.818   4.382   1.876  0.00  0.00    +0.043 C 
ATOM     12  C   UNL     1      12.082   4.276   1.038  0.00  0.00    +0.145 C 
ENDROOT
BRANCH   8  13
ATOM     13  C   UNL     1      10.070   6.074   3.626  0.00  0.00    -0.040 A 
ATOM     14  C   UNL     1       9.402   5.577   4.746  0.00  0.00    -0.047 A 
ATOM     15  C   UNL     1       9.663   7.277   3.050  0.00  0.00    +0.004 A 
ATOM     16  C   UNL     1       8.330   6.283   5.289  0.00  0.00    +0.003 A 
ATOM     18  C   UNL     1       9.819   4.289   5.380  0.00  0.00    +0.044 C 
ATOM     19  C   UNL     1       8.591   7.984   3.594  0.00  0.00    +0.000 A 
ATOM     20  C   UNL     1       7.924   7.487   4.713  0.00  0.00    +0.000 A 
ENDBRANCH   8  13
BRANCH  10   2
ATOM      2  O   UNL     1      11.823   6.496   0.086  0.00  0.00    -0.388 OA
ATOM     28  H   UNL     1      10.928   6.116   0.060  0.00  0.00    +0.210 HD
ENDBRANCH  10   2
BRANCH  12   3
ATOM      3  O   UNL     1      11.810   3.757  -0.247  0.00  0.00    -0.389 OA
ATOM     29  H   UNL     1      10.918   3.370  -0.224  0.00  0.00    +0.210 HD
ENDBRANCH  12   3
BRANCH   9   6
ATOM      6  N   UNL     1      13.573   6.123   3.222  0.00  0.00    -0.184 NA
ATOM     27  H   UNL     1      13.917   5.179   3.435  0.00  0.00    +0.148 HD
BRANCH   6   1
ATOM      1  S   UNL     1      14.184   7.477   4.046  0.00  0.00    +0.059 S 
ATOM      4  O   UNL     1      14.287   8.595   3.128  0.00  0.00    -0.153 OA
ATOM      5  O   UNL     1      15.334   7.069   4.831  0.00  0.00    -0.153 OA
BRANCH   1  17
ATOM     17  C   UNL     1      12.879   7.829   5.186  0.00  0.00    +0.106 A 
ATOM     21  C   UNL     1      12.526   6.889   6.154  0.00  0.00    +0.047 A 
ATOM     22  C   UNL     1      12.203   9.048   5.117  0.00  0.00    +0.028 A 
ATOM     23  C   UNL     1      11.496   7.167   7.053  0.00  0.00    +0.054 A 
ATOM     24  C   UNL     1      11.173   9.326   6.016  0.00  0.00    +0.003 A 
ATOM     25  C   UNL     1      10.820   8.385   6.984  0.00  0.00    +0.019 A 
BRANCH  23  26
ATOM      7  N   UNL     1      10.839   5.421   8.849  0.00  0.00    -0.191 NA
ATOM     26  C   UNL     1      11.133   6.204   8.044  0.00  0.00    +0.099 C 
ENDBRANCH  23  26
ENDBRANCH   1  17
ENDBRANCH   6   1
ENDBRANCH   9   6
TORSDOF 7
ENDMDL
MODEL 4
REMARK VINA RESULT:      -6.8     28.031     30.199
REMARK  Name = 71694019
REMARK  8 active torsions:
REMARK  status: ('A' for Active; 'I' for Inactive)
REMARK    1  A    between atoms: S_1  and  N_6
REMARK    2  A    between atoms: S_1  and  C_17
REMARK    3  A    between atoms: O_2  and  C_10
REMARK    4  A    between atoms: O_3  and  C_12
REMARK    5  A    between atoms: N_6  and  C_9
REMARK    6  A    between atoms: C_8  and  C_13
REMARK    7  A    between atoms: C_14  and  C_18
REMARK    8  A    between atoms: C_23  and  C_26
REMARK                            x       y       z     vdW  Elec       q    Type
REMARK                         _______ _______ _______ _____ _____    ______ ____
ROOT
ATOM      8  C   UNL     1      -8.850 -12.136  18.709  0.00  0.00    +0.043 C 
ATOM      9  C   UNL     1      -9.477 -10.718  18.608  0.00  0.00    +0.115 C 
ATOM     10  C   UNL     1     -10.567 -10.662  19.685  0.00  0.00    +0.162 C 
ATOM     11  C   UNL     1      -9.521 -12.792  19.929  0.00  0.00    +0.043 C 
ATOM     12  C   UNL     1     -10.888 -12.127  19.970  0.00  0.00    +0.145 C 
ENDROOT
BRANCH   8  13
ATOM     13  C   UNL     1      -7.340 -12.137  18.790  0.00  0.00    -0.040 A 
ATOM     14  C   UNL     1      -6.581 -13.013  18.014  0.00  0.00    -0.047 A 
ATOM     15  C   UNL     1      -6.707 -11.247  19.657  0.00  0.00    +0.004 A 
ATOM     16  C   UNL     1      -5.189 -12.998  18.105  0.00  0.00    +0.003 A 
ATOM     18  C   UNL     1      -7.236 -13.977  17.079  0.00  0.00    +0.044 C 
ATOM     19  C   UNL     1      -5.315 -11.231  19.748  0.00  0.00    +0.000 A 
ATOM     20  C   UNL     1      -4.556 -12.107  18.972  0.00  0.00    +0.000 A 
ENDBRANCH   8  13
BRANCH  10   2
ATOM      2  O   UNL     1     -10.015 -10.034  20.841  0.00  0.00    -0.388 OA
ATOM     28  H   UNL     1     -10.734  -9.549  21.280  0.00  0.00    +0.210 HD
ENDBRANCH  10   2
BRANCH  12   3
ATOM      3  O   UNL     1     -11.519 -12.315  21.219  0.00  0.00    -0.389 OA
ATOM     29  H   UNL     1     -11.135 -13.112  21.624  0.00  0.00    +0.210 HD
ENDBRANCH  12   3
BRANCH   9   6
ATOM      6  N   UNL     1     -10.098 -10.551  17.268  0.00  0.00    -0.184 NA
ATOM     27  H   UNL     1     -10.703 -11.306  16.922  0.00  0.00    +0.148 HD
BRANCH   6   1
ATOM      1  S   UNL     1      -9.543  -9.333  16.223  0.00  0.00    +0.059 S 
ATOM      4  O   UNL     1      -9.444  -8.081  16.949  0.00  0.00    -0.153 OA
ATOM      5  O   UNL     1     -10.297  -9.400  14.984  0.00  0.00    -0.153 OA
BRANCH   1  17
ATOM     17  C   UNL     1      -7.903  -9.883  15.860  0.00  0.00    +0.106 A 
ATOM     21  C   UNL     1      -7.696 -10.884  14.911  0.00  0.00    +0.047 A 
ATOM     22  C   UNL     1      -6.815  -9.315  16.524  0.00  0.00    +0.028 A 
ATOM     23  C   UNL     1      -6.401 -11.318  14.626  0.00  0.00    +0.054 A 
ATOM     24  C   UNL     1      -5.520  -9.750  16.239  0.00  0.00    +0.003 A 
ATOM     25  C   UNL     1      -5.314 -10.751  15.290  0.00  0.00    +0.019 A 
BRANCH  23  26
ATOM      7  N   UNL     1      -6.017 -13.176  12.864  0.00  0.00    -0.191 NA
ATOM     26  C   UNL     1      -6.189 -12.343  13.654  0.00  0.00    +0.099 C 
ENDBRANCH  23  26
ENDBRANCH   1  17
ENDBRANCH   6   1
ENDBRANCH   9   6
TORSDOF 7
ENDMDL
MODEL 5
REMARK VINA RESULT:      -6.8     26.394     28.479
REMARK  Name = 71694019
REMARK  8 active torsions:
REMARK  status: ('A' for Active; 'I' for Inactive)
REMARK    1  A    between atoms: S_1  and  N_6
REMARK    2  A    between atoms: S_1  and  C_17
REMARK    3  A    between atoms: O_2  and  C_10
REMARK    4  A    between atoms: O_3  and  C_12
REMARK    5  A    between atoms: N_6  and  C_9
REMARK    6  A    between atoms: C_8  and  C_13
REMARK    7  A    between atoms: C_14  and  C_18
REMARK    8  A    between atoms: C_23  and  C_26
REMARK                            x       y       z     vdW  Elec       q    Type
REMARK                         _______ _______ _______ _____ _____    ______ ____
ROOT
ATOM      8  C   UNL     1      -5.380 -10.834  15.417  0.00  0.00    +0.043 C 
ATOM      9  C   UNL     1      -3.978 -11.238  15.952  0.00  0.00    +0.115 C 
ATOM     10  C   UNL     1      -4.136 -11.390  17.470  0.00  0.00    +0.162 C 
ATOM     11  C   UNL     1      -6.315 -10.897  16.637  0.00  0.00    +0.043 C 
ATOM     12  C   UNL     1      -5.388 -10.583  17.800  0.00  0.00    +0.145 C 
ENDROOT
BRANCH   8  13
ATOM     13  C   UNL     1      -5.861 -11.675  14.255  0.00  0.00    -0.040 A 
ATOM     14  C   UNL     1      -6.308 -11.079  13.076  0.00  0.00    -0.047 A 
ATOM     15  C   UNL     1      -5.855 -13.064  14.376  0.00  0.00    +0.004 A 
ATOM     16  C   UNL     1      -6.747 -11.874  12.017  0.00  0.00    +0.003 A 
ATOM     18  C   UNL     1      -6.324  -9.593  12.923  0.00  0.00    +0.044 C 
ATOM     19  C   UNL     1      -6.295 -13.859  13.318  0.00  0.00    +0.000 A 
ATOM     20  C   UNL     1      -6.742 -13.263  12.138  0.00  0.00    +0.000 A 
ENDBRANCH   8  13
BRANCH  10   2
ATOM      2  O   UNL     1      -4.339 -12.773  17.757  0.00  0.00    -0.388 OA
ATOM     28  H   UNL     1      -4.483 -13.229  16.910  0.00  0.00    +0.210 HD
ENDBRANCH  10   2
BRANCH  12   3
ATOM      3  O   UNL     1      -5.964 -10.949  19.036  0.00  0.00    -0.389 OA
ATOM     29  H   UNL     1      -5.587 -10.367  19.719  0.00  0.00    +0.210 HD
ENDBRANCH  12   3
BRANCH   9   6
ATOM      6  N   UNL     1      -3.010 -10.147  15.664  0.00  0.00    -0.184 NA
ATOM     27  H   UNL     1      -3.311  -9.181  15.836  0.00  0.00    +0.148 HD
BRANCH   6   1
ATOM      1  S   UNL     1      -1.610 -10.475  14.760  0.00  0.00    +0.059 S 
ATOM      4  O   UNL     1      -0.878 -11.562  15.380  0.00  0.00    -0.153 OA
ATOM      5  O   UNL     1      -0.942  -9.222  14.461  0.00  0.00    -0.153 OA
BRANCH   1  17
ATOM     17  C   UNL     1      -2.289 -11.073  13.241  0.00  0.00    +0.106 A 
ATOM     21  C   UNL     1      -2.689 -10.174  12.253  0.00  0.00    +0.047 A 
ATOM     22  C   UNL     1      -2.425 -12.446  13.031  0.00  0.00    +0.028 A 
ATOM     23  C   UNL     1      -3.225 -10.647  11.055  0.00  0.00    +0.054 A 
ATOM     24  C   UNL     1      -2.961 -12.919  11.833  0.00  0.00    +0.003 A 
ATOM     25  C   UNL     1      -3.361 -12.019  10.845  0.00  0.00    +0.019 A 
BRANCH  23  26
ATOM      7  N   UNL     1      -3.967  -8.977   9.220  0.00  0.00    -0.191 NA
ATOM     26  C   UNL     1      -3.634  -9.725  10.042  0.00  0.00    +0.099 C 
ENDBRANCH  23  26
ENDBRANCH   1  17
ENDBRANCH   6   1
ENDBRANCH   9   6
TORSDOF 7
ENDMDL
MODEL 6
REMARK VINA RESULT:      -6.7     25.456     27.479
REMARK  Name = 71694019
REMARK  8 active torsions:
REMARK  status: ('A' for Active; 'I' for Inactive)
REMARK    1  A    between atoms: S_1  and  N_6
REMARK    2  A    between atoms: S_1  and  C_17
REMARK    3  A    between atoms: O_2  and  C_10
REMARK    4  A    between atoms: O_3  and  C_12
REMARK    5  A    between atoms: N_6  and  C_9
REMARK    6  A    between atoms: C_8  and  C_13
REMARK    7  A    between atoms: C_14  and  C_18
REMARK    8  A    between atoms: C_23  and  C_26
REMARK                            x       y       z     vdW  Elec       q    Type
REMARK                         _______ _______ _______ _____ _____    ______ ____
ROOT
ATOM      8  C   UNL     1     -13.320   6.707  20.875  0.00  0.00    +0.043 C 
ATOM      9  C   UNL     1     -14.818   6.858  21.260  0.00  0.00    +0.115 C 
ATOM     10  C   UNL     1     -15.020   5.992  22.510  0.00  0.00    +0.162 C 
ATOM     11  C   UNL     1     -12.694   5.862  21.998  0.00  0.00    +0.043 C 
ATOM     12  C   UNL     1     -13.855   5.005  22.475  0.00  0.00    +0.145 C 
ENDROOT
BRANCH   8  13
ATOM     13  C   UNL     1     -12.607   8.023  20.653  0.00  0.00    -0.040 A 
ATOM     14  C   UNL     1     -11.645   8.157  19.652  0.00  0.00    -0.047 A 
ATOM     15  C   UNL     1     -12.922   9.110  21.468  0.00  0.00    +0.004 A 
ATOM     16  C   UNL     1     -11.000   9.379  19.465  0.00  0.00    +0.003 A 
ATOM     18  C   UNL     1     -11.291   7.006  18.767  0.00  0.00    +0.044 C 
ATOM     19  C   UNL     1     -12.276  10.332  21.281  0.00  0.00    +0.000 A 
ATOM     20  C   UNL     1     -11.314  10.466  20.279  0.00  0.00    +0.000 A 
ENDBRANCH   8  13
BRANCH  10   2
ATOM      2  O   UNL     1     -14.927   6.839  23.654  0.00  0.00    -0.388 OA
ATOM     28  H   UNL     1     -15.694   6.649  24.220  0.00  0.00    +0.210 HD
ENDBRANCH  10   2
BRANCH  12   3
ATOM      3  O   UNL     1     -13.591   4.427  23.735  0.00  0.00    -0.389 OA
ATOM     29  H   UNL     1     -14.346   4.629  24.315  0.00  0.00    +0.210 HD
ENDBRANCH  12   3
BRANCH   9   6
ATOM      6  N   UNL     1     -15.663   6.333  20.155  0.00  0.00    -0.184 NA
ATOM     27  H   UNL     1     -15.427   5.412  19.767  0.00  0.00    +0.148 HD
BRANCH   6   1
ATOM      1  S   UNL     1     -16.739   7.369  19.347  0.00  0.00    +0.059 S 
ATOM      4  O   UNL     1     -17.561   8.066  20.318  0.00  0.00    -0.153 OA
ATOM      5  O   UNL     1     -17.358   6.640  18.255  0.00  0.00    -0.153 OA
BRANCH   1  17
ATOM     17  C   UNL     1     -15.637   8.546  18.622  0.00  0.00    +0.106 A 
ATOM     21  C   UNL     1     -14.794   8.163  17.579  0.00  0.00    +0.047 A 
ATOM     22  C   UNL     1     -15.610   9.858  19.095  0.00  0.00    +0.028 A 
ATOM     23  C   UNL     1     -13.924   9.093  17.009  0.00  0.00    +0.054 A 
ATOM     24  C   UNL     1     -14.740  10.788  18.525  0.00  0.00    +0.003 A 
ATOM     25  C   UNL     1     -13.897  10.404  17.482  0.00  0.00    +0.019 A 
BRANCH  23  26
ATOM      7  N   UNL     1     -12.359   8.382  15.072  0.00  0.00    -0.191 NA
ATOM     26  C   UNL     1     -13.060   8.700  15.940  0.00  0.00    +0.099 C 
ENDBRANCH  23  26
ENDBRANCH   1  17
ENDBRANCH   6   1
ENDBRANCH   9   6
TORSDOF 7
ENDMDL
MODEL 7
REMARK VINA RESULT:      -6.6     13.417     16.868
REMARK  Name = 71694019
REMARK  8 active torsions:
REMARK  status: ('A' for Active; 'I' for Inactive)
REMARK    1  A    between atoms: S_1  and  N_6
REMARK    2  A    between atoms: S_1  and  C_17
REMARK    3  A    between atoms: O_2  and  C_10
REMARK    4  A    between atoms: O_3  and  C_12
REMARK    5  A    between atoms: N_6  and  C_9
REMARK    6  A    between atoms: C_8  and  C_13
REMARK    7  A    between atoms: C_14  and  C_18
REMARK    8  A    between atoms: C_23  and  C_26
REMARK                            x       y       z     vdW  Elec       q    Type
REMARK                         _______ _______ _______ _____ _____    ______ ____
ROOT
ATOM      8  C   UNL     1      10.131   7.001   5.828  0.00  0.00    +0.043 C 
ATOM      9  C   UNL     1      11.402   6.779   6.693  0.00  0.00    +0.115 C 
ATOM     10  C   UNL     1      10.906   6.222   8.033  0.00  0.00    +0.162 C 
ATOM     11  C   UNL     1       8.967   6.439   6.662  0.00  0.00    +0.043 C 
ATOM     12  C   UNL     1       9.439   6.639   8.093  0.00  0.00    +0.145 C 
ENDROOT
BRANCH   8  13
ATOM     13  C   UNL     1      10.216   6.397   4.444  0.00  0.00    -0.040 A 
ATOM     14  C   UNL     1       9.702   7.070   3.335  0.00  0.00    -0.047 A 
ATOM     15  C   UNL     1      10.816   5.148   4.285  0.00  0.00    +0.004 A 
ATOM     16  C   UNL     1       9.791   6.495   2.067  0.00  0.00    +0.003 A 
ATOM     18  C   UNL     1       9.054   8.408   3.480  0.00  0.00    +0.044 C 
ATOM     19  C   UNL     1      10.905   4.573   3.018  0.00  0.00    +0.000 A 
ATOM     20  C   UNL     1      10.391   5.246   1.909  0.00  0.00    +0.000 A 
ENDBRANCH   8  13
BRANCH  10   2
ATOM      2  O   UNL     1      11.023   4.800   7.991  0.00  0.00    -0.388 OA
ATOM     28  H   UNL     1      11.436   4.567   7.142  0.00  0.00    +0.210 HD
ENDBRANCH  10   2
BRANCH  12   3
ATOM      3  O   UNL     1       8.687   5.862   9.001  0.00  0.00    -0.389 OA
ATOM     29  H   UNL     1       7.993   5.407   8.493  0.00  0.00    +0.210 HD
ENDBRANCH  12   3
BRANCH   9   6
ATOM      6  N   UNL     1      12.074   8.086   6.921  0.00  0.00    -0.184 NA
ATOM     27  H   UNL     1      11.495   8.875   7.231  0.00  0.00    +0.148 HD
BRANCH   6   1
ATOM      1  S   UNL     1      13.654   8.336   6.351  0.00  0.00    +0.059 S 
ATOM      4  O   UNL     1      14.496   7.228   6.760  0.00  0.00    -0.153 OA
ATOM      5  O   UNL     1      14.048   9.700   6.649  0.00  0.00    -0.153 OA
BRANCH   1  17
ATOM     17  C   UNL     1      13.431   8.233   4.601  0.00  0.00    +0.106 A 
ATOM     21  C   UNL     1      13.902   7.123   3.901  0.00  0.00    +0.047 A 
ATOM     22  C   UNL     1      12.783   9.264   3.919  0.00  0.00    +0.028 A 
ATOM     23  C   UNL     1      13.726   7.043   2.519  0.00  0.00    +0.054 A 
ATOM     24  C   UNL     1      12.608   9.184   2.538  0.00  0.00    +0.003 A 
ATOM     25  C   UNL     1      13.079   8.073   1.838  0.00  0.00    +0.019 A 
BRANCH  23  26
ATOM      7  N   UNL     1      14.601   4.981   1.220  0.00  0.00    -0.191 NA
ATOM     26  C   UNL     1      14.209   5.905   1.802  0.00  0.00    +0.099 C 
ENDBRANCH  23  26
ENDBRANCH   1  17
ENDBRANCH   6   1
ENDBRANCH   9   6
TORSDOF 7
ENDMDL
MODEL 8
REMARK VINA RESULT:      -6.6     30.299     31.609
REMARK  Name = 71694019
REMARK  8 active torsions:
REMARK  status: ('A' for Active; 'I' for Inactive)
REMARK    1  A    between atoms: S_1  and  N_6
REMARK    2  A    between atoms: S_1  and  C_17
REMARK    3  A    between atoms: O_2  and  C_10
REMARK    4  A    between atoms: O_3  and  C_12
REMARK    5  A    between atoms: N_6  and  C_9
REMARK    6  A    between atoms: C_8  and  C_13
REMARK    7  A    between atoms: C_14  and  C_18
REMARK    8  A    between atoms: C_23  and  C_26
REMARK                            x       y       z     vdW  Elec       q    Type
REMARK                         _______ _______ _______ _____ _____    ______ ____
ROOT
ATOM      8  C   UNL     1     -16.251   2.138  30.310  0.00  0.00    +0.043 C 
ATOM      9  C   UNL     1     -14.893   2.511  30.965  0.00  0.00    +0.115 C 
ATOM     10  C   UNL     1     -14.021   1.253  30.870  0.00  0.00    +0.162 C 
ATOM     11  C   UNL     1     -16.057   0.718  29.750  0.00  0.00    +0.043 C 
ATOM     12  C   UNL     1     -15.022   0.116  30.687  0.00  0.00    +0.145 C 
ENDROOT
BRANCH   8  13
ATOM     13  C   UNL     1     -16.725   3.127  29.269  0.00  0.00    -0.040 A 
ATOM     14  C   UNL     1     -17.835   3.939  29.503  0.00  0.00    -0.047 A 
ATOM     15  C   UNL     1     -16.036   3.220  28.059  0.00  0.00    +0.004 A 
ATOM     16  C   UNL     1     -18.254   4.844  28.529  0.00  0.00    +0.003 A 
ATOM     18  C   UNL     1     -18.589   3.857  30.790  0.00  0.00    +0.044 C 
ATOM     19  C   UNL     1     -16.456   4.125  27.085  0.00  0.00    +0.000 A 
ATOM     20  C   UNL     1     -17.566   4.937  27.319  0.00  0.00    +0.000 A 
ENDBRANCH   8  13
BRANCH  10   2
ATOM      2  O   UNL     1     -13.186   1.379  29.720  0.00  0.00    -0.388 OA
ATOM     28  H   UNL     1     -12.266   1.422  30.032  0.00  0.00    +0.210 HD
ENDBRANCH  10   2
BRANCH  12   3
ATOM      3  O   UNL     1     -14.436  -1.045  30.135  0.00  0.00    -0.389 OA
ATOM     29  H   UNL     1     -14.758  -1.130  29.221  0.00  0.00    +0.210 HD
ENDBRANCH  12   3
BRANCH   9   6
ATOM      6  N   UNL     1     -15.115   2.851  32.395  0.00  0.00    -0.184 NA
ATOM     27  H   UNL     1     -15.826   2.319  32.909  0.00  0.00    +0.148 HD
BRANCH   6   1
ATOM      1  S   UNL     1     -14.470   4.286  33.034  0.00  0.00    +0.059 S 
ATOM      4  O   UNL     1     -13.278   4.653  32.293  0.00  0.00    -0.153 OA
ATOM      5  O   UNL     1     -14.424   4.176  34.480  0.00  0.00    -0.153 OA
BRANCH   1  17
ATOM     17  C   UNL     1     -15.734   5.459  32.645  0.00  0.00    +0.106 A 
ATOM     21  C   UNL     1     -15.685   6.167  31.445  0.00  0.00    +0.047 A 
ATOM     22  C   UNL     1     -16.782   5.676  33.540  0.00  0.00    +0.028 A 
ATOM     23  C   UNL     1     -16.682   7.093  31.140  0.00  0.00    +0.054 A 
ATOM     24  C   UNL     1     -17.780   6.602  33.235  0.00  0.00    +0.003 A 
ATOM     25  C   UNL     1     -17.730   7.310  32.034  0.00  0.00    +0.019 A 
BRANCH  23  26
ATOM      7  N   UNL     1     -16.590   8.409  28.911  0.00  0.00    -0.191 NA
ATOM     26  C   UNL     1     -16.631   7.819  29.910  0.00  0.00    +0.099 C 
ENDBRANCH  23  26
ENDBRANCH   1  17
ENDBRANCH   6   1
ENDBRANCH   9   6
TORSDOF 7
ENDMDL
MODEL 9
REMARK VINA RESULT:      -6.4      2.796      4.732
REMARK  Name = 71694019
REMARK  8 active torsions:
REMARK  status: ('A' for Active; 'I' for Inactive)
REMARK    1  A    between atoms: S_1  and  N_6
REMARK    2  A    between atoms: S_1  and  C_17
REMARK    3  A    between atoms: O_2  and  C_10
REMARK    4  A    between atoms: O_3  and  C_12
REMARK    5  A    between atoms: N_6  and  C_9
REMARK    6  A    between atoms: C_8  and  C_13
REMARK    7  A    between atoms: C_14  and  C_18
REMARK    8  A    between atoms: C_23  and  C_26
REMARK                            x       y       z     vdW  Elec       q    Type
REMARK                         _______ _______ _______ _____ _____    ______ ____
ROOT
ATOM      8  C   UNL     1      13.889  12.015  17.650  0.00  0.00    +0.043 C 
ATOM      9  C   UNL     1      14.080  10.733  16.794  0.00  0.00    +0.115 C 
ATOM     10  C   UNL     1      14.514  11.216  15.404  0.00  0.00    +0.162 C 
ATOM     11  C   UNL     1      14.346  13.178  16.751  0.00  0.00    +0.043 C 
ATOM     12  C   UNL     1      14.048  12.669  15.350  0.00  0.00    +0.145 C 
ENDROOT
BRANCH   8  13
ATOM     13  C   UNL     1      14.603  11.978  18.982  0.00  0.00    -0.040 A 
ATOM     14  C   UNL     1      13.980  12.434  20.144  0.00  0.00    -0.047 A 
ATOM     15  C   UNL     1      15.905  11.481  19.039  0.00  0.00    +0.004 A 
ATOM     16  C   UNL     1      14.657  12.391  21.362  0.00  0.00    +0.003 A 
ATOM     18  C   UNL     1      12.586  12.972  20.107  0.00  0.00    +0.044 C 
ATOM     19  C   UNL     1      16.582  11.437  20.258  0.00  0.00    +0.000 A 
ATOM     20  C   UNL     1      15.959  11.893  21.419  0.00  0.00    +0.000 A 
ENDBRANCH   8  13
BRANCH  10   2
ATOM      2  O   UNL     1      15.937  11.142  15.334  0.00  0.00    -0.388 OA
ATOM     28  H   UNL     1      16.258  12.004  15.018  0.00  0.00    +0.210 HD
ENDBRANCH  10   2
BRANCH  12   3
ATOM      3  O   UNL     1      14.726  13.424  14.368  0.00  0.00    -0.389 OA
ATOM     29  H   UNL     1      15.443  13.907  14.814  0.00  0.00    +0.210 HD
ENDBRANCH  12   3
BRANCH   9   6
ATOM      6  N   UNL     1      12.781  10.019  16.684  0.00  0.00    -0.184 NA
ATOM     27  H   UNL     1      11.945  10.574  16.470  0.00  0.00    +0.148 HD
BRANCH   6   1
ATOM      1  S   UNL     1      12.646   8.419  17.240  0.00  0.00    +0.059 S 
ATOM      4  O   UNL     1      13.669   7.602  16.617  0.00  0.00    -0.153 OA
ATOM      5  O   UNL     1      11.252   8.018  17.176  0.00  0.00    -0.153 OA
BRANCH   1  17
ATOM     17  C   UNL     1      13.054   8.592  18.951  0.00  0.00    +0.106 A 
ATOM     21  C   UNL     1      12.139   9.165  19.833  0.00  0.00    +0.047 A 
ATOM     22  C   UNL     1      14.295   8.156  19.418  0.00  0.00    +0.028 A 
ATOM     23  C   UNL     1      12.463   9.302  21.183  0.00  0.00    +0.054 A 
ATOM     24  C   UNL     1      14.619   8.293  20.769  0.00  0.00    +0.003 A 
ATOM     25  C   UNL     1      13.702   8.866  21.651  0.00  0.00    +0.019 A 
BRANCH  23  26
ATOM      7  N   UNL     1      10.762  10.365  22.821  0.00  0.00    -0.191 NA
ATOM     26  C   UNL     1      11.524   9.888  22.087  0.00  0.00    +0.099 C 
ENDBRANCH  23  26
ENDBRANCH   1  17
ENDBRANCH   6   1
ENDBRANCH   9   6
TORSDOF 7
ENDMDL
MODEL 10
REMARK VINA RESULT:      -6.4     26.639     29.324
REMARK  Name = 71694019
REMARK  8 active torsions:
REMARK  status: ('A' for Active; 'I' for Inactive)
REMARK    1  A    between atoms: S_1  and  N_6
REMARK    2  A    between atoms: S_1  and  C_17
REMARK    3  A    between atoms: O_2  and  C_10
REMARK    4  A    between atoms: O_3  and  C_12
REMARK    5  A    between atoms: N_6  and  C_9
REMARK    6  A    between atoms: C_8  and  C_13
REMARK    7  A    between atoms: C_14  and  C_18
REMARK    8  A    between atoms: C_23  and  C_26
REMARK                            x       y       z     vdW  Elec       q    Type
REMARK                         _______ _______ _______ _____ _____    ______ ____
ROOT
ATOM      8  C   UNL     1      -2.880 -11.045  12.951  0.00  0.00    +0.043 C 
ATOM      9  C   UNL     1      -3.193 -12.477  13.465  0.00  0.00    +0.115 C 
ATOM     10  C   UNL     1      -2.519 -12.589  14.837  0.00  0.00    +0.162 C 
ATOM     11  C   UNL     1      -2.146 -10.348  14.110  0.00  0.00    +0.043 C 
ATOM     12  C   UNL     1      -1.451 -11.498  14.820  0.00  0.00    +0.145 C 
ENDROOT
BRANCH   8  13
ATOM     13  C   UNL     1      -4.096 -10.283  12.474  0.00  0.00    -0.040 A 
ATOM     14  C   UNL     1      -4.071  -9.569  11.276  0.00  0.00    -0.047 A 
ATOM     15  C   UNL     1      -5.253 -10.298  13.252  0.00  0.00    +0.004 A 
ATOM     16  C   UNL     1      -5.203  -8.872  10.855  0.00  0.00    +0.003 A 
ATOM     18  C   UNL     1      -2.842  -9.537  10.426  0.00  0.00    +0.044 C 
ATOM     19  C   UNL     1      -6.386  -9.602  12.831  0.00  0.00    +0.000 A 
ATOM     20  C   UNL     1      -6.361  -8.888  11.632  0.00  0.00    +0.000 A 
ENDBRANCH   8  13
BRANCH  10   2
ATOM      2  O   UNL     1      -3.501 -12.314  15.836  0.00  0.00    -0.388 OA
ATOM     28  H   UNL     1      -3.404 -11.381  16.090  0.00  0.00    +0.210 HD
ENDBRANCH  10   2
BRANCH  12   3
ATOM      3  O   UNL     1      -1.026 -11.128  16.115  0.00  0.00    -0.389 OA
ATOM     29  H   UNL     1      -1.598 -10.401  16.414  0.00  0.00    +0.210 HD
ENDBRANCH  12   3
BRANCH   9   6
ATOM      6  N   UNL     1      -2.592 -13.473  12.538  0.00  0.00    -0.184 NA
ATOM     27  H   UNL     1      -1.638 -13.301  12.202  0.00  0.00    +0.148 HD
BRANCH   6   1
ATOM      1  S   UNL     1      -3.577 -14.644  11.800  0.00  0.00    +0.059 S 
ATOM      4  O   UNL     1      -4.264 -15.411  12.822  0.00  0.00    -0.153 OA
ATOM      5  O   UNL     1      -2.807 -15.322  10.773  0.00  0.00    -0.153 OA
BRANCH   1  17
ATOM     17  C   UNL     1      -4.776 -13.644  10.972  0.00  0.00    +0.106 A 
ATOM     21  C   UNL     1      -4.443 -12.994   9.784  0.00  0.00    +0.047 A 
ATOM     22  C   UNL     1      -6.056 -13.504  11.509  0.00  0.00    +0.028 A 
ATOM     23  C   UNL     1      -5.390 -12.204   9.132  0.00  0.00    +0.054 A 
ATOM     24  C   UNL     1      -7.003 -12.714  10.857  0.00  0.00    +0.003 A 
ATOM     25  C   UNL     1      -6.669 -12.064   9.668  0.00  0.00    +0.019 A 
BRANCH  23  26
ATOM      7  N   UNL     1      -4.771 -10.999   6.925  0.00  0.00    -0.191 NA
ATOM     26  C   UNL     1      -5.048 -11.539   7.914  0.00  0.00    +0.099 C 
ENDBRANCH  23  26
ENDBRANCH   1  17
ENDBRANCH   6   1
ENDBRANCH   9   6
TORSDOF 7
ENDMDL
