REMARK  Name = 40586222
REMARK  7 active torsions:
REMARK  status: ('A' for Active; 'I' for Inactive)
REMARK    1  A    between atoms: N_6  and  C_20
REMARK    2  A    between atoms: N_7  and  C_26
REMARK    3  A    between atoms: C_15  and  C_18
REMARK    4  A    between atoms: C_18  and  C_19
REMARK    5  A    between atoms: C_19  and  C_22
REMARK    6  A    between atoms: C_19  and  C_23
REMARK    7  A    between atoms: C_19  and  C_24
REMARK                            x       y       z     vdW  Elec       q    Type
REMARK                         _______ _______ _______ _____ _____    ______ ____
ROOT
ATOM      1  O   UNL     1      -3.837  -1.679   1.593  0.00  0.00    -0.276 OA
ATOM      2  O   UNL     1      -0.026   2.052   2.055  0.00  0.00    -0.266 OA
ATOM      4  N   UNL     1      -4.070  -0.055  -0.052  0.00  0.00    -0.301 N 
ATOM      5  N   UNL     1      -1.609   1.948   0.339  0.00  0.00    -0.310 N 
ATOM      8  C   UNL     1      -4.111   2.315   0.738  0.00  0.00    +0.027 C 
ATOM      9  C   UNL     1      -3.299   1.798  -1.524  0.00  0.00    +0.054 C 
ATOM     10  C   UNL     1      -4.131   2.786  -0.711  0.00  0.00    +0.018 C 
ATOM     11  C   UNL     1      -4.709   0.902   0.854  0.00  0.00    +0.113 C 
ATOM     12  C   UNL     1      -3.937   0.397  -1.445  0.00  0.00    +0.117 C 
ATOM     13  C   UNL     1      -2.670   2.375   1.260  0.00  0.00    +0.130 C 
ATOM     14  C   UNL     1      -1.869   1.741  -1.019  0.00  0.00    +0.027 A 
ATOM     15  C   UNL     1      -3.717  -1.320   0.419  0.00  0.00    +0.216 C 
ATOM     16  C   UNL     1      -0.862   1.465  -1.865  0.00  0.00    +0.024 A 
ATOM     17  C   UNL     1      -0.306   1.862   0.871  0.00  0.00    +0.273 A 
ATOM     20  C   UNL     1       0.783   1.528  -0.101  0.00  0.00    +0.100 A 
ATOM     21  C   UNL     1       0.489   1.355  -1.393  0.00  0.00    +0.030 A 
ENDROOT
BRANCH  20   6
ATOM      3  O   UNL     1       2.840  -0.124  -1.163  0.00  0.00    -0.252 OA
ATOM      6  N   UNL     1       2.057   1.422   0.377  0.00  0.00    -0.265 N 
ATOM      7  N   UNL     1       4.232   0.708   0.533  0.00  0.00    -0.269 N 
ATOM     25  C   UNL     1       3.036   0.591  -0.183  0.00  0.00    +0.308 C 
ATOM     32  H   UNL     1       2.226   1.770   1.317  0.00  0.00    +0.157 HD
ATOM     33  H   UNL     1       4.230   1.350   1.322  0.00  0.00    +0.156 HD
BRANCH   7  26
ATOM     26  C   UNL     1       5.457   0.042   0.294  0.00  0.00    +0.035 A 
ATOM     27  C   UNL     1       6.555   0.284   1.119  0.00  0.00    +0.023 A 
ATOM     28  C   UNL     1       5.567  -0.857  -0.767  0.00  0.00    +0.023 A 
ATOM     29  C   UNL     1       7.763  -0.372   0.883  0.00  0.00    +0.002 A 
ATOM     30  C   UNL     1       6.774  -1.513  -1.003  0.00  0.00    +0.002 A 
ATOM     31  C   UNL     1       7.873  -1.271  -0.178  0.00  0.00    +0.000 A 
ENDBRANCH   7  26
ENDBRANCH  20   6
BRANCH  15  18
ATOM     18  C   UNL     1      -3.151  -2.283  -0.593  0.00  0.00    +0.102 C 
BRANCH  18  19
ATOM     19  C   UNL     1      -2.842  -3.667   0.007  0.00  0.00    -0.029 C 
ATOM     22  C   UNL     1      -1.818  -3.561   1.150  0.00  0.00    +0.011 C 
ATOM     23  C   UNL     1      -2.311  -4.632  -1.067  0.00  0.00    +0.011 C 
ATOM     24  C   UNL     1      -4.154  -4.239   0.575  0.00  0.00    +0.011 C 
ENDBRANCH  18  19
ENDBRANCH  15  18
TORSDOF 4
