MODEL 1
REMARK VINA RESULT:      -7.0      0.000      0.000
REMARK  Name = 26745105
REMARK  9 active torsions:
REMARK  status: ('A' for Active; 'I' for Inactive)
REMARK    1  A    between atoms: O_3  and  C_23
REMARK    2  A    between atoms: C_10  and  C_12
REMARK    3  A    between atoms: C_10  and  C_18
REMARK    4  A    between atoms: C_10  and  C_19
REMARK    5  A    between atoms: C_10  and  C_20
REMARK    6  A    between atoms: C_11  and  C_21
REMARK    7  A    between atoms: C_12  and  C_15
REMARK    8  A    between atoms: C_18  and  C_23
REMARK    9  A    between atoms: C_24  and  C_25
REMARK                            x       y       z     vdW  Elec       q    Type
REMARK                         _______ _______ _______ _____ _____    ______ ____
ROOT
ATOM      1  O   UNL     1      -9.463 -12.145  16.985  0.00  0.00    -0.276 OA
ATOM      5  N   UNL     1      -9.701  -9.888  16.459  0.00  0.00    -0.284 N 
ATOM      6  N   UNL     1     -10.796  -6.327  16.658  0.00  0.00    -0.347 N 
ATOM      7  N   UNL     1     -12.530  -7.018  15.431  0.00  0.00    -0.240 NA
ATOM     11  C   UNL     1     -10.430 -10.179  15.176  0.00  0.00    +0.171 C 
ATOM     13  C   UNL     1     -11.791  -9.420  15.110  0.00  0.00    +0.089 C 
ATOM     14  C   UNL     1      -9.412  -8.464  16.785  0.00  0.00    +0.163 C 
ATOM     15  C   UNL     1      -9.238 -10.959  17.233  0.00  0.00    +0.217 C 
ATOM     16  C   UNL     1     -10.570  -7.642  16.381  0.00  0.00    +0.056 A 
ATOM     17  C   UNL     1     -11.645  -8.041  15.627  0.00  0.00    +0.066 A 
ATOM     22  C   UNL     1     -11.989  -5.998  16.065  0.00  0.00    +0.197 A 
ATOM     35  H   UNL     1     -10.201  -5.708  17.193  0.00  0.00    +0.167 HD
ENDROOT
BRANCH  11  21
ATOM      2  O   UNL     1     -10.090  -9.939  12.757  0.00  0.00    -0.336 OA
ATOM      8  N   UNL     1      -8.192  -9.931  13.947  0.00  0.00    -0.190 NA
ATOM      9  N   UNL     1      -9.050  -9.792  11.830  0.00  0.00    -0.056 NA
ATOM     21  C   UNL     1      -9.498 -10.013  13.978  0.00  0.00    +0.249 A 
ATOM     24  C   UNL     1      -7.963  -9.796  12.608  0.00  0.00    +0.202 A 
BRANCH  24  25
ATOM     25  C   UNL     1      -6.635  -9.665  12.080  0.00  0.00    +0.023 A 
ATOM     26  C   UNL     1      -5.552 -10.203  12.777  0.00  0.00    +0.020 A 
ATOM     27  C   UNL     1      -6.429  -9.006  10.873  0.00  0.00    +0.012 A 
ATOM     28  C   UNL     1      -4.247 -10.085  12.273  0.00  0.00    -0.017 A 
ATOM     29  C   UNL     1      -4.037  -9.413  11.045  0.00  0.00    -0.018 A 
ATOM     30  C   UNL     1      -5.138  -8.879  10.357  0.00  0.00    +0.009 A 
ATOM     31  C   UNL     1      -3.144 -10.619  12.961  0.00  0.00    +0.008 A 
ATOM     32  C   UNL     1      -2.731  -9.295  10.542  0.00  0.00    +0.008 A 
ATOM     33  C   UNL     1      -1.855 -10.492  12.447  0.00  0.00    +0.001 A 
ATOM     34  C   UNL     1      -1.648  -9.831  11.239  0.00  0.00    +0.001 A 
ENDBRANCH  24  25
ENDBRANCH  11  21
BRANCH  15  12
ATOM     12  C   UNL     1      -8.412 -10.607  18.447  0.00  0.00    +0.103 C 
BRANCH  12  10
ATOM     10  C   UNL     1      -7.003 -11.230  18.415  0.00  0.00    -0.017 C 
ATOM     19  C   UNL     1      -7.095 -12.629  19.059  0.00  0.00    +0.012 C 
ATOM     20  C   UNL     1      -6.031 -10.386  19.268  0.00  0.00    +0.012 C 
BRANCH  10  18
ATOM     18  C   UNL     1      -6.420 -11.335  16.985  0.00  0.00    +0.127 C 
BRANCH  18  23
ATOM      4  O   UNL     1      -4.317 -10.181  16.661  0.00  0.00    -0.251 OA
ATOM     23  C   UNL     1      -5.539 -10.176  16.575  0.00  0.00    +0.305 C 
BRANCH  23   3
ATOM      3  O   UNL     1      -6.244  -9.116  16.107  0.00  0.00    -0.481 OA
ATOM     36  H   UNL     1      -6.968  -8.859  16.716  0.00  0.00    +0.295 HD
ENDBRANCH  23   3
ENDBRANCH  18  23
ENDBRANCH  10  18
ENDBRANCH  12  10
ENDBRANCH  15  12
TORSDOF 7
ENDMDL
MODEL 2
REMARK VINA RESULT:      -6.8     25.053     28.844
REMARK  Name = 26745105
REMARK  9 active torsions:
REMARK  status: ('A' for Active; 'I' for Inactive)
REMARK    1  A    between atoms: O_3  and  C_23
REMARK    2  A    between atoms: C_10  and  C_12
REMARK    3  A    between atoms: C_10  and  C_18
REMARK    4  A    between atoms: C_10  and  C_19
REMARK    5  A    between atoms: C_10  and  C_20
REMARK    6  A    between atoms: C_11  and  C_21
REMARK    7  A    between atoms: C_12  and  C_15
REMARK    8  A    between atoms: C_18  and  C_23
REMARK    9  A    between atoms: C_24  and  C_25
REMARK                            x       y       z     vdW  Elec       q    Type
REMARK                         _______ _______ _______ _____ _____    ______ ____
ROOT
ATOM      1  O   UNL     1      12.084   1.499  -2.122  0.00  0.00    -0.276 OA
ATOM      5  N   UNL     1      12.934   3.609  -1.615  0.00  0.00    -0.284 N 
ATOM      6  N   UNL     1      15.245   6.535  -1.503  0.00  0.00    -0.347 N 
ATOM      7  N   UNL     1      16.093   5.522   0.298  0.00  0.00    -0.240 NA
ATOM     11  C   UNL     1      13.034   3.306  -0.145  0.00  0.00    +0.171 C 
ATOM     13  C   UNL     1      14.471   3.578   0.396  0.00  0.00    +0.089 C 
ATOM     14  C   UNL     1      13.309   4.977  -2.068  0.00  0.00    +0.163 C 
ATOM     15  C   UNL     1      12.401   2.638  -2.473  0.00  0.00    +0.217 C 
ATOM     16  C   UNL     1      14.479   5.429  -1.290  0.00  0.00    +0.056 A 
ATOM     17  C   UNL     1      15.017   4.827  -0.180  0.00  0.00    +0.066 A 
ATOM     22  C   UNL     1      16.205   6.547  -0.522  0.00  0.00    +0.197 A 
ATOM     35  H   UNL     1      15.132   7.220  -2.240  0.00  0.00    +0.167 HD
ENDROOT
BRANCH  11  21
ATOM      2  O   UNL     1      10.671   3.953   0.006  0.00  0.00    -0.336 OA
ATOM      8  N   UNL     1      11.888   4.531   1.795  0.00  0.00    -0.190 NA
ATOM      9  N   UNL     1       9.790   4.597   0.885  0.00  0.00    -0.056 NA
ATOM     21  C   UNL     1      11.883   3.957   0.618  0.00  0.00    +0.249 A 
ATOM     24  C   UNL     1      10.582   4.908   1.916  0.00  0.00    +0.202 A 
BRANCH  24  25
ATOM     25  C   UNL     1      10.099   5.592   3.081  0.00  0.00    +0.023 A 
ATOM     26  C   UNL     1      10.230   5.003   4.339  0.00  0.00    +0.020 A 
ATOM     27  C   UNL     1       9.502   6.842   2.956  0.00  0.00    +0.012 A 
ATOM     28  C   UNL     1       9.765   5.660   5.489  0.00  0.00    -0.017 A 
ATOM     29  C   UNL     1       9.157   6.932   5.362  0.00  0.00    -0.018 A 
ATOM     30  C   UNL     1       9.033   7.509   4.088  0.00  0.00    +0.009 A 
ATOM     31  C   UNL     1       9.888   5.082   6.764  0.00  0.00    +0.008 A 
ATOM     32  C   UNL     1       8.690   7.589   6.513  0.00  0.00    +0.008 A 
ATOM     33  C   UNL     1       9.419   5.749   7.896  0.00  0.00    +0.001 A 
ATOM     34  C   UNL     1       8.821   6.999   7.771  0.00  0.00    +0.001 A 
ENDBRANCH  24  25
ENDBRANCH  11  21
BRANCH  15  12
ATOM     12  C   UNL     1      12.217   3.041  -3.916  0.00  0.00    +0.103 C 
BRANCH  12  10
ATOM     10  C   UNL     1      10.760   3.416  -4.252  0.00  0.00    -0.017 C 
ATOM     19  C   UNL     1       9.839   2.413  -3.528  0.00  0.00    +0.012 C 
ATOM     20  C   UNL     1      10.512   3.267  -5.769  0.00  0.00    +0.012 C 
BRANCH  10  18
ATOM     18  C   UNL     1      10.399   4.865  -3.846  0.00  0.00    +0.127 C 
BRANCH  18  23
ATOM      4  O   UNL     1       7.993   5.116  -3.905  0.00  0.00    -0.251 OA
ATOM     23  C   UNL     1       9.021   5.029  -3.245  0.00  0.00    +0.305 C 
BRANCH  23   3
ATOM      3  O   UNL     1       9.038   5.079  -1.890  0.00  0.00    -0.481 OA
ATOM     36  H   UNL     1       8.643   5.908  -1.548  0.00  0.00    +0.295 HD
ENDBRANCH  23   3
ENDBRANCH  18  23
ENDBRANCH  10  18
ENDBRANCH  12  10
ENDBRANCH  15  12
TORSDOF 7
ENDMDL
MODEL 3
REMARK VINA RESULT:      -6.8      2.366      5.325
REMARK  Name = 26745105
REMARK  9 active torsions:
REMARK  status: ('A' for Active; 'I' for Inactive)
REMARK    1  A    between atoms: O_3  and  C_23
REMARK    2  A    between atoms: C_10  and  C_12
REMARK    3  A    between atoms: C_10  and  C_18
REMARK    4  A    between atoms: C_10  and  C_19
REMARK    5  A    between atoms: C_10  and  C_20
REMARK    6  A    between atoms: C_11  and  C_21
REMARK    7  A    between atoms: C_12  and  C_15
REMARK    8  A    between atoms: C_18  and  C_23
REMARK    9  A    between atoms: C_24  and  C_25
REMARK                            x       y       z     vdW  Elec       q    Type
REMARK                         _______ _______ _______ _____ _____    ______ ____
ROOT
ATOM      1  O   UNL     1      -9.300  -7.862  17.376  0.00  0.00    -0.276 OA
ATOM      5  N   UNL     1      -9.185 -10.184  17.534  0.00  0.00    -0.284 N 
ATOM      6  N   UNL     1      -9.880 -13.670  18.667  0.00  0.00    -0.347 N 
ATOM      7  N   UNL     1      -8.274 -13.271  20.167  0.00  0.00    -0.240 NA
ATOM     11  C   UNL     1      -7.768 -10.161  18.036  0.00  0.00    +0.171 C 
ATOM     13  C   UNL     1      -7.625 -10.955  19.372  0.00  0.00    +0.089 C 
ATOM     14  C   UNL     1      -9.822 -11.511  17.312  0.00  0.00    +0.163 C 
ATOM     15  C   UNL     1      -9.806  -8.973  17.201  0.00  0.00    +0.217 C 
ATOM     16  C   UNL     1      -9.397 -12.426  18.391  0.00  0.00    +0.056 A 
ATOM     17  C   UNL     1      -8.413 -12.206  19.322  0.00  0.00    +0.066 A 
ATOM     22  C   UNL     1      -9.173 -14.137  19.746  0.00  0.00    +0.197 A 
ATOM     35  H   UNL     1     -10.615 -14.160  18.174  0.00  0.00    +0.167 HD
ENDROOT
BRANCH  11  21
ATOM      2  O   UNL     1      -6.064 -11.658  17.098  0.00  0.00    -0.336 OA
ATOM      8  N   UNL     1      -6.552  -9.905  15.793  0.00  0.00    -0.190 NA
ATOM      9  N   UNL     1      -5.256 -11.783  15.960  0.00  0.00    -0.056 NA
ATOM     21  C   UNL     1      -6.795 -10.527  16.918  0.00  0.00    +0.249 A 
ATOM     24  C   UNL     1      -5.601 -10.713  15.238  0.00  0.00    +0.202 A 
BRANCH  24  25
ATOM     25  C   UNL     1      -5.018 -10.423  13.960  0.00  0.00    +0.023 A 
ATOM     26  C   UNL     1      -5.774  -9.782  12.978  0.00  0.00    +0.020 A 
ATOM     27  C   UNL     1      -3.698 -10.778  13.702  0.00  0.00    +0.012 A 
ATOM     28  C   UNL     1      -5.218  -9.489  11.723  0.00  0.00    -0.017 A 
ATOM     29  C   UNL     1      -3.875  -9.852  11.459  0.00  0.00    -0.018 A 
ATOM     30  C   UNL     1      -3.128 -10.496  12.459  0.00  0.00    +0.009 A 
ATOM     31  C   UNL     1      -5.964  -8.845  10.722  0.00  0.00    +0.008 A 
ATOM     32  C   UNL     1      -3.318  -9.560  10.203  0.00  0.00    +0.008 A 
ATOM     33  C   UNL     1      -5.395  -8.564   9.480  0.00  0.00    +0.001 A 
ATOM     34  C   UNL     1      -4.075  -8.921   9.221  0.00  0.00    +0.001 A 
ENDBRANCH  24  25
ENDBRANCH  11  21
BRANCH  15  12
ATOM     12  C   UNL     1     -11.184  -9.066  16.593  0.00  0.00    +0.103 C 
BRANCH  12  10
ATOM     10  C   UNL     1     -11.202  -8.713  15.092  0.00  0.00    -0.017 C 
ATOM     19  C   UNL     1     -12.431  -9.401  14.464  0.00  0.00    +0.012 C 
ATOM     20  C   UNL     1      -9.944  -9.280  14.400  0.00  0.00    +0.012 C 
BRANCH  10  18
ATOM     18  C   UNL     1     -11.248  -7.188  14.830  0.00  0.00    +0.127 C 
BRANCH  18  23
ATOM      4  O   UNL     1     -13.211  -6.344  15.968  0.00  0.00    -0.251 OA
ATOM     23  C   UNL     1     -11.990  -6.389  15.878  0.00  0.00    +0.305 C 
BRANCH  23   3
ATOM      3  O   UNL     1     -11.161  -5.712  16.712  0.00  0.00    -0.481 OA
ATOM     36  H   UNL     1     -10.231  -6.009  16.625  0.00  0.00    +0.295 HD
ENDBRANCH  23   3
ENDBRANCH  18  23
ENDBRANCH  10  18
ENDBRANCH  12  10
ENDBRANCH  15  12
TORSDOF 7
ENDMDL
MODEL 4
REMARK VINA RESULT:      -6.8     24.633     28.445
REMARK  Name = 26745105
REMARK  9 active torsions:
REMARK  status: ('A' for Active; 'I' for Inactive)
REMARK    1  A    between atoms: O_3  and  C_23
REMARK    2  A    between atoms: C_10  and  C_12
REMARK    3  A    between atoms: C_10  and  C_18
REMARK    4  A    between atoms: C_10  and  C_19
REMARK    5  A    between atoms: C_10  and  C_20
REMARK    6  A    between atoms: C_11  and  C_21
REMARK    7  A    between atoms: C_12  and  C_15
REMARK    8  A    between atoms: C_18  and  C_23
REMARK    9  A    between atoms: C_24  and  C_25
REMARK                            x       y       z     vdW  Elec       q    Type
REMARK                         _______ _______ _______ _____ _____    ______ ____
ROOT
ATOM      1  O   UNL     1       9.576   7.271   3.036  0.00  0.00    -0.276 OA
ATOM      5  N   UNL     1      10.197   6.176   4.997  0.00  0.00    -0.284 N 
ATOM      6  N   UNL     1      10.010   3.987   8.012  0.00  0.00    -0.347 N 
ATOM      7  N   UNL     1       9.226   5.817   9.025  0.00  0.00    -0.240 NA
ATOM     11  C   UNL     1      10.317   7.459   5.772  0.00  0.00    +0.171 C 
ATOM     13  C   UNL     1       9.462   7.419   7.076  0.00  0.00    +0.089 C 
ATOM     14  C   UNL     1      10.544   4.908   5.696  0.00  0.00    +0.163 C 
ATOM     15  C   UNL     1       9.868   6.234   3.637  0.00  0.00    +0.217 C 
ATOM     16  C   UNL     1      10.059   4.988   7.088  0.00  0.00    +0.056 A 
ATOM     17  C   UNL     1       9.576   6.098   7.734  0.00  0.00    +0.066 A 
ATOM     22  C   UNL     1       9.500   4.536   9.162  0.00  0.00    +0.197 A 
ATOM     35  H   UNL     1      10.296   3.025   7.882  0.00  0.00    +0.167 HD
ENDROOT
BRANCH  11  21
ATOM      2  O   UNL     1      12.098   8.579   7.038  0.00  0.00    -0.336 OA
ATOM      8  N   UNL     1      12.800   7.606   5.147  0.00  0.00    -0.190 NA
ATOM      9  N   UNL     1      13.475   8.822   6.964  0.00  0.00    -0.056 NA
ATOM     21  C   UNL     1      11.783   7.857   5.931  0.00  0.00    +0.249 A 
ATOM     24  C   UNL     1      13.817   8.217   5.822  0.00  0.00    +0.202 A 
BRANCH  24  25
ATOM     25  C   UNL     1      15.164   8.204   5.329  0.00  0.00    +0.023 A 
ATOM     26  C   UNL     1      16.227   8.463   6.196  0.00  0.00    +0.020 A 
ATOM     27  C   UNL     1      15.411   7.932   3.988  0.00  0.00    +0.012 A 
ATOM     28  C   UNL     1      17.551   8.452   5.730  0.00  0.00    -0.017 A 
ATOM     29  C   UNL     1      17.802   8.175   4.365  0.00  0.00    -0.018 A 
ATOM     30  C   UNL     1      16.721   7.918   3.506  0.00  0.00    +0.009 A 
ATOM     31  C   UNL     1      18.633   8.710   6.588  0.00  0.00    +0.008 A 
ATOM     32  C   UNL     1      19.127   8.166   3.898  0.00  0.00    +0.008 A 
ATOM     33  C   UNL     1      19.942   8.697   6.108  0.00  0.00    +0.001 A 
ATOM     34  C   UNL     1      20.189   8.425   4.765  0.00  0.00    +0.001 A 
ENDBRANCH  24  25
ENDBRANCH  11  21
BRANCH  15  12
ATOM     12  C   UNL     1       9.876   4.926   2.884  0.00  0.00    +0.103 C 
BRANCH  12  10
ATOM     10  C   UNL     1      11.087   4.786   1.940  0.00  0.00    -0.017 C 
ATOM     19  C   UNL     1      12.057   5.944   2.247  0.00  0.00    +0.012 C 
ATOM     20  C   UNL     1      10.632   4.935   0.471  0.00  0.00    +0.012 C 
BRANCH  10  18
ATOM     18  C   UNL     1      11.811   3.426   2.082  0.00  0.00    +0.127 C 
BRANCH  18  23
ATOM      4  O   UNL     1      13.155   3.178   0.084  0.00  0.00    -0.251 OA
ATOM     23  C   UNL     1      13.101   3.312   1.300  0.00  0.00    +0.305 C 
BRANCH  23   3
ATOM      3  O   UNL     1      14.203   3.365   2.089  0.00  0.00    -0.481 OA
ATOM     36  H   UNL     1      14.665   4.227   2.017  0.00  0.00    +0.295 HD
ENDBRANCH  23   3
ENDBRANCH  18  23
ENDBRANCH  10  18
ENDBRANCH  12  10
ENDBRANCH  15  12
TORSDOF 7
ENDMDL
MODEL 5
REMARK VINA RESULT:      -6.7     18.212     22.548
REMARK  Name = 26745105
REMARK  9 active torsions:
REMARK  status: ('A' for Active; 'I' for Inactive)
REMARK    1  A    between atoms: O_3  and  C_23
REMARK    2  A    between atoms: C_10  and  C_12
REMARK    3  A    between atoms: C_10  and  C_18
REMARK    4  A    between atoms: C_10  and  C_19
REMARK    5  A    between atoms: C_10  and  C_20
REMARK    6  A    between atoms: C_11  and  C_21
REMARK    7  A    between atoms: C_12  and  C_15
REMARK    8  A    between atoms: C_18  and  C_23
REMARK    9  A    between atoms: C_24  and  C_25
REMARK                            x       y       z     vdW  Elec       q    Type
REMARK                         _______ _______ _______ _____ _____    ______ ____
ROOT
ATOM      1  O   UNL     1     -14.422   9.330  18.750  0.00  0.00    -0.276 OA
ATOM      5  N   UNL     1     -13.646   7.943  20.454  0.00  0.00    -0.284 N 
ATOM      6  N   UNL     1     -12.982   4.865  22.454  0.00  0.00    -0.347 N 
ATOM      7  N   UNL     1     -14.929   5.346  23.438  0.00  0.00    -0.240 NA
ATOM     11  C   UNL     1     -14.524   8.588  21.491  0.00  0.00    +0.171 C 
ATOM     13  C   UNL     1     -15.391   7.530  22.240  0.00  0.00    +0.089 C 
ATOM     14  C   UNL     1     -12.717   6.869  20.902  0.00  0.00    +0.163 C 
ATOM     15  C   UNL     1     -13.663   8.443  19.145  0.00  0.00    +0.217 C 
ATOM     16  C   UNL     1     -13.401   6.045  21.918  0.00  0.00    +0.056 A 
ATOM     17  C   UNL     1     -14.595   6.319  22.538  0.00  0.00    +0.066 A 
ATOM     22  C   UNL     1     -13.936   4.483  23.364  0.00  0.00    +0.197 A 
ATOM     35  H   UNL     1     -12.132   4.364  22.231  0.00  0.00    +0.167 HD
ENDROOT
BRANCH  11  21
ATOM      2  O   UNL     1     -12.779  10.299  21.726  0.00  0.00    -0.336 OA
ATOM      8  N   UNL     1     -13.783   9.753  23.652  0.00  0.00    -0.190 NA
ATOM      9  N   UNL     1     -12.175  11.085  22.716  0.00  0.00    -0.056 NA
ATOM     21  C   UNL     1     -13.714   9.545  22.362  0.00  0.00    +0.249 A 
ATOM     24  C   UNL     1     -12.821  10.706  23.823  0.00  0.00    +0.202 A 
BRANCH  24  25
ATOM     25  C   UNL     1     -12.530  11.260  25.114  0.00  0.00    +0.023 A 
ATOM     26  C   UNL     1     -12.158  10.421  26.165  0.00  0.00    +0.020 A 
ATOM     27  C   UNL     1     -12.616  12.633  25.316  0.00  0.00    +0.012 A 
ATOM     28  C   UNL     1     -11.868  10.948  27.434  0.00  0.00    -0.017 A 
ATOM     29  C   UNL     1     -11.957  12.345  27.640  0.00  0.00    -0.018 A 
ATOM     30  C   UNL     1     -12.332  13.175  26.571  0.00  0.00    +0.009 A 
ATOM     31  C   UNL     1     -11.493  10.119  28.504  0.00  0.00    +0.008 A 
ATOM     32  C   UNL     1     -11.668  12.873  28.910  0.00  0.00    +0.008 A 
ATOM     33  C   UNL     1     -11.210  10.659  29.758  0.00  0.00    +0.001 A 
ATOM     34  C   UNL     1     -11.298  12.033  29.961  0.00  0.00    +0.001 A 
ENDBRANCH  24  25
ENDBRANCH  11  21
BRANCH  15  12
ATOM     12  C   UNL     1     -12.677   7.834  18.178  0.00  0.00    +0.103 C 
BRANCH  12  10
ATOM     10  C   UNL     1     -11.568   8.817  17.754  0.00  0.00    -0.017 C 
ATOM     19  C   UNL     1     -12.195   9.842  16.787  0.00  0.00    +0.012 C 
ATOM     20  C   UNL     1     -10.460   8.066  16.985  0.00  0.00    +0.012 C 
BRANCH  10  18
ATOM     18  C   UNL     1     -10.912   9.543  18.954  0.00  0.00    +0.127 C 
BRANCH  18  23
ATOM      4  O   UNL     1     -10.083  11.654  18.110  0.00  0.00    -0.251 OA
ATOM     23  C   UNL     1     -10.866  11.049  18.833  0.00  0.00    +0.305 C 
BRANCH  23   3
ATOM      3  O   UNL     1     -11.780  11.671  19.618  0.00  0.00    -0.481 OA
ATOM     36  H   UNL     1     -12.440  12.168  19.090  0.00  0.00    +0.295 HD
ENDBRANCH  23   3
ENDBRANCH  18  23
ENDBRANCH  10  18
ENDBRANCH  12  10
ENDBRANCH  15  12
TORSDOF 7
ENDMDL
MODEL 6
REMARK VINA RESULT:      -6.7     28.545     31.237
REMARK  Name = 26745105
REMARK  9 active torsions:
REMARK  status: ('A' for Active; 'I' for Inactive)
REMARK    1  A    between atoms: O_3  and  C_23
REMARK    2  A    between atoms: C_10  and  C_12
REMARK    3  A    between atoms: C_10  and  C_18
REMARK    4  A    between atoms: C_10  and  C_19
REMARK    5  A    between atoms: C_10  and  C_20
REMARK    6  A    between atoms: C_11  and  C_21
REMARK    7  A    between atoms: C_12  and  C_15
REMARK    8  A    between atoms: C_18  and  C_23
REMARK    9  A    between atoms: C_24  and  C_25
REMARK                            x       y       z     vdW  Elec       q    Type
REMARK                         _______ _______ _______ _____ _____    ______ ____
ROOT
ATOM      1  O   UNL     1      15.038  10.846  18.294  0.00  0.00    -0.276 OA
ATOM      5  N   UNL     1      14.710  10.571  20.585  0.00  0.00    -0.284 N 
ATOM      6  N   UNL     1      13.178  10.841  23.976  0.00  0.00    -0.347 N 
ATOM      7  N   UNL     1      14.427  12.683  24.156  0.00  0.00    -0.240 NA
ATOM     11  C   UNL     1      15.951  11.344  20.938  0.00  0.00    +0.171 C 
ATOM     13  C   UNL     1      15.635  12.501  21.936  0.00  0.00    +0.089 C 
ATOM     14  C   UNL     1      13.925   9.971  21.699  0.00  0.00    +0.163 C 
ATOM     15  C   UNL     1      14.404  10.361  19.234  0.00  0.00    +0.217 C 
ATOM     16  C   UNL     1      13.919  10.915  22.834  0.00  0.00    +0.056 A 
ATOM     17  C   UNL     1      14.677  12.051  22.970  0.00  0.00    +0.066 A 
ATOM     22  C   UNL     1      13.518  11.929  24.739  0.00  0.00    +0.197 A 
ATOM     35  H   UNL     1      12.507  10.123  24.219  0.00  0.00    +0.167 HD
ENDROOT
BRANCH  11  21
ATOM      2  O   UNL     1      17.936  10.837  22.290  0.00  0.00    -0.336 OA
ATOM      8  N   UNL     1      17.363   9.204  20.869  0.00  0.00    -0.190 NA
ATOM      9  N   UNL     1      18.875   9.814  22.474  0.00  0.00    -0.056 NA
ATOM     21  C   UNL     1      17.083  10.397  21.329  0.00  0.00    +0.249 A 
ATOM     24  C   UNL     1      18.470   8.886  21.601  0.00  0.00    +0.202 A 
BRANCH  24  25
ATOM     25  C   UNL     1      19.147   7.632  21.438  0.00  0.00    +0.023 A 
ATOM     26  C   UNL     1      20.167   7.271  22.320  0.00  0.00    +0.020 A 
ATOM     27  C   UNL     1      18.786   6.776  20.404  0.00  0.00    +0.012 A 
ATOM     28  C   UNL     1      20.839   6.047  22.175  0.00  0.00    -0.017 A 
ATOM     29  C   UNL     1      20.471   5.176  21.122  0.00  0.00    -0.018 A 
ATOM     30  C   UNL     1      19.442   5.555  20.244  0.00  0.00    +0.009 A 
ATOM     31  C   UNL     1      21.868   5.667  23.052  0.00  0.00    +0.008 A 
ATOM     32  C   UNL     1      21.144   3.951  20.976  0.00  0.00    +0.008 A 
ATOM     33  C   UNL     1      22.525   4.447  22.893  0.00  0.00    +0.001 A 
ATOM     34  C   UNL     1      22.164   3.591  21.857  0.00  0.00    +0.001 A 
ENDBRANCH  24  25
ENDBRANCH  11  21
BRANCH  15  12
ATOM     12  C   UNL     1      13.214   9.479  18.941  0.00  0.00    +0.103 C 
BRANCH  12  10
ATOM     10  C   UNL     1      13.613   8.105  18.369  0.00  0.00    -0.017 C 
ATOM     19  C   UNL     1      14.992   7.736  18.953  0.00  0.00    +0.012 C 
ATOM     20  C   UNL     1      13.764   8.193  16.835  0.00  0.00    +0.012 C 
BRANCH  10  18
ATOM     18  C   UNL     1      12.582   6.995  18.687  0.00  0.00    +0.127 C 
BRANCH  18  23
ATOM      4  O   UNL     1      11.083   7.456  20.531  0.00  0.00    -0.251 OA
ATOM     23  C   UNL     1      12.124   6.952  20.128  0.00  0.00    +0.305 C 
BRANCH  23   3
ATOM      3  O   UNL     1      12.993   6.299  20.939  0.00  0.00    -0.481 OA
ATOM     36  H   UNL     1      13.921   6.567  20.773  0.00  0.00    +0.295 HD
ENDBRANCH  23   3
ENDBRANCH  18  23
ENDBRANCH  10  18
ENDBRANCH  12  10
ENDBRANCH  15  12
TORSDOF 7
ENDMDL
MODEL 7
REMARK VINA RESULT:      -6.7     29.772     32.884
REMARK  Name = 26745105
REMARK  9 active torsions:
REMARK  status: ('A' for Active; 'I' for Inactive)
REMARK    1  A    between atoms: O_3  and  C_23
REMARK    2  A    between atoms: C_10  and  C_12
REMARK    3  A    between atoms: C_10  and  C_18
REMARK    4  A    between atoms: C_10  and  C_19
REMARK    5  A    between atoms: C_10  and  C_20
REMARK    6  A    between atoms: C_11  and  C_21
REMARK    7  A    between atoms: C_12  and  C_15
REMARK    8  A    between atoms: C_18  and  C_23
REMARK    9  A    between atoms: C_24  and  C_25
REMARK                            x       y       z     vdW  Elec       q    Type
REMARK                         _______ _______ _______ _____ _____    ______ ____
ROOT
ATOM      1  O   UNL     1      21.769   5.215  23.678  0.00  0.00    -0.276 OA
ATOM      5  N   UNL     1      21.892   6.569  21.785  0.00  0.00    -0.284 N 
ATOM      6  N   UNL     1      23.195   9.022  19.294  0.00  0.00    -0.347 N 
ATOM      7  N   UNL     1      22.178  10.539  20.580  0.00  0.00    -0.240 NA
ATOM     11  C   UNL     1      20.736   7.427  22.223  0.00  0.00    +0.171 C 
ATOM     13  C   UNL     1      21.121   8.938  22.235  0.00  0.00    +0.089 C 
ATOM     14  C   UNL     1      22.511   6.862  20.463  0.00  0.00    +0.163 C 
ATOM     15  C   UNL     1      22.266   5.479  22.580  0.00  0.00    +0.217 C 
ATOM     16  C   UNL     1      22.554   8.326  20.275  0.00  0.00    +0.056 A 
ATOM     17  C   UNL     1      21.937   9.278  21.048  0.00  0.00    +0.066 A 
ATOM     22  C   UNL     1      22.939  10.351  19.521  0.00  0.00    +0.197 A 
ATOM     35  H   UNL     1      23.751   8.638  18.540  0.00  0.00    +0.167 HD
ENDROOT
BRANCH  11  21
ATOM      2  O   UNL     1      19.554   5.979  20.631  0.00  0.00    -0.336 OA
ATOM      8  N   UNL     1      18.289   7.621  21.479  0.00  0.00    -0.190 NA
ATOM      9  N   UNL     1      18.288   5.835  20.050  0.00  0.00    -0.056 NA
ATOM     21  C   UNL     1      19.468   7.053  21.459  0.00  0.00    +0.249 A 
ATOM     24  C   UNL     1      17.598   6.839  20.600  0.00  0.00    +0.202 A 
BRANCH  24  25
ATOM     25  C   UNL     1      16.219   7.086  20.293  0.00  0.00    +0.023 A 
ATOM     26  C   UNL     1      15.372   7.614  21.269  0.00  0.00    +0.020 A 
ATOM     27  C   UNL     1      15.727   6.802  19.024  0.00  0.00    +0.012 A 
ATOM     28  C   UNL     1      14.020   7.864  20.985  0.00  0.00    -0.017 A 
ATOM     29  C   UNL     1      13.519   7.574  19.693  0.00  0.00    -0.018 A 
ATOM     30  C   UNL     1      14.385   7.043  18.724  0.00  0.00    +0.009 A 
ATOM     31  C   UNL     1      13.153   8.395  21.954  0.00  0.00    +0.008 A 
ATOM     32  C   UNL     1      12.166   7.823  19.409  0.00  0.00    +0.008 A 
ATOM     33  C   UNL     1      11.812   8.635  21.655  0.00  0.00    +0.001 A 
ATOM     34  C   UNL     1      11.319   8.350  20.385  0.00  0.00    +0.001 A 
ENDBRANCH  24  25
ENDBRANCH  11  21
BRANCH  15  12
ATOM     12  C   UNL     1      23.354   4.587  22.033  0.00  0.00    +0.103 C 
BRANCH  12  10
ATOM     10  C   UNL     1      22.884   3.135  21.814  0.00  0.00    -0.017 C 
ATOM     19  C   UNL     1      21.524   3.186  21.090  0.00  0.00    +0.012 C 
ATOM     20  C   UNL     1      22.663   2.439  23.175  0.00  0.00    +0.012 C 
BRANCH  10  18
ATOM     18  C   UNL     1      23.894   2.289  21.001  0.00  0.00    +0.127 C 
BRANCH  18  23
ATOM      4  O   UNL     1      25.977   3.422  20.517  0.00  0.00    -0.251 OA
ATOM     23  C   UNL     1      24.854   3.093  20.154  0.00  0.00    +0.305 C 
BRANCH  23   3
ATOM      3  O   UNL     1      24.341   3.423  18.942  0.00  0.00    -0.481 OA
ATOM     36  H   UNL     1      24.990   3.289  18.220  0.00  0.00    +0.295 HD
ENDBRANCH  23   3
ENDBRANCH  18  23
ENDBRANCH  10  18
ENDBRANCH  12  10
ENDBRANCH  15  12
TORSDOF 7
ENDMDL
MODEL 8
REMARK VINA RESULT:      -6.6     24.571     28.247
REMARK  Name = 26745105
REMARK  9 active torsions:
REMARK  status: ('A' for Active; 'I' for Inactive)
REMARK    1  A    between atoms: O_3  and  C_23
REMARK    2  A    between atoms: C_10  and  C_12
REMARK    3  A    between atoms: C_10  and  C_18
REMARK    4  A    between atoms: C_10  and  C_19
REMARK    5  A    between atoms: C_10  and  C_20
REMARK    6  A    between atoms: C_11  and  C_21
REMARK    7  A    between atoms: C_12  and  C_15
REMARK    8  A    between atoms: C_18  and  C_23
REMARK    9  A    between atoms: C_24  and  C_25
REMARK                            x       y       z     vdW  Elec       q    Type
REMARK                         _______ _______ _______ _____ _____    ______ ____
ROOT
ATOM      1  O   UNL     1       8.880   7.351   3.781  0.00  0.00    -0.276 OA
ATOM      5  N   UNL     1       9.778   6.364   5.691  0.00  0.00    -0.284 N 
ATOM      6  N   UNL     1      10.220   4.027   8.565  0.00  0.00    -0.347 N 
ATOM      7  N   UNL     1       8.921   5.476   9.662  0.00  0.00    -0.240 NA
ATOM     11  C   UNL     1       9.507   7.572   6.543  0.00  0.00    +0.171 C 
ATOM     13  C   UNL     1       8.690   7.198   7.818  0.00  0.00    +0.089 C 
ATOM     14  C   UNL     1      10.478   5.212   6.323  0.00  0.00    +0.163 C 
ATOM     15  C   UNL     1       9.459   6.410   4.327  0.00  0.00    +0.217 C 
ATOM     16  C   UNL     1       9.979   5.055   7.703  0.00  0.00    +0.056 A 
ATOM     17  C   UNL     1       9.183   5.930   8.400  0.00  0.00    +0.066 A 
ATOM     22  C   UNL     1       9.560   4.326   9.731  0.00  0.00    +0.197 A 
ATOM     35  H   UNL     1      10.778   3.202   8.386  0.00  0.00    +0.167 HD
ENDROOT
BRANCH  11  21
ATOM      2  O   UNL     1      10.745   9.328   7.731  0.00  0.00    -0.336 OA
ATOM      8  N   UNL     1      11.942   8.280   6.155  0.00  0.00    -0.190 NA
ATOM      9  N   UNL     1      12.014   9.919   7.749  0.00  0.00    -0.056 NA
ATOM     21  C   UNL     1      10.787   8.373   6.766  0.00  0.00    +0.249 A 
ATOM     24  C   UNL     1      12.662   9.248   6.792  0.00  0.00    +0.202 A 
BRANCH  24  25
ATOM     25  C   UNL     1      14.030   9.517   6.451  0.00  0.00    +0.023 A 
ATOM     26  C   UNL     1      14.747   8.606   5.674  0.00  0.00    +0.020 A 
ATOM     27  C   UNL     1      14.638  10.687   6.891  0.00  0.00    +0.012 A 
ATOM     28  C   UNL     1      16.085   8.856   5.330  0.00  0.00    -0.017 A 
ATOM     29  C   UNL     1      16.704  10.046   5.778  0.00  0.00    -0.018 A 
ATOM     30  C   UNL     1      15.968  10.952   6.559  0.00  0.00    +0.009 A 
ATOM     31  C   UNL     1      16.822   7.950   4.549  0.00  0.00    +0.008 A 
ATOM     32  C   UNL     1      18.043  10.296   5.435  0.00  0.00    +0.008 A 
ATOM     33  C   UNL     1      18.151   8.214   4.217  0.00  0.00    +0.001 A 
ATOM     34  C   UNL     1      18.761   9.384   4.659  0.00  0.00    +0.001 A 
ENDBRANCH  24  25
ENDBRANCH  11  21
BRANCH  15  12
ATOM     12  C   UNL     1       9.861   5.214   3.499  0.00  0.00    +0.103 C 
BRANCH  12  10
ATOM     10  C   UNL     1      11.059   5.502   2.573  0.00  0.00    -0.017 C 
ATOM     19  C   UNL     1      10.517   6.200   1.309  0.00  0.00    +0.012 C 
ATOM     20  C   UNL     1      11.715   4.176   2.129  0.00  0.00    +0.012 C 
BRANCH  10  18
ATOM     18  C   UNL     1      12.147   6.375   3.244  0.00  0.00    +0.127 C 
BRANCH  18  23
ATOM      4  O   UNL     1      13.148   7.885   1.640  0.00  0.00    -0.251 OA
ATOM     23  C   UNL     1      12.382   7.713   2.580  0.00  0.00    +0.305 C 
BRANCH  23   3
ATOM      3  O   UNL     1      11.659   8.715   3.139  0.00  0.00    -0.481 OA
ATOM     36  H   UNL     1      10.706   8.494   3.194  0.00  0.00    +0.295 HD
ENDBRANCH  23   3
ENDBRANCH  18  23
ENDBRANCH  10  18
ENDBRANCH  12  10
ENDBRANCH  15  12
TORSDOF 7
ENDMDL
MODEL 9
REMARK VINA RESULT:      -6.6      3.319      6.624
REMARK  Name = 26745105
REMARK  9 active torsions:
REMARK  status: ('A' for Active; 'I' for Inactive)
REMARK    1  A    between atoms: O_3  and  C_23
REMARK    2  A    between atoms: C_10  and  C_12
REMARK    3  A    between atoms: C_10  and  C_18
REMARK    4  A    between atoms: C_10  and  C_19
REMARK    5  A    between atoms: C_10  and  C_20
REMARK    6  A    between atoms: C_11  and  C_21
REMARK    7  A    between atoms: C_12  and  C_15
REMARK    8  A    between atoms: C_18  and  C_23
REMARK    9  A    between atoms: C_24  and  C_25
REMARK                            x       y       z     vdW  Elec       q    Type
REMARK                         _______ _______ _______ _____ _____    ______ ____
ROOT
ATOM      1  O   UNL     1      -4.054 -10.265  17.249  0.00  0.00    -0.276 OA
ATOM      5  N   UNL     1      -3.881 -11.999  15.703  0.00  0.00    -0.284 N 
ATOM      6  N   UNL     1      -2.902 -15.254  14.164  0.00  0.00    -0.347 N 
ATOM      7  N   UNL     1      -1.129 -14.119  13.416  0.00  0.00    -0.240 NA
ATOM     11  C   UNL     1      -3.125 -11.153  14.716  0.00  0.00    +0.171 C 
ATOM     13  C   UNL     1      -1.787 -11.834  14.290  0.00  0.00    +0.089 C 
ATOM     14  C   UNL     1      -4.219 -13.394  15.306  0.00  0.00    +0.163 C 
ATOM     15  C   UNL     1      -4.321 -11.416  16.898  0.00  0.00    +0.217 C 
ATOM     16  C   UNL     1      -3.082 -13.960  14.554  0.00  0.00    +0.056 A 
ATOM     17  C   UNL     1      -1.984 -13.286  14.081  0.00  0.00    +0.066 A 
ATOM     22  C   UNL     1      -1.711 -15.299  13.483  0.00  0.00    +0.197 A 
ATOM     35  H   UNL     1      -3.523 -16.033  14.338  0.00  0.00    +0.167 HD
ENDROOT
BRANCH  11  21
ATOM      2  O   UNL     1      -5.202 -10.085  13.959  0.00  0.00    -0.336 OA
ATOM      8  N   UNL     1      -3.883 -10.793  12.292  0.00  0.00    -0.190 NA
ATOM      9  N   UNL     1      -5.866  -9.757  12.770  0.00  0.00    -0.056 NA
ATOM     21  C   UNL     1      -4.044 -10.691  13.587  0.00  0.00    +0.249 A 
ATOM     24  C   UNL     1      -5.027 -10.206  11.833  0.00  0.00    +0.202 A 
BRANCH  24  25
ATOM     25  C   UNL     1      -5.299 -10.082  10.429  0.00  0.00    +0.023 A 
ATOM     26  C   UNL     1      -6.329  -9.249   9.990  0.00  0.00    +0.020 A 
ATOM     27  C   UNL     1      -4.535 -10.791   9.508  0.00  0.00    +0.012 A 
ATOM     28  C   UNL     1      -6.607  -9.115   8.621  0.00  0.00    -0.017 A 
ATOM     29  C   UNL     1      -5.830  -9.837   7.683  0.00  0.00    -0.018 A 
ATOM     30  C   UNL     1      -4.798 -10.671   8.142  0.00  0.00    +0.009 A 
ATOM     31  C   UNL     1      -7.639  -8.281   8.160  0.00  0.00    +0.008 A 
ATOM     32  C   UNL     1      -6.109  -9.704   6.312  0.00  0.00    +0.008 A 
ATOM     33  C   UNL     1      -7.903  -8.162   6.796  0.00  0.00    +0.001 A 
ATOM     34  C   UNL     1      -7.139  -8.872   5.874  0.00  0.00    +0.001 A 
ENDBRANCH  24  25
ENDBRANCH  11  21
BRANCH  15  12
ATOM     12  C   UNL     1      -5.174 -12.279  17.795  0.00  0.00    +0.103 C 
BRANCH  12  10
ATOM     10  C   UNL     1      -6.583 -11.696  18.025  0.00  0.00    -0.017 C 
ATOM     19  C   UNL     1      -6.466 -10.603  19.107  0.00  0.00    +0.012 C 
ATOM     20  C   UNL     1      -7.527 -12.791  18.567  0.00  0.00    +0.012 C 
BRANCH  10  18
ATOM     18  C   UNL     1      -7.213 -11.112  16.738  0.00  0.00    +0.127 C 
BRANCH  18  23
ATOM      4  O   UNL     1      -8.505  -9.133  17.261  0.00  0.00    -0.251 OA
ATOM     23  C   UNL     1      -7.489  -9.626  16.787  0.00  0.00    +0.305 C 
BRANCH  23   3
ATOM      3  O   UNL     1      -6.492  -8.885  16.241  0.00  0.00    -0.481 OA
ATOM     36  H   UNL     1      -6.013  -9.375  15.539  0.00  0.00    +0.295 HD
ENDBRANCH  23   3
ENDBRANCH  18  23
ENDBRANCH  10  18
ENDBRANCH  12  10
ENDBRANCH  15  12
TORSDOF 7
ENDMDL
MODEL 10
REMARK VINA RESULT:      -6.5     28.526     31.230
REMARK  Name = 26745105
REMARK  9 active torsions:
REMARK  status: ('A' for Active; 'I' for Inactive)
REMARK    1  A    between atoms: O_3  and  C_23
REMARK    2  A    between atoms: C_10  and  C_12
REMARK    3  A    between atoms: C_10  and  C_18
REMARK    4  A    between atoms: C_10  and  C_19
REMARK    5  A    between atoms: C_10  and  C_20
REMARK    6  A    between atoms: C_11  and  C_21
REMARK    7  A    between atoms: C_12  and  C_15
REMARK    8  A    between atoms: C_18  and  C_23
REMARK    9  A    between atoms: C_24  and  C_25
REMARK                            x       y       z     vdW  Elec       q    Type
REMARK                         _______ _______ _______ _____ _____    ______ ____
ROOT
ATOM      1  O   UNL     1      14.970  11.270  18.038  0.00  0.00    -0.276 OA
ATOM      5  N   UNL     1      14.480  10.800  20.267  0.00  0.00    -0.284 N 
ATOM      6  N   UNL     1      12.703  10.775  23.548  0.00  0.00    -0.347 N 
ATOM      7  N   UNL     1      13.917  12.600  23.974  0.00  0.00    -0.240 NA
ATOM     11  C   UNL     1      15.683  11.545  20.775  0.00  0.00    +0.171 C 
ATOM     13  C   UNL     1      15.285  12.611  21.841  0.00  0.00    +0.089 C 
ATOM     14  C   UNL     1      13.622  10.105  21.266  0.00  0.00    +0.163 C 
ATOM     15  C   UNL     1      14.275  10.704  18.885  0.00  0.00    +0.217 C 
ATOM     16  C   UNL     1      13.524  10.948  22.474  0.00  0.00    +0.056 A 
ATOM     17  C   UNL     1      14.259  12.071  22.761  0.00  0.00    +0.066 A 
ATOM     22  C   UNL     1      12.976  11.795  24.423  0.00  0.00    +0.197 A 
ATOM     35  H   UNL     1      12.023  10.037  23.680  0.00  0.00    +0.167 HD
ENDROOT
BRANCH  11  21
ATOM      2  O   UNL     1      17.642  10.984  22.144  0.00  0.00    -0.336 OA
ATOM      8  N   UNL     1      17.059   9.381  20.692  0.00  0.00    -0.190 NA
ATOM      9  N   UNL     1      18.560   9.941  22.325  0.00  0.00    -0.056 NA
ATOM     21  C   UNL     1      16.794  10.573  21.166  0.00  0.00    +0.249 A 
ATOM     24  C   UNL     1      18.150   9.034  21.434  0.00  0.00    +0.202 A 
BRANCH  24  25
ATOM     25  C   UNL     1      18.808   7.770  21.261  0.00  0.00    +0.023 A 
ATOM     26  C   UNL     1      19.889   7.430  22.075  0.00  0.00    +0.020 A 
ATOM     27  C   UNL     1      18.366   6.885  20.284  0.00  0.00    +0.012 A 
ATOM     28  C   UNL     1      20.542   6.197  21.920  0.00  0.00    -0.017 A 
ATOM     29  C   UNL     1      20.093   5.296  20.925  0.00  0.00    -0.018 A 
ATOM     30  C   UNL     1      19.003   5.655  20.115  0.00  0.00    +0.009 A 
ATOM     31  C   UNL     1      21.632   5.837  22.730  0.00  0.00    +0.008 A 
ATOM     32  C   UNL     1      20.747   4.062  20.769  0.00  0.00    +0.008 A 
ATOM     33  C   UNL     1      22.269   4.608  22.562  0.00  0.00    +0.001 A 
ATOM     34  C   UNL     1      21.828   3.723  21.583  0.00  0.00    +0.001 A 
ENDBRANCH  24  25
ENDBRANCH  11  21
BRANCH  15  12
ATOM     12  C   UNL     1      13.118   9.846  18.433  0.00  0.00    +0.103 C 
BRANCH  12  10
ATOM     10  C   UNL     1      13.571   8.519  17.792  0.00  0.00    -0.017 C 
ATOM     19  C   UNL     1      12.407   7.515  17.922  0.00  0.00    +0.012 C 
ATOM     20  C   UNL     1      14.775   7.942  18.566  0.00  0.00    +0.012 C 
BRANCH  10  18
ATOM     18  C   UNL     1      13.983   8.674  16.308  0.00  0.00    +0.127 C 
BRANCH  18  23
ATOM      4  O   UNL     1      13.390  10.662  15.062  0.00  0.00    -0.251 OA
ATOM     23  C   UNL     1      13.071   9.559  15.488  0.00  0.00    +0.305 C 
BRANCH  23   3
ATOM      3  O   UNL     1      11.850   9.008  15.275  0.00  0.00    -0.481 OA
ATOM     36  H   UNL     1      11.635   8.323  15.943  0.00  0.00    +0.295 HD
ENDBRANCH  23   3
ENDBRANCH  18  23
ENDBRANCH  10  18
ENDBRANCH  12  10
ENDBRANCH  15  12
TORSDOF 7
ENDMDL
