MODEL 1
REMARK VINA RESULT:      -7.1      0.000      0.000
REMARK  Name = 11886097
REMARK  8 active torsions:
REMARK  status: ('A' for Active; 'I' for Inactive)
REMARK    1  A    between atoms: O_3  and  C_14
REMARK    2  A    between atoms: O_3  and  C_19
REMARK    3  A    between atoms: N_5  and  C_13
REMARK    4  A    between atoms: N_9  and  C_22
REMARK    5  A    between atoms: C_17  and  C_18
REMARK    6  A    between atoms: C_18  and  C_20
REMARK    7  A    between atoms: C_18  and  C_21
REMARK    8  A    between atoms: C_25  and  C_28
REMARK                            x       y       z     vdW  Elec       q    Type
REMARK                         _______ _______ _______ _____ _____    ______ ____
ROOT
ATOM      1  O   UNL     1      13.393   9.747  19.913  0.00  0.00    -0.368 OA
ATOM      2  O   UNL     1      14.061   6.776  19.384  0.00  0.00    -0.368 OA
ATOM     11  C   UNL     1      13.198   7.713  18.701  0.00  0.00    +0.177 C 
ATOM     12  C   UNL     1      12.565   8.583  19.768  0.00  0.00    +0.192 C 
ATOM     13  C   UNL     1      14.040   8.671  17.880  0.00  0.00    +0.168 C 
ATOM     14  C   UNL     1      12.623   7.701  20.993  0.00  0.00    +0.235 C 
ATOM     15  C   UNL     1      14.401   9.753  18.892  0.00  0.00    +0.190 C 
ATOM     16  C   UNL     1      13.932   6.973  20.799  0.00  0.00    +0.207 C 
ENDROOT
BRANCH  13   5
ATOM      5  N   UNL     1      13.345   9.141  16.679  0.00  0.00    -0.221 N 
ATOM      6  N   UNL     1      12.195   8.580  16.291  0.00  0.00    -0.043 NA
ATOM      7  N   UNL     1      12.781  10.209  14.887  0.00  0.00    -0.113 NA
ATOM      8  N   UNL     1      11.852   9.239  15.191  0.00  0.00    -0.023 NA
ATOM     17  C   UNL     1      13.697  10.130  15.824  0.00  0.00    +0.154 A 
BRANCH  17  18
ATOM     18  C   UNL     1      14.913  10.946  15.969  0.00  0.00    +0.052 C 
ATOM     20  C   UNL     1      14.623  12.408  16.394  0.00  0.00    +0.015 C 
ATOM     21  C   UNL     1      15.802  10.955  14.702  0.00  0.00    +0.015 C 
ENDBRANCH  17  18
ENDBRANCH  13   5
BRANCH  14   3
ATOM      3  O   UNL     1      12.589   8.418  22.206  0.00  0.00    -0.442 OA
BRANCH   3  19
ATOM      4  O   UNL     1      10.378   9.003  22.241  0.00  0.00    -0.226 OA
ATOM      9  N   UNL     1      12.068  10.558  22.692  0.00  0.00    -0.251 N 
ATOM     19  C   UNL     1      11.554   9.317  22.371  0.00  0.00    +0.405 C 
ATOM     29  H   UNL     1      13.081  10.622  22.756  0.00  0.00    +0.158 HD
BRANCH   9  22
ATOM     22  C   UNL     1      11.358  11.754  22.944  0.00  0.00    +0.038 A 
ATOM     23  C   UNL     1      11.084  12.616  21.894  0.00  0.00    +0.042 A 
ATOM     24  C   UNL     1      10.949  12.043  24.236  0.00  0.00    +0.023 A 
ATOM     25  C   UNL     1      10.384  13.796  22.142  0.00  0.00    +0.054 A 
ATOM     26  C   UNL     1      10.248  13.222  24.485  0.00  0.00    +0.003 A 
ATOM     27  C   UNL     1       9.966  14.099  23.438  0.00  0.00    +0.019 A 
BRANCH  25  28
ATOM     10  N   UNL     1       9.858  15.425  20.197  0.00  0.00    -0.191 NA
ATOM     28  C   UNL     1      10.093  14.695  21.069  0.00  0.00    +0.099 C 
ENDBRANCH  25  28
ENDBRANCH   9  22
ENDBRANCH   3  19
ENDBRANCH  14   3
TORSDOF 6
ENDMDL
MODEL 2
REMARK VINA RESULT:      -6.6      7.929     10.329
REMARK  Name = 11886097
REMARK  8 active torsions:
REMARK  status: ('A' for Active; 'I' for Inactive)
REMARK    1  A    between atoms: O_3  and  C_14
REMARK    2  A    between atoms: O_3  and  C_19
REMARK    3  A    between atoms: N_5  and  C_13
REMARK    4  A    between atoms: N_9  and  C_22
REMARK    5  A    between atoms: C_17  and  C_18
REMARK    6  A    between atoms: C_18  and  C_20
REMARK    7  A    between atoms: C_18  and  C_21
REMARK    8  A    between atoms: C_25  and  C_28
REMARK                            x       y       z     vdW  Elec       q    Type
REMARK                         _______ _______ _______ _____ _____    ______ ____
ROOT
ATOM      1  O   UNL     1      21.505   6.597  20.209  0.00  0.00    -0.368 OA
ATOM      2  O   UNL     1      20.861   5.803  23.125  0.00  0.00    -0.368 OA
ATOM     11  C   UNL     1      21.428   5.063  22.021  0.00  0.00    +0.177 C 
ATOM     12  C   UNL     1      20.719   5.534  20.768  0.00  0.00    +0.192 C 
ATOM     13  C   UNL     1      22.873   5.481  21.820  0.00  0.00    +0.168 C 
ATOM     14  C   UNL     1      19.399   6.038  21.303  0.00  0.00    +0.235 C 
ATOM     15  C   UNL     1      22.745   6.707  20.922  0.00  0.00    +0.190 C 
ATOM     16  C   UNL     1      19.802   6.635  22.631  0.00  0.00    +0.207 C 
ENDROOT
BRANCH  13   5
ATOM      5  N   UNL     1      23.701   4.397  21.288  0.00  0.00    -0.221 N 
ATOM      6  N   UNL     1      23.995   4.337  19.984  0.00  0.00    -0.043 NA
ATOM      7  N   UNL     1      24.926   2.629  21.073  0.00  0.00    -0.113 NA
ATOM      8  N   UNL     1      24.748   3.251  19.858  0.00  0.00    -0.023 NA
ATOM     17  C   UNL     1      24.269   3.359  21.945  0.00  0.00    +0.154 A 
BRANCH  17  18
ATOM     18  C   UNL     1      24.138   3.135  23.394  0.00  0.00    +0.052 C 
ATOM     20  C   UNL     1      25.466   2.709  24.070  0.00  0.00    +0.015 C 
ATOM     21  C   UNL     1      23.034   2.113  23.760  0.00  0.00    +0.015 C 
ENDBRANCH  17  18
ENDBRANCH  13   5
BRANCH  14   3
ATOM      3  O   UNL     1      18.775   6.984  20.464  0.00  0.00    -0.442 OA
BRANCH   3  19
ATOM      4  O   UNL     1      17.602   5.604  19.068  0.00  0.00    -0.226 OA
ATOM      9  N   UNL     1      16.588   7.424  20.133  0.00  0.00    -0.251 N 
ATOM     19  C   UNL     1      17.629   6.577  19.810  0.00  0.00    +0.405 C 
ATOM     29  H   UNL     1      16.808   8.184  20.773  0.00  0.00    +0.158 HD
BRANCH   9  22
ATOM     22  C   UNL     1      15.249   7.367  19.684  0.00  0.00    +0.038 A 
ATOM     23  C   UNL     1      14.261   6.916  20.546  0.00  0.00    +0.042 A 
ATOM     24  C   UNL     1      14.949   7.763  18.390  0.00  0.00    +0.023 A 
ATOM     25  C   UNL     1      12.940   6.860  20.102  0.00  0.00    +0.054 A 
ATOM     26  C   UNL     1      13.628   7.707  17.946  0.00  0.00    +0.003 A 
ATOM     27  C   UNL     1      12.623   7.255  18.803  0.00  0.00    +0.019 A 
BRANCH  25  28
ATOM     10  N   UNL     1      11.074   6.021  21.691  0.00  0.00    -0.191 NA
ATOM     28  C   UNL     1      11.911   6.397  20.979  0.00  0.00    +0.099 C 
ENDBRANCH  25  28
ENDBRANCH   9  22
ENDBRANCH   3  19
ENDBRANCH  14   3
TORSDOF 6
ENDMDL
MODEL 3
REMARK VINA RESULT:      -6.6      3.195      8.131
REMARK  Name = 11886097
REMARK  8 active torsions:
REMARK  status: ('A' for Active; 'I' for Inactive)
REMARK    1  A    between atoms: O_3  and  C_14
REMARK    2  A    between atoms: O_3  and  C_19
REMARK    3  A    between atoms: N_5  and  C_13
REMARK    4  A    between atoms: N_9  and  C_22
REMARK    5  A    between atoms: C_17  and  C_18
REMARK    6  A    between atoms: C_18  and  C_20
REMARK    7  A    between atoms: C_18  and  C_21
REMARK    8  A    between atoms: C_25  and  C_28
REMARK                            x       y       z     vdW  Elec       q    Type
REMARK                         _______ _______ _______ _____ _____    ______ ____
ROOT
ATOM      1  O   UNL     1      12.403  10.858  20.954  0.00  0.00    -0.368 OA
ATOM      2  O   UNL     1      10.467   8.900  22.358  0.00  0.00    -0.368 OA
ATOM     11  C   UNL     1      11.555   9.711  22.855  0.00  0.00    +0.177 C 
ATOM     12  C   UNL     1      12.628   9.708  21.784  0.00  0.00    +0.192 C 
ATOM     13  C   UNL     1      11.109  11.159  22.941  0.00  0.00    +0.168 C 
ATOM     14  C   UNL     1      12.351   8.422  21.041  0.00  0.00    +0.235 C 
ATOM     15  C   UNL     1      11.376  11.677  21.532  0.00  0.00    +0.190 C 
ATOM     16  C   UNL     1      10.843   8.345  21.090  0.00  0.00    +0.207 C 
ENDROOT
BRANCH  13   5
ATOM      5  N   UNL     1      11.783  11.889  24.017  0.00  0.00    -0.221 N 
ATOM      6  N   UNL     1      12.423  11.235  24.992  0.00  0.00    -0.043 NA
ATOM      7  N   UNL     1      12.572  13.437  25.303  0.00  0.00    -0.113 NA
ATOM      8  N   UNL     1      12.907  12.189  25.778  0.00  0.00    -0.023 NA
ATOM     17  C   UNL     1      11.876  13.226  24.210  0.00  0.00    +0.154 A 
BRANCH  17  18
ATOM     18  C   UNL     1      11.278  14.228  23.312  0.00  0.00    +0.052 C 
ATOM     20  C   UNL     1      12.156  15.493  23.134  0.00  0.00    +0.015 C 
ATOM     21  C   UNL     1       9.852  14.658  23.736  0.00  0.00    +0.015 C 
ENDBRANCH  17  18
ENDBRANCH  13   5
BRANCH  14   3
ATOM      3  O   UNL     1      12.840   8.419  19.718  0.00  0.00    -0.442 OA
BRANCH   3  19
ATOM      4  O   UNL     1      14.791   9.383  19.016  0.00  0.00    -0.226 OA
ATOM      9  N   UNL     1      14.765   7.308  20.099  0.00  0.00    -0.251 N 
ATOM     19  C   UNL     1      14.211   8.452  19.560  0.00  0.00    +0.405 C 
ATOM     29  H   UNL     1      14.114   6.644  20.511  0.00  0.00    +0.158 HD
BRANCH   9  22
ATOM     22  C   UNL     1      16.130   6.943  20.148  0.00  0.00    +0.038 A 
ATOM     23  C   UNL     1      16.944   7.490  21.127  0.00  0.00    +0.042 A 
ATOM     24  C   UNL     1      16.628   6.046  19.217  0.00  0.00    +0.023 A 
ATOM     25  C   UNL     1      18.291   7.130  21.176  0.00  0.00    +0.054 A 
ATOM     26  C   UNL     1      17.974   5.685  19.266  0.00  0.00    +0.003 A 
ATOM     27  C   UNL     1      18.806   6.228  20.246  0.00  0.00    +0.019 A 
BRANCH  25  28
ATOM     10  N   UNL     1      19.837   8.136  22.995  0.00  0.00    -0.191 NA
ATOM     28  C   UNL     1      19.144   7.685  22.180  0.00  0.00    +0.099 C 
ENDBRANCH  25  28
ENDBRANCH   9  22
ENDBRANCH   3  19
ENDBRANCH  14   3
TORSDOF 6
ENDMDL
MODEL 4
REMARK VINA RESULT:      -6.5      6.451      9.536
REMARK  Name = 11886097
REMARK  8 active torsions:
REMARK  status: ('A' for Active; 'I' for Inactive)
REMARK    1  A    between atoms: O_3  and  C_14
REMARK    2  A    between atoms: O_3  and  C_19
REMARK    3  A    between atoms: N_5  and  C_13
REMARK    4  A    between atoms: N_9  and  C_22
REMARK    5  A    between atoms: C_17  and  C_18
REMARK    6  A    between atoms: C_18  and  C_20
REMARK    7  A    between atoms: C_18  and  C_21
REMARK    8  A    between atoms: C_25  and  C_28
REMARK                            x       y       z     vdW  Elec       q    Type
REMARK                         _______ _______ _______ _____ _____    ______ ____
ROOT
ATOM      1  O   UNL     1      16.253   8.590  20.435  0.00  0.00    -0.368 OA
ATOM      2  O   UNL     1      16.427   5.815  19.085  0.00  0.00    -0.368 OA
ATOM     11  C   UNL     1      15.433   6.414  19.945  0.00  0.00    +0.177 C 
ATOM     12  C   UNL     1      16.181   7.255  20.960  0.00  0.00    +0.192 C 
ATOM     13  C   UNL     1      14.614   7.415  19.152  0.00  0.00    +0.168 C 
ATOM     14  C   UNL     1      17.540   6.597  20.999  0.00  0.00    +0.235 C 
ATOM     15  C   UNL     1      15.452   8.685  19.249  0.00  0.00    +0.190 C 
ATOM     16  C   UNL     1      17.731   6.177  19.560  0.00  0.00    +0.207 C 
ENDROOT
BRANCH  13   5
ATOM      5  N   UNL     1      13.239   7.531  19.644  0.00  0.00    -0.221 N 
ATOM      6  N   UNL     1      12.921   7.137  20.882  0.00  0.00    -0.043 NA
ATOM      7  N   UNL     1      11.122   7.925  19.826  0.00  0.00    -0.113 NA
ATOM      8  N   UNL     1      11.620   7.382  20.989  0.00  0.00    -0.023 NA
ATOM     17  C   UNL     1      12.144   8.008  19.007  0.00  0.00    +0.154 A 
BRANCH  17  18
ATOM     18  C   UNL     1      12.157   8.522  17.628  0.00  0.00    +0.052 C 
ATOM     20  C   UNL     1      12.748   9.951  17.512  0.00  0.00    +0.015 C 
ATOM     21  C   UNL     1      10.766   8.494  16.949  0.00  0.00    +0.015 C 
ENDBRANCH  17  18
ENDBRANCH  13   5
BRANCH  14   3
ATOM      3  O   UNL     1      18.569   7.453  21.443  0.00  0.00    -0.442 OA
BRANCH   3  19
ATOM      4  O   UNL     1      19.655   6.228  23.040  0.00  0.00    -0.226 OA
ATOM      9  N   UNL     1      20.777   7.083  21.172  0.00  0.00    -0.251 N 
ATOM     19  C   UNL     1      19.687   6.854  21.989  0.00  0.00    +0.405 C 
ATOM     29  H   UNL     1      20.603   7.630  20.333  0.00  0.00    +0.158 HD
BRANCH   9  22
ATOM     22  C   UNL     1      22.109   6.648  21.358  0.00  0.00    +0.038 A 
ATOM     23  C   UNL     1      22.602   5.614  20.579  0.00  0.00    +0.042 A 
ATOM     24  C   UNL     1      22.897   7.265  22.317  0.00  0.00    +0.023 A 
ATOM     25  C   UNL     1      23.917   5.186  20.763  0.00  0.00    +0.054 A 
ATOM     26  C   UNL     1      24.211   6.838  22.502  0.00  0.00    +0.003 A 
ATOM     27  C   UNL     1      24.721   5.797  21.724  0.00  0.00    +0.019 A 
BRANCH  25  28
ATOM     10  N   UNL     1      24.865   3.255  19.319  0.00  0.00    -0.191 NA
ATOM     28  C   UNL     1      24.440   4.121  19.966  0.00  0.00    +0.099 C 
ENDBRANCH  25  28
ENDBRANCH   9  22
ENDBRANCH   3  19
ENDBRANCH  14   3
TORSDOF 6
ENDMDL
MODEL 5
REMARK VINA RESULT:      -6.5     26.676     28.857
REMARK  Name = 11886097
REMARK  8 active torsions:
REMARK  status: ('A' for Active; 'I' for Inactive)
REMARK    1  A    between atoms: O_3  and  C_14
REMARK    2  A    between atoms: O_3  and  C_19
REMARK    3  A    between atoms: N_5  and  C_13
REMARK    4  A    between atoms: N_9  and  C_22
REMARK    5  A    between atoms: C_17  and  C_18
REMARK    6  A    between atoms: C_18  and  C_20
REMARK    7  A    between atoms: C_18  and  C_21
REMARK    8  A    between atoms: C_25  and  C_28
REMARK                            x       y       z     vdW  Elec       q    Type
REMARK                         _______ _______ _______ _____ _____    ______ ____
ROOT
ATOM      1  O   UNL     1      -4.173 -11.845  14.277  0.00  0.00    -0.368 OA
ATOM      2  O   UNL     1      -2.129 -10.957  16.418  0.00  0.00    -0.368 OA
ATOM     11  C   UNL     1      -3.433 -10.451  16.053  0.00  0.00    +0.177 C 
ATOM     12  C   UNL     1      -3.547 -10.582  14.547  0.00  0.00    +0.192 C 
ATOM     13  C   UNL     1      -4.506 -11.376  16.596  0.00  0.00    +0.168 C 
ATOM     14  C   UNL     1      -2.104 -10.569  14.103  0.00  0.00    +0.235 C 
ATOM     15  C   UNL     1      -4.619 -12.436  15.506  0.00  0.00    +0.190 C 
ATOM     16  C   UNL     1      -1.419 -11.314  15.224  0.00  0.00    +0.207 C 
ENDROOT
BRANCH  13   5
ATOM      5  N   UNL     1      -5.747 -10.668  16.916  0.00  0.00    -0.221 N 
ATOM      6  N   UNL     1      -6.179  -9.664  16.147  0.00  0.00    -0.043 NA
ATOM      7  N   UNL     1      -7.586 -10.009  17.841  0.00  0.00    -0.113 NA
ATOM      8  N   UNL     1      -7.309  -9.263  16.718  0.00  0.00    -0.023 NA
ATOM     17  C   UNL     1      -6.604 -10.874  17.944  0.00  0.00    +0.154 A 
BRANCH  17  18
ATOM     18  C   UNL     1      -6.417 -11.909  18.973  0.00  0.00    +0.052 C 
ATOM     20  C   UNL     1      -7.746 -12.552  19.446  0.00  0.00    +0.015 C 
ATOM     21  C   UNL     1      -5.629 -11.410  20.210  0.00  0.00    +0.015 C 
ENDBRANCH  17  18
ENDBRANCH  13   5
BRANCH  14   3
ATOM      3  O   UNL     1      -1.893 -11.183  12.851  0.00  0.00    -0.442 OA
BRANCH   3  19
ATOM      4  O   UNL     1      -1.526  -9.579  11.263  0.00  0.00    -0.226 OA
ATOM      9  N   UNL     1      -3.475 -10.877  11.273  0.00  0.00    -0.251 N 
ATOM     19  C   UNL     1      -2.242 -10.455  11.732  0.00  0.00    +0.405 C 
ATOM     29  H   UNL     1      -3.919 -11.624  11.801  0.00  0.00    +0.158 HD
BRANCH   9  22
ATOM     22  C   UNL     1      -4.197 -10.398  10.156  0.00  0.00    +0.038 A 
ATOM     23  C   UNL     1      -4.182 -11.123   8.975  0.00  0.00    +0.042 A 
ATOM     24  C   UNL     1      -4.907  -9.213  10.263  0.00  0.00    +0.023 A 
ATOM     25  C   UNL     1      -4.895 -10.650   7.873  0.00  0.00    +0.054 A 
ATOM     26  C   UNL     1      -5.620  -8.740   9.163  0.00  0.00    +0.003 A 
ATOM     27  C   UNL     1      -5.614  -9.458   7.967  0.00  0.00    +0.019 A 
BRANCH  25  28
ATOM     10  N   UNL     1      -4.885 -11.985   5.653  0.00  0.00    -0.191 NA
ATOM     28  C   UNL     1      -4.889 -11.386   6.648  0.00  0.00    +0.099 C 
ENDBRANCH  25  28
ENDBRANCH   9  22
ENDBRANCH   3  19
ENDBRANCH  14   3
TORSDOF 6
ENDMDL
MODEL 6
REMARK VINA RESULT:      -6.5     26.708     28.053
REMARK  Name = 11886097
REMARK  8 active torsions:
REMARK  status: ('A' for Active; 'I' for Inactive)
REMARK    1  A    between atoms: O_3  and  C_14
REMARK    2  A    between atoms: O_3  and  C_19
REMARK    3  A    between atoms: N_5  and  C_13
REMARK    4  A    between atoms: N_9  and  C_22
REMARK    5  A    between atoms: C_17  and  C_18
REMARK    6  A    between atoms: C_18  and  C_20
REMARK    7  A    between atoms: C_18  and  C_21
REMARK    8  A    between atoms: C_25  and  C_28
REMARK                            x       y       z     vdW  Elec       q    Type
REMARK                         _______ _______ _______ _____ _____    ______ ____
ROOT
ATOM      1  O   UNL     1      -2.295 -10.305  12.795  0.00  0.00    -0.368 OA
ATOM      2  O   UNL     1      -2.922 -13.053  11.529  0.00  0.00    -0.368 OA
ATOM     11  C   UNL     1      -3.680 -11.825  11.605  0.00  0.00    +0.177 C 
ATOM     12  C   UNL     1      -3.391 -11.216  12.963  0.00  0.00    +0.192 C 
ATOM     13  C   UNL     1      -3.121 -10.822  10.613  0.00  0.00    +0.168 C 
ATOM     14  C   UNL     1      -2.995 -12.418  13.788  0.00  0.00    +0.235 C 
ATOM     15  C   UNL     1      -1.991 -10.166  11.400  0.00  0.00    +0.190 C 
ATOM     16  C   UNL     1      -2.255 -13.266  12.780  0.00  0.00    +0.207 C 
ENDROOT
BRANCH  13   5
ATOM      5  N   UNL     1      -4.145  -9.907  10.103  0.00  0.00    -0.221 N 
ATOM      6  N   UNL     1      -4.391  -8.745  10.717  0.00  0.00    -0.043 NA
ATOM      7  N   UNL     1      -5.718  -8.986   8.942  0.00  0.00    -0.113 NA
ATOM      8  N   UNL     1      -5.356  -8.182  10.000  0.00  0.00    -0.023 NA
ATOM     17  C   UNL     1      -4.953 -10.049   9.026  0.00  0.00    +0.154 A 
BRANCH  17  18
ATOM     18  C   UNL     1      -4.933 -11.221   8.135  0.00  0.00    +0.052 C 
ATOM     20  C   UNL     1      -5.189 -10.864   6.649  0.00  0.00    +0.015 C 
ATOM     21  C   UNL     1      -5.919 -12.335   8.564  0.00  0.00    +0.015 C 
ENDBRANCH  17  18
ENDBRANCH  13   5
BRANCH  14   3
ATOM      3  O   UNL     1      -2.194 -12.098  14.903  0.00  0.00    -0.442 OA
BRANCH   3  19
ATOM      4  O   UNL     1      -2.292 -10.244  16.239  0.00  0.00    -0.226 OA
ATOM      9  N   UNL     1      -3.919 -11.924  16.346  0.00  0.00    -0.251 N 
ATOM     19  C   UNL     1      -2.771 -11.313  15.881  0.00  0.00    +0.405 C 
ATOM     29  H   UNL     1      -4.157 -12.817  15.920  0.00  0.00    +0.158 HD
BRANCH   9  22
ATOM     22  C   UNL     1      -4.808 -11.461  17.343  0.00  0.00    +0.038 A 
ATOM     23  C   UNL     1      -5.890 -10.677  16.977  0.00  0.00    +0.042 A 
ATOM     24  C   UNL     1      -4.581 -11.802  18.666  0.00  0.00    +0.023 A 
ATOM     25  C   UNL     1      -6.767 -10.220  17.961  0.00  0.00    +0.054 A 
ATOM     26  C   UNL     1      -5.458 -11.347  19.651  0.00  0.00    +0.003 A 
ATOM     27  C   UNL     1      -6.551 -10.555  19.298  0.00  0.00    +0.019 A 
BRANCH  25  28
ATOM     10  N   UNL     1      -8.798  -8.751  17.307  0.00  0.00    -0.191 NA
ATOM     28  C   UNL     1      -7.887  -9.409  17.600  0.00  0.00    +0.099 C 
ENDBRANCH  25  28
ENDBRANCH   9  22
ENDBRANCH   3  19
ENDBRANCH  14   3
TORSDOF 6
ENDMDL
MODEL 7
REMARK VINA RESULT:      -6.4      5.956      9.924
REMARK  Name = 11886097
REMARK  8 active torsions:
REMARK  status: ('A' for Active; 'I' for Inactive)
REMARK    1  A    between atoms: O_3  and  C_14
REMARK    2  A    between atoms: O_3  and  C_19
REMARK    3  A    between atoms: N_5  and  C_13
REMARK    4  A    between atoms: N_9  and  C_22
REMARK    5  A    between atoms: C_17  and  C_18
REMARK    6  A    between atoms: C_18  and  C_20
REMARK    7  A    between atoms: C_18  and  C_21
REMARK    8  A    between atoms: C_25  and  C_28
REMARK                            x       y       z     vdW  Elec       q    Type
REMARK                         _______ _______ _______ _____ _____    ______ ____
ROOT
ATOM      1  O   UNL     1      16.310   9.103  20.423  0.00  0.00    -0.368 OA
ATOM      2  O   UNL     1      14.794   6.449  19.960  0.00  0.00    -0.368 OA
ATOM     11  C   UNL     1      14.698   7.453  20.995  0.00  0.00    +0.177 C 
ATOM     12  C   UNL     1      16.107   7.950  21.254  0.00  0.00    +0.192 C 
ATOM     13  C   UNL     1      13.961   8.666  20.459  0.00  0.00    +0.168 C 
ATOM     14  C   UNL     1      16.957   6.784  20.809  0.00  0.00    +0.235 C 
ATOM     15  C   UNL     1      15.074   9.468  19.794  0.00  0.00    +0.190 C 
ATOM     16  C   UNL     1      16.176   6.252  19.630  0.00  0.00    +0.207 C 
ENDROOT
BRANCH  13   5
ATOM      5  N   UNL     1      13.213   9.373  21.501  0.00  0.00    -0.221 N 
ATOM      6  N   UNL     1      13.811  10.288  22.270  0.00  0.00    -0.043 NA
ATOM      7  N   UNL     1      11.665  10.077  22.835  0.00  0.00    -0.113 NA
ATOM      8  N   UNL     1      12.856  10.719  23.087  0.00  0.00    -0.023 NA
ATOM     17  C   UNL     1      11.910   9.248  21.847  0.00  0.00    +0.154 A 
BRANCH  17  18
ATOM     18  C   UNL     1      10.972   8.321  21.192  0.00  0.00    +0.052 C 
ATOM     20  C   UNL     1      11.212   6.837  21.570  0.00  0.00    +0.015 C 
ATOM     21  C   UNL     1      10.957   8.453  19.649  0.00  0.00    +0.015 C 
ENDBRANCH  17  18
ENDBRANCH  13   5
BRANCH  14   3
ATOM      3  O   UNL     1      18.272   7.148  20.453  0.00  0.00    -0.442 OA
BRANCH   3  19
ATOM      4  O   UNL     1      19.456   6.586  22.328  0.00  0.00    -0.226 OA
ATOM      9  N   UNL     1      20.063   5.800  20.208  0.00  0.00    -0.251 N 
ATOM     19  C   UNL     1      19.298   6.506  21.116  0.00  0.00    +0.405 C 
ATOM     29  H   UNL     1      19.771   5.856  19.235  0.00  0.00    +0.158 HD
BRANCH   9  22
ATOM     22  C   UNL     1      21.205   5.007  20.464  0.00  0.00    +0.038 A 
ATOM     23  C   UNL     1      22.464   5.530  20.218  0.00  0.00    +0.042 A 
ATOM     24  C   UNL     1      21.043   3.722  20.956  0.00  0.00    +0.023 A 
ATOM     25  C   UNL     1      23.591   4.748  20.471  0.00  0.00    +0.054 A 
ATOM     26  C   UNL     1      22.170   2.939  21.209  0.00  0.00    +0.003 A 
ATOM     27  C   UNL     1      23.444   3.452  20.967  0.00  0.00    +0.019 A 
BRANCH  25  28
ATOM     10  N   UNL     1      25.958   5.700  20.021  0.00  0.00    -0.191 NA
ATOM     28  C   UNL     1      24.897   5.273  20.223  0.00  0.00    +0.099 C 
ENDBRANCH  25  28
ENDBRANCH   9  22
ENDBRANCH   3  19
ENDBRANCH  14   3
TORSDOF 6
ENDMDL
MODEL 8
REMARK VINA RESULT:      -6.3     26.861     29.139
REMARK  Name = 11886097
REMARK  8 active torsions:
REMARK  status: ('A' for Active; 'I' for Inactive)
REMARK    1  A    between atoms: O_3  and  C_14
REMARK    2  A    between atoms: O_3  and  C_19
REMARK    3  A    between atoms: N_5  and  C_13
REMARK    4  A    between atoms: N_9  and  C_22
REMARK    5  A    between atoms: C_17  and  C_18
REMARK    6  A    between atoms: C_18  and  C_20
REMARK    7  A    between atoms: C_18  and  C_21
REMARK    8  A    between atoms: C_25  and  C_28
REMARK                            x       y       z     vdW  Elec       q    Type
REMARK                         _______ _______ _______ _____ _____    ______ ____
ROOT
ATOM      1  O   UNL     1      -6.491 -11.580  16.470  0.00  0.00    -0.368 OA
ATOM      2  O   UNL     1      -5.896 -11.181  19.476  0.00  0.00    -0.368 OA
ATOM     11  C   UNL     1      -6.549 -10.342  18.497  0.00  0.00    +0.177 C 
ATOM     12  C   UNL     1      -5.810 -10.541  17.188  0.00  0.00    +0.192 C 
ATOM     13  C   UNL     1      -7.946 -10.870  18.228  0.00  0.00    +0.168 C 
ATOM     14  C   UNL     1      -4.440 -10.984  17.645  0.00  0.00    +0.235 C 
ATOM     15  C   UNL     1      -7.705 -11.925  17.153  0.00  0.00    +0.190 C 
ATOM     16  C   UNL     1      -4.765 -11.815  18.864  0.00  0.00    +0.207 C 
ENDROOT
BRANCH  13   5
ATOM      5  N   UNL     1      -8.887  -9.808  17.866  0.00  0.00    -0.221 N 
ATOM      6  N   UNL     1      -8.507  -8.797  17.078  0.00  0.00    -0.043 NA
ATOM      7  N   UNL     1     -10.643  -8.564  17.670  0.00  0.00    -0.113 NA
ATOM      8  N   UNL     1      -9.589  -8.036  16.960  0.00  0.00    -0.023 NA
ATOM     17  C   UNL     1     -10.185  -9.662  18.223  0.00  0.00    +0.154 A 
BRANCH  17  18
ATOM     18  C   UNL     1     -10.908 -10.608  19.088  0.00  0.00    +0.052 C 
ATOM     20  C   UNL     1     -11.629 -11.731  18.300  0.00  0.00    +0.015 C 
ATOM     21  C   UNL     1     -11.925  -9.922  20.033  0.00  0.00    +0.015 C 
ENDBRANCH  17  18
ENDBRANCH  13   5
BRANCH  14   3
ATOM      3  O   UNL     1      -3.733 -11.721  16.673  0.00  0.00    -0.442 OA
BRANCH   3  19
ATOM      4  O   UNL     1      -2.141 -10.296  15.855  0.00  0.00    -0.226 OA
ATOM      9  N   UNL     1      -3.795 -11.214  14.476  0.00  0.00    -0.251 N 
ATOM     19  C   UNL     1      -3.125 -11.000  15.665  0.00  0.00    +0.405 C 
ATOM     29  H   UNL     1      -4.597 -11.838  14.519  0.00  0.00    +0.158 HD
BRANCH   9  22
ATOM     22  C   UNL     1      -3.505 -10.670  13.204  0.00  0.00    +0.038 A 
ATOM     23  C   UNL     1      -4.523 -10.091  12.464  0.00  0.00    +0.042 A 
ATOM     24  C   UNL     1      -2.207 -10.726  12.722  0.00  0.00    +0.023 A 
ATOM     25  C   UNL     1      -4.236  -9.554  11.209  0.00  0.00    +0.054 A 
ATOM     26  C   UNL     1      -1.919 -10.188  11.467  0.00  0.00    +0.003 A 
ATOM     27  C   UNL     1      -2.934  -9.603  10.711  0.00  0.00    +0.019 A 
BRANCH  25  28
ATOM     10  N   UNL     1      -6.120  -8.465   9.803  0.00  0.00    -0.191 NA
ATOM     28  C   UNL     1      -5.276  -8.953  10.433  0.00  0.00    +0.099 C 
ENDBRANCH  25  28
ENDBRANCH   9  22
ENDBRANCH   3  19
ENDBRANCH  14   3
TORSDOF 6
ENDMDL
MODEL 9
REMARK VINA RESULT:      -6.3     28.489     30.290
REMARK  Name = 11886097
REMARK  8 active torsions:
REMARK  status: ('A' for Active; 'I' for Inactive)
REMARK    1  A    between atoms: O_3  and  C_14
REMARK    2  A    between atoms: O_3  and  C_19
REMARK    3  A    between atoms: N_5  and  C_13
REMARK    4  A    between atoms: N_9  and  C_22
REMARK    5  A    between atoms: C_17  and  C_18
REMARK    6  A    between atoms: C_18  and  C_20
REMARK    7  A    between atoms: C_18  and  C_21
REMARK    8  A    between atoms: C_25  and  C_28
REMARK                            x       y       z     vdW  Elec       q    Type
REMARK                         _______ _______ _______ _____ _____    ______ ____
ROOT
ATOM      1  O   UNL     1     -12.891  -8.403  15.889  0.00  0.00    -0.368 OA
ATOM      2  O   UNL     1     -11.082  -5.897  15.922  0.00  0.00    -0.368 OA
ATOM     11  C   UNL     1     -11.684  -6.644  14.841  0.00  0.00    +0.177 C 
ATOM     12  C   UNL     1     -11.643  -8.105  15.244  0.00  0.00    +0.192 C 
ATOM     13  C   UNL     1     -13.163  -6.314  14.759  0.00  0.00    +0.168 C 
ATOM     14  C   UNL     1     -10.488  -8.149  16.216  0.00  0.00    +0.235 C 
ATOM     15  C   UNL     1     -13.779  -7.283  15.763  0.00  0.00    +0.190 C 
ATOM     16  C   UNL     1     -10.611  -6.816  16.916  0.00  0.00    +0.207 C 
ENDROOT
BRANCH  13   5
ATOM      5  N   UNL     1     -13.683  -6.409  13.393  0.00  0.00    -0.221 N 
ATOM      6  N   UNL     1     -14.009  -7.594  12.866  0.00  0.00    -0.043 NA
ATOM      7  N   UNL     1     -14.381  -5.959  11.398  0.00  0.00    -0.113 NA
ATOM      8  N   UNL     1     -14.437  -7.312  11.641  0.00  0.00    -0.023 NA
ATOM     17  C   UNL     1     -13.911  -5.419  12.498  0.00  0.00    +0.154 A 
BRANCH  17  18
ATOM     18  C   UNL     1     -13.656  -3.995  12.769  0.00  0.00    +0.052 C 
ATOM     20  C   UNL     1     -14.837  -3.074  12.367  0.00  0.00    +0.015 C 
ATOM     21  C   UNL     1     -12.357  -3.468  12.111  0.00  0.00    +0.015 C 
ENDBRANCH  17  18
ENDBRANCH  13   5
BRANCH  14   3
ATOM      3  O   UNL     1     -10.551  -9.231  17.118  0.00  0.00    -0.442 OA
BRANCH   3  19
ATOM      4  O   UNL     1      -9.476 -11.144  16.475  0.00  0.00    -0.226 OA
ATOM      9  N   UNL     1      -8.485  -9.609  17.939  0.00  0.00    -0.251 N 
ATOM     19  C   UNL     1      -9.482 -10.104  17.121  0.00  0.00    +0.405 C 
ATOM     29  H   UNL     1      -8.677  -8.720  18.394  0.00  0.00    +0.158 HD
BRANCH   9  22
ATOM     22  C   UNL     1      -7.227 -10.187  18.223  0.00  0.00    +0.038 A 
ATOM     23  C   UNL     1      -6.224 -10.133  17.268  0.00  0.00    +0.042 A 
ATOM     24  C   UNL     1      -7.019 -10.795  19.450  0.00  0.00    +0.023 A 
ATOM     25  C   UNL     1      -4.982 -10.703  17.547  0.00  0.00    +0.054 A 
ATOM     26  C   UNL     1      -5.778 -11.364  19.731  0.00  0.00    +0.003 A 
ATOM     27  C   UNL     1      -4.759 -11.319  18.779  0.00  0.00    +0.019 A 
BRANCH  25  28
ATOM     10  N   UNL     1      -3.088 -10.620  15.781  0.00  0.00    -0.191 NA
ATOM     28  C   UNL     1      -3.937 -10.657  16.573  0.00  0.00    +0.099 C 
ENDBRANCH  25  28
ENDBRANCH   9  22
ENDBRANCH   3  19
ENDBRANCH  14   3
TORSDOF 6
ENDMDL
MODEL 10
REMARK VINA RESULT:      -6.2     17.220     20.482
REMARK  Name = 11886097
REMARK  8 active torsions:
REMARK  status: ('A' for Active; 'I' for Inactive)
REMARK    1  A    between atoms: O_3  and  C_14
REMARK    2  A    between atoms: O_3  and  C_19
REMARK    3  A    between atoms: N_5  and  C_13
REMARK    4  A    between atoms: N_9  and  C_22
REMARK    5  A    between atoms: C_17  and  C_18
REMARK    6  A    between atoms: C_18  and  C_20
REMARK    7  A    between atoms: C_18  and  C_21
REMARK    8  A    between atoms: C_25  and  C_28
REMARK                            x       y       z     vdW  Elec       q    Type
REMARK                         _______ _______ _______ _____ _____    ______ ____
ROOT
ATOM      1  O   UNL     1      11.339   5.167  -0.781  0.00  0.00    -0.368 OA
ATOM      2  O   UNL     1      13.895   3.500  -1.269  0.00  0.00    -0.368 OA
ATOM     11  C   UNL     1      12.493   3.202  -1.455  0.00  0.00    +0.177 C 
ATOM     12  C   UNL     1      11.749   3.872  -0.317  0.00  0.00    +0.192 C 
ATOM     13  C   UNL     1      11.988   3.903  -2.702  0.00  0.00    +0.168 C 
ATOM     14  C   UNL     1      12.807   3.973   0.757  0.00  0.00    +0.235 C 
ATOM     15  C   UNL     1      11.618   5.288  -2.183  0.00  0.00    +0.190 C 
ATOM     16  C   UNL     1      14.055   4.240  -0.051  0.00  0.00    +0.207 C 
ENDROOT
BRANCH  13   5
ATOM      5  N   UNL     1      10.904   3.167  -3.358  0.00  0.00    -0.221 N 
ATOM      6  N   UNL     1      10.144   2.311  -2.669  0.00  0.00    -0.043 NA
ATOM      7  N   UNL     1       9.497   2.387  -4.800  0.00  0.00    -0.113 NA
ATOM      8  N   UNL     1       9.280   1.835  -3.558  0.00  0.00    -0.023 NA
ATOM     17  C   UNL     1      10.508   3.211  -4.652  0.00  0.00    +0.154 A 
BRANCH  17  18
ATOM     18  C   UNL     1      11.141   4.058  -5.676  0.00  0.00    +0.052 C 
ATOM     20  C   UNL     1      10.398   5.398  -5.907  0.00  0.00    +0.015 C 
ATOM     21  C   UNL     1      11.327   3.342  -7.036  0.00  0.00    +0.015 C 
ENDBRANCH  17  18
ENDBRANCH  13   5
BRANCH  14   3
ATOM      3  O   UNL     1      12.557   4.991   1.700  0.00  0.00    -0.442 OA
BRANCH   3  19
ATOM      4  O   UNL     1      11.231   3.586   2.925  0.00  0.00    -0.226 OA
ATOM      9  N   UNL     1      11.226   5.900   3.278  0.00  0.00    -0.251 N 
ATOM     19  C   UNL     1      11.618   4.721   2.676  0.00  0.00    +0.405 C 
ATOM     29  H   UNL     1      11.665   6.750   2.930  0.00  0.00    +0.158 HD
BRANCH   9  22
ATOM     22  C   UNL     1      10.288   6.074   4.320  0.00  0.00    +0.038 A 
ATOM     23  C   UNL     1      10.517   5.474   5.548  0.00  0.00    +0.042 A 
ATOM     24  C   UNL     1       9.157   6.842   4.095  0.00  0.00    +0.023 A 
ATOM     25  C   UNL     1       9.591   5.646   6.577  0.00  0.00    +0.054 A 
ATOM     26  C   UNL     1       8.230   7.016   5.123  0.00  0.00    +0.003 A 
ATOM     27  C   UNL     1       8.447   6.416   6.364  0.00  0.00    +0.019 A 
BRANCH  25  28
ATOM     10  N   UNL     1       9.992   4.534   8.882  0.00  0.00    -0.191 NA
ATOM     28  C   UNL     1       9.812   5.033   7.849  0.00  0.00    +0.099 C 
ENDBRANCH  25  28
ENDBRANCH   9  22
ENDBRANCH   3  19
ENDBRANCH  14   3
TORSDOF 6
ENDMDL
