MODEL 1
REMARK VINA RESULT:      -9.0      0.000      0.000
REMARK  Name = 45783339
REMARK  7 active torsions:
REMARK  status: ('A' for Active; 'I' for Inactive)
REMARK    1  A    between atoms: S_1  and  C_33
REMARK    2  A    between atoms: S_1  and  C_36
REMARK    3  A    between atoms: N_6  and  C_16
REMARK    4  A    between atoms: C_12  and  C_20
REMARK    5  A    between atoms: C_16  and  C_23
REMARK    6  A    between atoms: C_17  and  C_25
REMARK    7  A    between atoms: C_26  and  C_28
REMARK                            x       y       z     vdW  Elec       q    Type
REMARK                         _______ _______ _______ _____ _____    ______ ____
ROOT
ATOM      2  O   UNL     1     -16.816   2.490  22.689  0.00  0.00    -0.336 OA
ATOM      8  N   UNL     1     -16.940   3.548  24.659  0.00  0.00    -0.190 NA
ATOM      9  N   UNL     1     -17.048   1.497  23.650  0.00  0.00    -0.056 NA
ATOM     20  C   UNL     1     -16.765   3.666  23.368  0.00  0.00    +0.245 A 
ATOM     26  C   UNL     1     -17.110   2.199  24.786  0.00  0.00    +0.202 A 
ENDROOT
BRANCH  26  28
ATOM      7  N   UNL     1     -15.907   1.539  29.414  0.00  0.00    -0.315 N 
ATOM     10  N   UNL     1     -17.787   0.389  28.549  0.00  0.00    -0.240 NA
ATOM     17  C   UNL     1     -14.142   2.082  31.655  0.00  0.00    +0.078 C 
ATOM     18  C   UNL     1     -14.355   0.669  31.116  0.00  0.00    +0.031 C 
ATOM     19  C   UNL     1     -14.438   3.133  30.587  0.00  0.00    +0.031 C 
ATOM     21  C   UNL     1     -15.707   0.494  30.425  0.00  0.00    +0.107 C 
ATOM     22  C   UNL     1     -15.777   2.922  29.878  0.00  0.00    +0.107 C 
ATOM     24  C   UNL     1     -16.762   1.247  28.345  0.00  0.00    +0.122 A 
ATOM     27  C   UNL     1     -16.498   1.866  27.133  0.00  0.00    +0.055 A 
ATOM     28  C   UNL     1     -17.339   1.585  26.062  0.00  0.00    +0.027 A 
ATOM     34  C   UNL     1     -18.403   0.706  26.232  0.00  0.00    +0.031 A 
ATOM     35  C   UNL     1     -18.582   0.139  27.484  0.00  0.00    +0.113 A 
BRANCH  17  25
ATOM      3  O   UNL     1     -15.636   3.323  33.051  0.00  0.00    -0.276 OA
ATOM     11  N   UNL     1     -14.885   1.284  33.804  0.00  0.00    -0.329 N 
ATOM     25  C   UNL     1     -14.968   2.306  32.888  0.00  0.00    +0.214 C 
ATOM     37  H   UNL     1     -15.403   1.327  34.675  0.00  0.00    +0.145 HD
ATOM     38  H   UNL     1     -14.278   0.480  33.681  0.00  0.00    +0.145 HD
ENDBRANCH  17  25
ENDBRANCH  26  28
BRANCH  20  12
ATOM      6  N   UNL     1     -15.312   4.809  21.702  0.00  0.00    -0.287 NA
ATOM     12  C   UNL     1     -16.521   4.912  22.542  0.00  0.00    +0.146 C 
ATOM     13  C   UNL     1     -17.664   5.201  21.551  0.00  0.00    +0.030 C 
ATOM     14  C   UNL     1     -16.992   5.302  20.189  0.00  0.00    +0.017 C 
ATOM     15  C   UNL     1     -15.555   5.643  20.524  0.00  0.00    +0.085 C 
BRANCH   6  16
ATOM     16  C   UNL     1     -14.091   5.188  22.400  0.00  0.00    +0.120 C 
BRANCH  16  23
ATOM     23  C   UNL     1     -13.448   6.403  21.786  0.00  0.00    -0.033 A 
ATOM     29  C   UNL     1     -14.029   7.660  21.952  0.00  0.00    +0.007 A 
ATOM     30  C   UNL     1     -12.270   6.271  21.051  0.00  0.00    +0.007 A 
ATOM     31  C   UNL     1     -13.434   8.785  21.383  0.00  0.00    +0.027 A 
ATOM     32  C   UNL     1     -11.673   7.397  20.482  0.00  0.00    +0.027 A 
ATOM     33  C   UNL     1     -12.256   8.653  20.647  0.00  0.00    +0.088 A 
BRANCH  33   1
ATOM      1  S   UNL     1     -11.508  10.063  19.938  0.00  0.00    -0.006 S 
ATOM      4  O   UNL     1     -11.829  11.228  20.752  0.00  0.00    -0.170 OA
ATOM      5  O   UNL     1     -10.117   9.738  19.658  0.00  0.00    -0.170 OA
ATOM     36  C   UNL     1     -12.344  10.272  18.383  0.00  0.00    +0.200 C 
ENDBRANCH  33   1
ENDBRANCH  16  23
ENDBRANCH   6  16
ENDBRANCH  20  12
TORSDOF 6
ENDMDL
MODEL 2
REMARK VINA RESULT:      -8.2     31.796     37.438
REMARK  Name = 45783339
REMARK  7 active torsions:
REMARK  status: ('A' for Active; 'I' for Inactive)
REMARK    1  A    between atoms: S_1  and  C_33
REMARK    2  A    between atoms: S_1  and  C_36
REMARK    3  A    between atoms: N_6  and  C_16
REMARK    4  A    between atoms: C_12  and  C_20
REMARK    5  A    between atoms: C_16  and  C_23
REMARK    6  A    between atoms: C_17  and  C_25
REMARK    7  A    between atoms: C_26  and  C_28
REMARK                            x       y       z     vdW  Elec       q    Type
REMARK                         _______ _______ _______ _____ _____    ______ ____
ROOT
ATOM      2  O   UNL     1      12.927   6.613   6.666  0.00  0.00    -0.336 OA
ATOM      8  N   UNL     1      12.929   8.828   6.330  0.00  0.00    -0.190 NA
ATOM      9  N   UNL     1      14.273   6.999   6.624  0.00  0.00    -0.056 NA
ATOM     20  C   UNL     1      12.204   7.750   6.484  0.00  0.00    +0.245 A 
ATOM     26  C   UNL     1      14.193   8.318   6.423  0.00  0.00    +0.202 A 
ENDROOT
BRANCH  26  28
ATOM      7  N   UNL     1      18.920   8.866   5.618  0.00  0.00    -0.315 N 
ATOM     10  N   UNL     1      17.614  10.783   6.090  0.00  0.00    -0.240 NA
ATOM     17  C   UNL     1      21.522   7.715   5.037  0.00  0.00    +0.078 C 
ATOM     18  C   UNL     1      21.260   8.524   6.306  0.00  0.00    +0.031 C 
ATOM     19  C   UNL     1      20.231   7.111   4.487  0.00  0.00    +0.031 C 
ATOM     21  C   UNL     1      20.120   9.529   6.144  0.00  0.00    +0.107 C 
ATOM     22  C   UNL     1      19.089   8.122   4.368  0.00  0.00    +0.107 C 
ATOM     24  C   UNL     1      17.681   9.444   5.917  0.00  0.00    +0.122 A 
ATOM     27  C   UNL     1      16.592   8.593   6.015  0.00  0.00    +0.055 A 
ATOM     28  C   UNL     1      15.354   9.154   6.311  0.00  0.00    +0.027 A 
ATOM     34  C   UNL     1      15.245  10.527   6.497  0.00  0.00    +0.031 A 
ATOM     35  C   UNL     1      16.395  11.292   6.378  0.00  0.00    +0.113 A 
BRANCH  17  25
ATOM      3  O   UNL     1      22.804   9.595   4.300  0.00  0.00    -0.276 OA
ATOM     11  N   UNL     1      22.105   8.070   2.726  0.00  0.00    -0.329 N 
ATOM     25  C   UNL     1      22.214   8.559   4.007  0.00  0.00    +0.214 C 
ATOM     37  H   UNL     1      22.536   8.557   1.948  0.00  0.00    +0.145 HD
ATOM     38  H   UNL     1      21.561   7.245   2.494  0.00  0.00    +0.145 HD
ENDBRANCH  17  25
ENDBRANCH  26  28
BRANCH  20  12
ATOM      6  N   UNL     1      10.239   6.438   5.703  0.00  0.00    -0.287 NA
ATOM     12  C   UNL     1      10.697   7.600   6.490  0.00  0.00    +0.146 C 
ATOM     13  C   UNL     1      10.129   7.364   7.902  0.00  0.00    +0.030 C 
ATOM     14  C   UNL     1       9.318   6.081   7.794  0.00  0.00    +0.017 C 
ATOM     15  C   UNL     1       8.990   5.987   6.318  0.00  0.00    +0.085 C 
BRANCH   6  16
ATOM     16  C   UNL     1      10.076   6.733   4.284  0.00  0.00    +0.120 C 
BRANCH  16  23
ATOM     23  C   UNL     1      11.093   6.010   3.442  0.00  0.00    -0.033 A 
ATOM     29  C   UNL     1      10.886   4.677   3.087  0.00  0.00    +0.007 A 
ATOM     30  C   UNL     1      12.243   6.675   3.014  0.00  0.00    +0.007 A 
ATOM     31  C   UNL     1      11.828   4.008   2.308  0.00  0.00    +0.027 A 
ATOM     32  C   UNL     1      13.185   6.005   2.233  0.00  0.00    +0.027 A 
ATOM     33  C   UNL     1      12.978   4.672   1.881  0.00  0.00    +0.088 A 
BRANCH  33   1
ATOM      1  S   UNL     1      14.156   3.835   0.900  0.00  0.00    -0.006 S 
ATOM      4  O   UNL     1      15.035   3.066   1.772  0.00  0.00    -0.170 OA
ATOM      5  O   UNL     1      13.445   3.167  -0.180  0.00  0.00    -0.170 OA
ATOM     36  C   UNL     1      15.140   5.132   0.187  0.00  0.00    +0.200 C 
ENDBRANCH  33   1
ENDBRANCH  16  23
ENDBRANCH   6  16
ENDBRANCH  20  12
TORSDOF 6
ENDMDL
MODEL 3
REMARK VINA RESULT:      -8.1     31.472     36.530
REMARK  Name = 45783339
REMARK  7 active torsions:
REMARK  status: ('A' for Active; 'I' for Inactive)
REMARK    1  A    between atoms: S_1  and  C_33
REMARK    2  A    between atoms: S_1  and  C_36
REMARK    3  A    between atoms: N_6  and  C_16
REMARK    4  A    between atoms: C_12  and  C_20
REMARK    5  A    between atoms: C_16  and  C_23
REMARK    6  A    between atoms: C_17  and  C_25
REMARK    7  A    between atoms: C_26  and  C_28
REMARK                            x       y       z     vdW  Elec       q    Type
REMARK                         _______ _______ _______ _____ _____    ______ ____
ROOT
ATOM      2  O   UNL     1      11.223   6.938   3.878  0.00  0.00    -0.336 OA
ATOM      8  N   UNL     1      10.978   4.737   3.545  0.00  0.00    -0.190 NA
ATOM      9  N   UNL     1      11.799   6.667   2.630  0.00  0.00    -0.056 NA
ATOM     20  C   UNL     1      10.765   5.748   4.348  0.00  0.00    +0.245 A 
ATOM     26  C   UNL     1      11.616   5.350   2.505  0.00  0.00    +0.202 A 
ENDROOT
BRANCH  26  28
ATOM      7  N   UNL     1      10.822   3.587  -1.919  0.00  0.00    -0.315 N 
ATOM     10  N   UNL     1      12.917   3.186  -0.890  0.00  0.00    -0.240 NA
ATOM     17  C   UNL     1       9.062   3.210  -4.197  0.00  0.00    +0.078 C 
ATOM     18  C   UNL     1       9.645   2.031  -3.420  0.00  0.00    +0.031 C 
ATOM     19  C   UNL     1       9.008   4.469  -3.335  0.00  0.00    +0.031 C 
ATOM     21  C   UNL     1      10.964   2.370  -2.728  0.00  0.00    +0.107 C 
ATOM     22  C   UNL     1      10.325   4.774  -2.618  0.00  0.00    +0.107 C 
ATOM     24  C   UNL     1      11.685   3.739  -0.827  0.00  0.00    +0.122 A 
ATOM     27  C   UNL     1      11.211   4.456   0.260  0.00  0.00    +0.055 A 
ATOM     28  C   UNL     1      12.057   4.615   1.353  0.00  0.00    +0.027 A 
ATOM     34  C   UNL     1      13.331   4.060   1.326  0.00  0.00    +0.031 A 
ATOM     35  C   UNL     1      13.710   3.361   0.191  0.00  0.00    +0.113 A 
BRANCH  17  25
ATOM      3  O   UNL     1      10.398   4.511  -5.695  0.00  0.00    -0.276 OA
ATOM     11  N   UNL     1       9.835   2.370  -6.319  0.00  0.00    -0.329 N 
ATOM     25  C   UNL     1       9.836   3.444  -5.461  0.00  0.00    +0.214 C 
ATOM     37  H   UNL     1      10.328   2.413  -7.204  0.00  0.00    +0.145 HD
ATOM     38  H   UNL     1       9.313   1.518  -6.137  0.00  0.00    +0.145 HD
ENDBRANCH  17  25
ENDBRANCH  26  28
BRANCH  20  12
ATOM      6  N   UNL     1      10.562   6.879   6.555  0.00  0.00    -0.287 NA
ATOM     12  C   UNL     1      10.088   5.772   5.702  0.00  0.00    +0.146 C 
ATOM     13  C   UNL     1       8.565   5.980   5.601  0.00  0.00    +0.030 C 
ATOM     14  C   UNL     1       8.271   7.190   6.477  0.00  0.00    +0.017 C 
ATOM     15  C   UNL     1       9.446   7.233   7.433  0.00  0.00    +0.085 C 
BRANCH   6  16
ATOM     16  C   UNL     1      11.767   6.551   7.307  0.00  0.00    +0.120 C 
BRANCH  16  23
ATOM     23  C   UNL     1      12.915   7.458   6.950  0.00  0.00    -0.033 A 
ATOM     29  C   UNL     1      14.161   6.917   6.635  0.00  0.00    +0.007 A 
ATOM     30  C   UNL     1      12.731   8.841   6.935  0.00  0.00    +0.007 A 
ATOM     31  C   UNL     1      15.223   7.757   6.306  0.00  0.00    +0.027 A 
ATOM     32  C   UNL     1      13.794   9.682   6.604  0.00  0.00    +0.027 A 
ATOM     33  C   UNL     1      15.040   9.139   6.291  0.00  0.00    +0.088 A 
BRANCH  33   1
ATOM      1  S   UNL     1      16.370  10.191   5.874  0.00  0.00    -0.006 S 
ATOM      4  O   UNL     1      16.233  10.596   4.480  0.00  0.00    -0.170 OA
ATOM      5  O   UNL     1      16.481  11.205   6.912  0.00  0.00    -0.170 OA
ATOM     36  C   UNL     1      17.807   9.149   5.972  0.00  0.00    +0.200 C 
ENDBRANCH  33   1
ENDBRANCH  16  23
ENDBRANCH   6  16
ENDBRANCH  20  12
TORSDOF 6
ENDMDL
MODEL 4
REMARK VINA RESULT:      -7.9     18.939     21.967
REMARK  Name = 45783339
REMARK  7 active torsions:
REMARK  status: ('A' for Active; 'I' for Inactive)
REMARK    1  A    between atoms: S_1  and  C_33
REMARK    2  A    between atoms: S_1  and  C_36
REMARK    3  A    between atoms: N_6  and  C_16
REMARK    4  A    between atoms: C_12  and  C_20
REMARK    5  A    between atoms: C_16  and  C_23
REMARK    6  A    between atoms: C_17  and  C_25
REMARK    7  A    between atoms: C_26  and  C_28
REMARK                            x       y       z     vdW  Elec       q    Type
REMARK                         _______ _______ _______ _____ _____    ______ ____
ROOT
ATOM      2  O   UNL     1      -3.472 -11.098  17.049  0.00  0.00    -0.336 OA
ATOM      8  N   UNL     1      -5.055 -10.749  15.503  0.00  0.00    -0.190 NA
ATOM      9  N   UNL     1      -2.798 -10.937  15.831  0.00  0.00    -0.056 NA
ATOM     20  C   UNL     1      -4.795 -10.974  16.766  0.00  0.00    +0.245 A 
ATOM     26  C   UNL     1      -3.799 -10.735  14.969  0.00  0.00    +0.202 A 
ENDROOT
BRANCH  26  28
ATOM      7  N   UNL     1      -5.490  -9.922  10.521  0.00  0.00    -0.315 N 
ATOM     10  N   UNL     1      -3.149 -10.089  10.838  0.00  0.00    -0.240 NA
ATOM     17  C   UNL     1      -7.730  -9.552   8.711  0.00  0.00    +0.078 C 
ATOM     18  C   UNL     1      -6.721 -10.684   8.529  0.00  0.00    +0.031 C 
ATOM     19  C   UNL     1      -7.778  -9.079  10.163  0.00  0.00    +0.031 C 
ATOM     21  C   UNL     1      -5.352 -10.361   9.127  0.00  0.00    +0.107 C 
ATOM     22  C   UNL     1      -6.397  -8.797  10.758  0.00  0.00    +0.107 C 
ATOM     24  C   UNL     1      -4.392 -10.115  11.368  0.00  0.00    +0.122 A 
ATOM     27  C   UNL     1      -4.659 -10.323  12.712  0.00  0.00    +0.055 A 
ATOM     28  C   UNL     1      -3.579 -10.516  13.567  0.00  0.00    +0.027 A 
ATOM     34  C   UNL     1      -2.285 -10.497  13.059  0.00  0.00    +0.031 A 
ATOM     35  C   UNL     1      -2.125 -10.282  11.699  0.00  0.00    +0.113 A 
BRANCH  17  25
ATOM      3  O   UNL     1      -7.730  -7.257   8.035  0.00  0.00    -0.276 OA
ATOM     11  N   UNL     1      -6.799  -8.809   6.616  0.00  0.00    -0.329 N 
ATOM     25  C   UNL     1      -7.425  -8.418   7.776  0.00  0.00    +0.214 C 
ATOM     37  H   UNL     1      -6.543  -8.127   5.911  0.00  0.00    +0.145 HD
ATOM     38  H   UNL     1      -6.611  -9.781   6.390  0.00  0.00    +0.145 HD
ENDBRANCH  17  25
ENDBRANCH  26  28
BRANCH  20  12
ATOM      6  N   UNL     1      -7.143 -10.784  17.569  0.00  0.00    -0.287 NA
ATOM     12  C   UNL     1      -5.750 -11.109  17.933  0.00  0.00    +0.146 C 
ATOM     13  C   UNL     1      -5.815 -12.547  18.485  0.00  0.00    +0.030 C 
ATOM     14  C   UNL     1      -7.290 -12.920  18.446  0.00  0.00    +0.017 C 
ATOM     15  C   UNL     1      -7.998 -11.581  18.449  0.00  0.00    +0.085 C 
BRANCH   6  16
ATOM     16  C   UNL     1      -7.443  -9.361  17.654  0.00  0.00    +0.120 C 
BRANCH  16  23
ATOM     23  C   UNL     1      -8.593  -8.976  16.762  0.00  0.00    -0.033 A 
ATOM     29  C   UNL     1      -9.537  -8.048  17.202  0.00  0.00    +0.007 A 
ATOM     30  C   UNL     1      -8.713  -9.546  15.495  0.00  0.00    +0.007 A 
ATOM     31  C   UNL     1     -10.602  -7.692  16.376  0.00  0.00    +0.027 A 
ATOM     32  C   UNL     1      -9.778  -9.189  14.668  0.00  0.00    +0.027 A 
ATOM     33  C   UNL     1     -10.723  -8.263  15.109  0.00  0.00    +0.088 A 
BRANCH  33   1
ATOM      1  S   UNL     1     -12.055  -7.813  14.073  0.00  0.00    -0.006 S 
ATOM      4  O   UNL     1     -12.410  -6.424  14.336  0.00  0.00    -0.170 OA
ATOM      5  O   UNL     1     -11.728  -8.231  12.717  0.00  0.00    -0.170 OA
ATOM     36  C   UNL     1     -13.413  -8.810  14.640  0.00  0.00    +0.200 C 
ENDBRANCH  33   1
ENDBRANCH  16  23
ENDBRANCH   6  16
ENDBRANCH  20  12
TORSDOF 6
ENDMDL
MODEL 5
REMARK VINA RESULT:      -7.7      3.701     11.194
REMARK  Name = 45783339
REMARK  7 active torsions:
REMARK  status: ('A' for Active; 'I' for Inactive)
REMARK    1  A    between atoms: S_1  and  C_33
REMARK    2  A    between atoms: S_1  and  C_36
REMARK    3  A    between atoms: N_6  and  C_16
REMARK    4  A    between atoms: C_12  and  C_20
REMARK    5  A    between atoms: C_16  and  C_23
REMARK    6  A    between atoms: C_17  and  C_25
REMARK    7  A    between atoms: C_26  and  C_28
REMARK                            x       y       z     vdW  Elec       q    Type
REMARK                         _______ _______ _______ _____ _____    ______ ____
ROOT
ATOM      2  O   UNL     1     -15.590   3.360  22.698  0.00  0.00    -0.336 OA
ATOM      8  N   UNL     1     -15.915   5.201  23.931  0.00  0.00    -0.190 NA
ATOM      9  N   UNL     1     -14.953   4.404  22.013  0.00  0.00    -0.056 NA
ATOM     20  C   UNL     1     -16.131   3.916  23.814  0.00  0.00    +0.245 A 
ATOM     26  C   UNL     1     -15.189   5.456  22.803  0.00  0.00    +0.202 A 
ENDROOT
BRANCH  26  28
ATOM      7  N   UNL     1     -12.359   8.417  20.248  0.00  0.00    -0.315 N 
ATOM     10  N   UNL     1     -13.789   9.343  21.892  0.00  0.00    -0.240 NA
ATOM     17  C   UNL     1     -10.326   8.818  18.214  0.00  0.00    +0.078 C 
ATOM     18  C   UNL     1     -10.120   9.257  19.662  0.00  0.00    +0.031 C 
ATOM     19  C   UNL     1     -11.355   7.694  18.116  0.00  0.00    +0.031 C 
ATOM     21  C   UNL     1     -11.433   9.548  20.388  0.00  0.00    +0.107 C 
ATOM     22  C   UNL     1     -12.649   7.984  18.879  0.00  0.00    +0.107 C 
ATOM     24  C   UNL     1     -13.327   8.250  21.245  0.00  0.00    +0.122 A 
ATOM     27  C   UNL     1     -13.752   6.957  21.506  0.00  0.00    +0.055 A 
ATOM     28  C   UNL     1     -14.713   6.775  22.494  0.00  0.00    +0.027 A 
ATOM     34  C   UNL     1     -15.212   7.875  23.183  0.00  0.00    +0.031 A 
ATOM     35  C   UNL     1     -14.721   9.127  22.847  0.00  0.00    +0.113 A 
BRANCH  17  25
ATOM      3  O   UNL     1     -11.629   9.930  16.544  0.00  0.00    -0.276 OA
ATOM     11  N   UNL     1      -9.934  11.105  17.563  0.00  0.00    -0.329 N 
ATOM     25  C   UNL     1     -10.712   9.989  17.358  0.00  0.00    +0.214 C 
ATOM     37  H   UNL     1     -10.105  11.957  17.040  0.00  0.00    +0.145 HD
ATOM     38  H   UNL     1      -9.140  11.117  18.195  0.00  0.00    +0.145 HD
ENDBRANCH  17  25
ENDBRANCH  26  28
BRANCH  20  12
ATOM      6  N   UNL     1     -17.929   3.673  25.516  0.00  0.00    -0.287 NA
ATOM     12  C   UNL     1     -16.884   2.981  24.737  0.00  0.00    +0.146 C 
ATOM     13  C   UNL     1     -17.634   1.871  23.975  0.00  0.00    +0.030 C 
ATOM     14  C   UNL     1     -19.080   1.980  24.438  0.00  0.00    +0.017 C 
ATOM     15  C   UNL     1     -18.975   2.683  25.776  0.00  0.00    +0.085 C 
BRANCH   6  16
ATOM     16  C   UNL     1     -17.426   4.274  26.745  0.00  0.00    +0.120 C 
BRANCH  16  23
ATOM     23  C   UNL     1     -16.863   3.242  27.685  0.00  0.00    -0.033 A 
ATOM     29  C   UNL     1     -15.603   3.428  28.254  0.00  0.00    +0.007 A 
ATOM     30  C   UNL     1     -17.602   2.098  27.989  0.00  0.00    +0.007 A 
ATOM     31  C   UNL     1     -15.082   2.472  29.124  0.00  0.00    +0.027 A 
ATOM     32  C   UNL     1     -17.081   1.142  28.860  0.00  0.00    +0.027 A 
ATOM     33  C   UNL     1     -15.820   1.328  29.427  0.00  0.00    +0.088 A 
BRANCH  33   1
ATOM      1  S   UNL     1     -15.169   0.133  30.520  0.00  0.00    -0.006 S 
ATOM      4  O   UNL     1     -14.832   0.780  31.782  0.00  0.00    -0.170 OA
ATOM      5  O   UNL     1     -16.064  -1.014  30.513  0.00  0.00    -0.170 OA
ATOM     36  C   UNL     1     -13.636  -0.365  29.769  0.00  0.00    +0.200 C 
ENDBRANCH  33   1
ENDBRANCH  16  23
ENDBRANCH   6  16
ENDBRANCH  20  12
TORSDOF 6
ENDMDL
MODEL 6
REMARK VINA RESULT:      -7.7     17.949     20.780
REMARK  Name = 45783339
REMARK  7 active torsions:
REMARK  status: ('A' for Active; 'I' for Inactive)
REMARK    1  A    between atoms: S_1  and  C_33
REMARK    2  A    between atoms: S_1  and  C_36
REMARK    3  A    between atoms: N_6  and  C_16
REMARK    4  A    between atoms: C_12  and  C_20
REMARK    5  A    between atoms: C_16  and  C_23
REMARK    6  A    between atoms: C_17  and  C_25
REMARK    7  A    between atoms: C_26  and  C_28
REMARK                            x       y       z     vdW  Elec       q    Type
REMARK                         _______ _______ _______ _____ _____    ______ ____
ROOT
ATOM      2  O   UNL     1      -6.713 -10.667  19.728  0.00  0.00    -0.336 OA
ATOM      8  N   UNL     1      -6.880 -11.732  17.765  0.00  0.00    -0.190 NA
ATOM      9  N   UNL     1      -5.582 -10.297  18.988  0.00  0.00    -0.056 NA
ATOM     20  C   UNL     1      -7.422 -11.513  18.936  0.00  0.00    +0.245 A 
ATOM     26  C   UNL     1      -5.753 -10.965  17.843  0.00  0.00    +0.202 A 
ENDROOT
BRANCH  26  28
ATOM      7  N   UNL     1      -4.800 -10.517  13.132  0.00  0.00    -0.315 N 
ATOM     10  N   UNL     1      -2.992 -10.737  14.645  0.00  0.00    -0.240 NA
ATOM     17  C   UNL     1      -5.727 -10.241  10.394  0.00  0.00    +0.078 C 
ATOM     18  C   UNL     1      -4.867 -11.420  10.842  0.00  0.00    +0.031 C 
ATOM     19  C   UNL     1      -6.489  -9.631  11.570  0.00  0.00    +0.031 C 
ATOM     21  C   UNL     1      -3.990 -11.091  12.050  0.00  0.00    +0.107 C 
ATOM     22  C   UNL     1      -5.604  -9.343  12.785  0.00  0.00    +0.107 C 
ATOM     24  C   UNL     1      -4.327 -10.668  14.440  0.00  0.00    +0.122 A 
ATOM     27  C   UNL     1      -5.272 -10.738  15.452  0.00  0.00    +0.055 A 
ATOM     28  C   UNL     1      -4.816 -10.888  16.758  0.00  0.00    +0.027 A 
ATOM     34  C   UNL     1      -3.451 -10.963  17.008  0.00  0.00    +0.031 A 
ATOM     35  C   UNL     1      -2.588 -10.884  15.927  0.00  0.00    +0.113 A 
BRANCH  17  25
ATOM      3  O   UNL     1      -3.708  -9.407   9.420  0.00  0.00    -0.276 OA
ATOM     11  N   UNL     1      -5.563  -8.047   9.410  0.00  0.00    -0.329 N 
ATOM     25  C   UNL     1      -4.889  -9.212   9.692  0.00  0.00    +0.214 C 
ATOM     37  H   UNL     1      -5.097  -7.282   8.935  0.00  0.00    +0.145 HD
ATOM     38  H   UNL     1      -6.522  -7.880   9.698  0.00  0.00    +0.145 HD
ENDBRANCH  17  25
ENDBRANCH  26  28
BRANCH  20  12
ATOM      6  N   UNL     1      -9.905 -11.584  18.794  0.00  0.00    -0.287 NA
ATOM     12  C   UNL     1      -8.709 -12.062  19.515  0.00  0.00    +0.146 C 
ATOM     13  C   UNL     1      -8.790 -13.598  19.433  0.00  0.00    +0.030 C 
ATOM     14  C   UNL     1     -10.093 -13.888  18.702  0.00  0.00    +0.017 C 
ATOM     15  C   UNL     1     -10.915 -12.635  18.926  0.00  0.00    +0.085 C 
BRANCH   6  16
ATOM     16  C   UNL     1     -10.389 -10.296  19.273  0.00  0.00    +0.120 C 
BRANCH  16  23
ATOM     23  C   UNL     1     -10.836  -9.409  18.142  0.00  0.00    -0.033 A 
ATOM     29  C   UNL     1      -9.906  -8.619  17.465  0.00  0.00    +0.007 A 
ATOM     30  C   UNL     1     -12.180  -9.377  17.770  0.00  0.00    +0.007 A 
ATOM     31  C   UNL     1     -10.320  -7.797  16.418  0.00  0.00    +0.027 A 
ATOM     32  C   UNL     1     -12.594  -8.555  16.722  0.00  0.00    +0.027 A 
ATOM     33  C   UNL     1     -11.664  -7.765  16.046  0.00  0.00    +0.088 A 
BRANCH  33   1
ATOM      1  S   UNL     1     -12.181  -6.739  14.731  0.00  0.00    -0.006 S 
ATOM      4  O   UNL     1     -11.581  -5.421  14.896  0.00  0.00    -0.170 OA
ATOM      5  O   UNL     1     -11.986  -7.471  13.489  0.00  0.00    -0.170 OA
ATOM     36  C   UNL     1     -13.930  -6.545  14.983  0.00  0.00    +0.200 C 
ENDBRANCH  33   1
ENDBRANCH  16  23
ENDBRANCH   6  16
ENDBRANCH  20  12
TORSDOF 6
ENDMDL
MODEL 7
REMARK VINA RESULT:      -7.7      1.677      2.159
REMARK  Name = 45783339
REMARK  7 active torsions:
REMARK  status: ('A' for Active; 'I' for Inactive)
REMARK    1  A    between atoms: S_1  and  C_33
REMARK    2  A    between atoms: S_1  and  C_36
REMARK    3  A    between atoms: N_6  and  C_16
REMARK    4  A    between atoms: C_12  and  C_20
REMARK    5  A    between atoms: C_16  and  C_23
REMARK    6  A    between atoms: C_17  and  C_25
REMARK    7  A    between atoms: C_26  and  C_28
REMARK                            x       y       z     vdW  Elec       q    Type
REMARK                         _______ _______ _______ _____ _____    ______ ____
ROOT
ATOM      2  O   UNL     1     -15.966   3.333  23.256  0.00  0.00    -0.336 OA
ATOM      8  N   UNL     1     -16.575   4.508  25.063  0.00  0.00    -0.190 NA
ATOM      9  N   UNL     1     -15.923   2.439  24.334  0.00  0.00    -0.056 NA
ATOM     20  C   UNL     1     -16.358   4.527  23.773  0.00  0.00    +0.245 A 
ATOM     26  C   UNL     1     -16.295   3.205  25.364  0.00  0.00    +0.202 A 
ENDROOT
BRANCH  26  28
ATOM      7  N   UNL     1     -15.840   3.810  30.131  0.00  0.00    -0.315 N 
ATOM     10  N   UNL     1     -16.598   1.721  29.314  0.00  0.00    -0.240 NA
ATOM     17  C   UNL     1     -15.114   5.475  32.396  0.00  0.00    +0.078 C 
ATOM     18  C   UNL     1     -14.425   4.141  32.118  0.00  0.00    +0.031 C 
ATOM     19  C   UNL     1     -15.718   6.064  31.122  0.00  0.00    +0.031 C 
ATOM     21  C   UNL     1     -15.308   3.168  31.339  0.00  0.00    +0.107 C 
ATOM     22  C   UNL     1     -16.568   5.066  30.334  0.00  0.00    +0.107 C 
ATOM     24  C   UNL     1     -16.180   2.981  29.056  0.00  0.00    +0.122 A 
ATOM     27  C   UNL     1     -16.063   3.514  27.782  0.00  0.00    +0.055 A 
ATOM     28  C   UNL     1     -16.397   2.702  26.704  0.00  0.00    +0.027 A 
ATOM     34  C   UNL     1     -16.830   1.400  26.929  0.00  0.00    +0.031 A 
ATOM     35  C   UNL     1     -16.912   0.961  28.241  0.00  0.00    +0.113 A 
BRANCH  17  25
ATOM      3  O   UNL     1     -16.869   6.251  33.825  0.00  0.00    -0.276 OA
ATOM     11  N   UNL     1     -16.193   4.062  34.022  0.00  0.00    -0.329 N 
ATOM     25  C   UNL     1     -16.149   5.321  33.472  0.00  0.00    +0.214 C 
ATOM     37  H   UNL     1     -16.856   3.840  34.757  0.00  0.00    +0.145 HD
ATOM     38  H   UNL     1     -15.549   3.322  33.762  0.00  0.00    +0.145 HD
ENDBRANCH  17  25
ENDBRANCH  26  28
BRANCH  20  12
ATOM      6  N   UNL     1     -15.304   5.810  21.920  0.00  0.00    -0.287 NA
ATOM     12  C   UNL     1     -16.484   5.677  22.796  0.00  0.00    +0.146 C 
ATOM     13  C   UNL     1     -17.672   5.508  21.830  0.00  0.00    +0.030 C 
ATOM     14  C   UNL     1     -17.069   5.620  20.437  0.00  0.00    +0.017 C 
ATOM     15  C   UNL     1     -15.784   6.388  20.664  0.00  0.00    +0.085 C 
BRANCH   6  16
ATOM     16  C   UNL     1     -14.233   6.600  22.514  0.00  0.00    +0.120 C 
BRANCH  16  23
ATOM     23  C   UNL     1     -13.392   7.282  21.467  0.00  0.00    -0.033 A 
ATOM     29  C   UNL     1     -12.371   6.580  20.826  0.00  0.00    +0.007 A 
ATOM     30  C   UNL     1     -13.635   8.615  21.137  0.00  0.00    +0.007 A 
ATOM     31  C   UNL     1     -11.592   7.211  19.857  0.00  0.00    +0.027 A 
ATOM     32  C   UNL     1     -12.857   9.246  20.166  0.00  0.00    +0.027 A 
ATOM     33  C   UNL     1     -11.834   8.544  19.527  0.00  0.00    +0.088 A 
BRANCH  33   1
ATOM      1  S   UNL     1     -10.862   9.333  18.311  0.00  0.00    -0.006 S 
ATOM      4  O   UNL     1     -10.069  10.379  18.944  0.00  0.00    -0.170 OA
ATOM      5  O   UNL     1     -10.200   8.299  17.528  0.00  0.00    -0.170 OA
ATOM     36  C   UNL     1     -12.043  10.144  17.258  0.00  0.00    +0.200 C 
ENDBRANCH  33   1
ENDBRANCH  16  23
ENDBRANCH   6  16
ENDBRANCH  20  12
TORSDOF 6
ENDMDL
MODEL 8
REMARK VINA RESULT:      -7.7     19.513     21.530
REMARK  Name = 45783339
REMARK  7 active torsions:
REMARK  status: ('A' for Active; 'I' for Inactive)
REMARK    1  A    between atoms: S_1  and  C_33
REMARK    2  A    between atoms: S_1  and  C_36
REMARK    3  A    between atoms: N_6  and  C_16
REMARK    4  A    between atoms: C_12  and  C_20
REMARK    5  A    between atoms: C_16  and  C_23
REMARK    6  A    between atoms: C_17  and  C_25
REMARK    7  A    between atoms: C_26  and  C_28
REMARK                            x       y       z     vdW  Elec       q    Type
REMARK                         _______ _______ _______ _____ _____    ______ ____
ROOT
ATOM      2  O   UNL     1      -5.650  -9.697   8.174  0.00  0.00    -0.336 OA
ATOM      8  N   UNL     1      -6.152  -9.373  10.333  0.00  0.00    -0.190 NA
ATOM      9  N   UNL     1      -4.514 -10.082   8.900  0.00  0.00    -0.056 NA
ATOM     20  C   UNL     1      -6.565  -9.292   9.094  0.00  0.00    +0.245 A 
ATOM     26  C   UNL     1      -4.888  -9.862  10.164  0.00  0.00    +0.202 A 
ENDROOT
BRANCH  26  28
ATOM      7  N   UNL     1      -4.246 -10.929  14.828  0.00  0.00    -0.315 N 
ATOM     10  N   UNL     1      -2.341 -10.626  13.455  0.00  0.00    -0.240 NA
ATOM     17  C   UNL     1      -5.350 -11.484  17.455  0.00  0.00    +0.078 C 
ATOM     18  C   UNL     1      -4.409 -10.308  17.205  0.00  0.00    +0.031 C 
ATOM     19  C   UNL     1      -6.066 -11.904  16.173  0.00  0.00    +0.031 C 
ATOM     21  C   UNL     1      -3.477 -10.535  16.015  0.00  0.00    +0.107 C 
ATOM     22  C   UNL     1      -5.124 -12.091  14.982  0.00  0.00    +0.107 C 
ATOM     24  C   UNL     1      -3.687 -10.646  13.576  0.00  0.00    +0.122 A 
ATOM     27  C   UNL     1      -4.565 -10.403  12.531  0.00  0.00    +0.055 A 
ATOM     28  C   UNL     1      -4.024 -10.121  11.281  0.00  0.00    +0.027 A 
ATOM     34  C   UNL     1      -2.644 -10.090  11.116  0.00  0.00    +0.031 A 
ATOM     35  C   UNL     1      -1.853 -10.346  12.225  0.00  0.00    +0.113 A 
BRANCH  17  25
ATOM      3  O   UNL     1      -4.830 -13.800  17.755  0.00  0.00    -0.276 OA
ATOM     11  N   UNL     1      -3.680 -12.255  19.012  0.00  0.00    -0.329 N 
ATOM     25  C   UNL     1      -4.605 -12.634  18.068  0.00  0.00    +0.214 C 
ATOM     37  H   UNL     1      -3.115 -12.948  19.491  0.00  0.00    +0.145 HD
ATOM     38  H   UNL     1      -3.551 -11.291  19.304  0.00  0.00    +0.145 HD
ENDBRANCH  17  25
ENDBRANCH  26  28
BRANCH  20  12
ATOM      6  N   UNL     1      -8.848  -8.458   9.627  0.00  0.00    -0.287 NA
ATOM     12  C   UNL     1      -7.899  -8.821   8.556  0.00  0.00    +0.146 C 
ATOM     13  C   UNL     1      -7.778  -7.550   7.693  0.00  0.00    +0.030 C 
ATOM     14  C   UNL     1      -8.737  -6.551   8.322  0.00  0.00    +0.017 C 
ATOM     15  C   UNL     1      -9.722  -7.423   9.073  0.00  0.00    +0.085 C 
BRANCH   6  16
ATOM     16  C   UNL     1      -9.601  -9.596  10.139  0.00  0.00    +0.120 C 
BRANCH  16  23
ATOM     23  C   UNL     1      -9.701  -9.571  11.641  0.00  0.00    -0.033 A 
ATOM     29  C   UNL     1     -10.889  -9.175  12.254  0.00  0.00    +0.007 A 
ATOM     30  C   UNL     1      -8.606  -9.946  12.419  0.00  0.00    +0.007 A 
ATOM     31  C   UNL     1     -10.982  -9.151  13.645  0.00  0.00    +0.027 A 
ATOM     32  C   UNL     1      -8.699  -9.923  13.811  0.00  0.00    +0.027 A 
ATOM     33  C   UNL     1      -9.887  -9.525  14.424  0.00  0.00    +0.088 A 
BRANCH  33   1
ATOM      1  S   UNL     1     -10.005  -9.500  16.166  0.00  0.00    -0.006 S 
ATOM      4  O   UNL     1     -10.913  -8.431  16.562  0.00  0.00    -0.170 OA
ATOM      5  O   UNL     1     -10.252 -10.861  16.617  0.00  0.00    -0.170 OA
ATOM     36  C   UNL     1      -8.381  -9.028  16.713  0.00  0.00    +0.200 C 
ENDBRANCH  33   1
ENDBRANCH  16  23
ENDBRANCH   6  16
ENDBRANCH  20  12
TORSDOF 6
ENDMDL
MODEL 9
REMARK VINA RESULT:      -7.7     31.834     36.663
REMARK  Name = 45783339
REMARK  7 active torsions:
REMARK  status: ('A' for Active; 'I' for Inactive)
REMARK    1  A    between atoms: S_1  and  C_33
REMARK    2  A    between atoms: S_1  and  C_36
REMARK    3  A    between atoms: N_6  and  C_16
REMARK    4  A    between atoms: C_12  and  C_20
REMARK    5  A    between atoms: C_16  and  C_23
REMARK    6  A    between atoms: C_17  and  C_25
REMARK    7  A    between atoms: C_26  and  C_28
REMARK                            x       y       z     vdW  Elec       q    Type
REMARK                         _______ _______ _______ _____ _____    ______ ____
ROOT
ATOM      2  O   UNL     1       9.491   4.455  -2.949  0.00  0.00    -0.336 OA
ATOM      8  N   UNL     1      10.648   6.358  -2.709  0.00  0.00    -0.190 NA
ATOM      9  N   UNL     1       9.164   4.952  -1.680  0.00  0.00    -0.056 NA
ATOM     20  C   UNL     1      10.370   5.342  -3.485  0.00  0.00    +0.245 A 
ATOM     26  C   UNL     1       9.884   6.075  -1.613  0.00  0.00    +0.202 A 
ENDROOT
BRANCH  26  28
ATOM      7  N   UNL     1       9.671   6.711   3.168  0.00  0.00    -0.315 N 
ATOM     10  N   UNL     1       9.830   8.615   1.770  0.00  0.00    -0.240 NA
ATOM     17  C   UNL     1       9.448   5.606   5.844  0.00  0.00    +0.078 C 
ATOM     18  C   UNL     1       8.423   6.591   5.287  0.00  0.00    +0.031 C 
ATOM     19  C   UNL     1      10.171   4.863   4.721  0.00  0.00    +0.031 C 
ATOM     21  C   UNL     1       9.002   7.504   4.206  0.00  0.00    +0.107 C 
ATOM     22  C   UNL     1      10.711   5.788   3.628  0.00  0.00    +0.107 C 
ATOM     24  C   UNL     1       9.762   7.270   1.888  0.00  0.00    +0.122 A 
ATOM     27  C   UNL     1       9.776   6.395   0.813  0.00  0.00    +0.055 A 
ATOM     28  C   UNL     1       9.865   6.937  -0.465  0.00  0.00    +0.027 A 
ATOM     34  C   UNL     1       9.936   8.316  -0.627  0.00  0.00    +0.031 A 
ATOM     35  C   UNL     1       9.914   9.105   0.513  0.00  0.00    +0.113 A 
BRANCH  17  25
ATOM      3  O   UNL     1      10.082   7.249   7.463  0.00  0.00    -0.276 OA
ATOM     11  N   UNL     1      11.698   5.812   6.681  0.00  0.00    -0.329 N 
ATOM     25  C   UNL     1      10.418   6.309   6.748  0.00  0.00    +0.214 C 
ATOM     37  H   UNL     1      12.438   6.209   7.250  0.00  0.00    +0.145 HD
ATOM     38  H   UNL     1      11.973   5.076   6.038  0.00  0.00    +0.145 HD
ENDBRANCH  17  25
ENDBRANCH  26  28
BRANCH  20  12
ATOM      6  N   UNL     1      11.617   3.749  -4.934  0.00  0.00    -0.287 NA
ATOM     12  C   UNL     1      10.883   5.027  -4.875  0.00  0.00    +0.146 C 
ATOM     13  C   UNL     1       9.749   4.876  -5.907  0.00  0.00    +0.030 C 
ATOM     14  C   UNL     1       9.964   3.507  -6.535  0.00  0.00    +0.017 C 
ATOM     15  C   UNL     1      11.433   3.228  -6.290  0.00  0.00    +0.085 C 
BRANCH   6  16
ATOM     16  C   UNL     1      13.025   3.877  -4.583  0.00  0.00    +0.120 C 
BRANCH  16  23
ATOM     23  C   UNL     1      13.233   3.886  -3.091  0.00  0.00    -0.033 A 
ATOM     29  C   UNL     1      12.552   2.972  -2.287  0.00  0.00    +0.007 A 
ATOM     30  C   UNL     1      14.106   4.807  -2.515  0.00  0.00    +0.007 A 
ATOM     31  C   UNL     1      12.743   2.981  -0.906  0.00  0.00    +0.027 A 
ATOM     32  C   UNL     1      14.298   4.816  -1.133  0.00  0.00    +0.027 A 
ATOM     33  C   UNL     1      13.616   3.902  -0.329  0.00  0.00    +0.088 A 
BRANCH  33   1
ATOM      1  S   UNL     1      13.859   3.910   1.400  0.00  0.00    -0.006 S 
ATOM      4  O   UNL     1      15.041   3.119   1.715  0.00  0.00    -0.170 OA
ATOM      5  O   UNL     1      13.769   5.289   1.859  0.00  0.00    -0.170 OA
ATOM     36  C   UNL     1      12.458   3.026   2.048  0.00  0.00    +0.200 C 
ENDBRANCH  33   1
ENDBRANCH  16  23
ENDBRANCH   6  16
ENDBRANCH  20  12
TORSDOF 6
ENDMDL
MODEL 10
REMARK VINA RESULT:      -7.4      6.056      9.175
REMARK  Name = 45783339
REMARK  7 active torsions:
REMARK  status: ('A' for Active; 'I' for Inactive)
REMARK    1  A    between atoms: S_1  and  C_33
REMARK    2  A    between atoms: S_1  and  C_36
REMARK    3  A    between atoms: N_6  and  C_16
REMARK    4  A    between atoms: C_12  and  C_20
REMARK    5  A    between atoms: C_16  and  C_23
REMARK    6  A    between atoms: C_17  and  C_25
REMARK    7  A    between atoms: C_26  and  C_28
REMARK                            x       y       z     vdW  Elec       q    Type
REMARK                         _______ _______ _______ _____ _____    ______ ____
ROOT
ATOM      2  O   UNL     1     -12.959  11.206  19.540  0.00  0.00    -0.336 OA
ATOM      8  N   UNL     1     -11.924  10.866  21.497  0.00  0.00    -0.190 NA
ATOM      9  N   UNL     1     -13.709  11.897  20.502  0.00  0.00    -0.056 NA
ATOM     20  C   UNL     1     -11.928  10.627  20.210  0.00  0.00    +0.245 A 
ATOM     26  C   UNL     1     -13.035  11.649  21.629  0.00  0.00    +0.202 A 
ENDROOT
BRANCH  26  28
ATOM      7  N   UNL     1     -12.966  11.495  26.453  0.00  0.00    -0.315 N 
ATOM     10  N   UNL     1     -14.243  13.178  25.384  0.00  0.00    -0.240 NA
ATOM     17  C   UNL     1     -12.077  10.241  28.916  0.00  0.00    +0.078 C 
ATOM     18  C   UNL     1     -13.557  10.376  28.565  0.00  0.00    +0.031 C 
ATOM     19  C   UNL     1     -11.205  10.266  27.663  0.00  0.00    +0.031 C 
ATOM     21  C   UNL     1     -13.841  11.551  27.631  0.00  0.00    +0.107 C 
ATOM     22  C   UNL     1     -11.527  11.427  26.719  0.00  0.00    +0.107 C 
ATOM     24  C   UNL     1     -13.424  12.108  25.281  0.00  0.00    +0.122 A 
ATOM     27  C   UNL     1     -12.999  11.569  24.077  0.00  0.00    +0.055 A 
ATOM     28  C   UNL     1     -13.445  12.167  22.903  0.00  0.00    +0.027 A 
ATOM     34  C   UNL     1     -14.290  13.270  22.968  0.00  0.00    +0.031 A 
ATOM     35  C   UNL     1     -14.657  13.732  24.222  0.00  0.00    +0.113 A 
BRANCH  17  25
ATOM      3  O   UNL     1     -10.557  11.832  29.856  0.00  0.00    -0.276 OA
ATOM     11  N   UNL     1     -12.635  11.612  30.818  0.00  0.00    -0.329 N 
ATOM     25  C   UNL     1     -11.667  11.307  29.891  0.00  0.00    +0.214 C 
ATOM     37  H   UNL     1     -12.470  12.320  31.525  0.00  0.00    +0.145 HD
ATOM     38  H   UNL     1     -13.523  11.124  30.871  0.00  0.00    +0.145 HD
ENDBRANCH  17  25
ENDBRANCH  26  28
BRANCH  20  12
ATOM      6  N   UNL     1     -11.467   8.461  19.078  0.00  0.00    -0.287 NA
ATOM     12  C   UNL     1     -10.958   9.812  19.383  0.00  0.00    +0.146 C 
ATOM     13  C   UNL     1     -10.674  10.443  18.006  0.00  0.00    +0.030 C 
ATOM     14  C   UNL     1     -10.996   9.352  16.995  0.00  0.00    +0.017 C 
ATOM     15  C   UNL     1     -10.872   8.073  17.797  0.00  0.00    +0.085 C 
BRANCH   6  16
ATOM     16  C   UNL     1     -11.187   7.490  20.128  0.00  0.00    +0.120 C 
BRANCH  16  23
ATOM     23  C   UNL     1     -12.451   6.904  20.700  0.00  0.00    -0.033 A 
ATOM     29  C   UNL     1     -13.690   7.434  20.342  0.00  0.00    +0.007 A 
ATOM     30  C   UNL     1     -12.381   5.831  21.589  0.00  0.00    +0.007 A 
ATOM     31  C   UNL     1     -14.860   6.892  20.872  0.00  0.00    +0.027 A 
ATOM     32  C   UNL     1     -13.552   5.288  22.119  0.00  0.00    +0.027 A 
ATOM     33  C   UNL     1     -14.791   5.820  21.761  0.00  0.00    +0.088 A 
BRANCH  33   1
ATOM      1  S   UNL     1     -16.257   5.138  22.422  0.00  0.00    -0.006 S 
ATOM      4  O   UNL     1     -17.021   6.198  23.068  0.00  0.00    -0.170 OA
ATOM      5  O   UNL     1     -16.880   4.327  21.386  0.00  0.00    -0.170 OA
ATOM     36  C   UNL     1     -15.697   4.047  23.709  0.00  0.00    +0.200 C 
ENDBRANCH  33   1
ENDBRANCH  16  23
ENDBRANCH   6  16
ENDBRANCH  20  12
TORSDOF 6
ENDMDL
