REMARK  Name = 7049404
REMARK  13 active torsions:
REMARK  status: ('A' for Active; 'I' for Inactive)
REMARK    1  A    between atoms: S_1  and  C_21
REMARK    2  A    between atoms: S_1  and  C_27
REMARK    3  A    between atoms: O_7  and  C_23
REMARK    4  A    between atoms: O_7  and  C_28
REMARK    5  A    between atoms: N_10  and  C_14
REMARK    6  A    between atoms: N_11  and  C_19
REMARK    7  A    between atoms: N_12  and  C_26
REMARK    8  A    between atoms: C_13  and  C_17
REMARK    9  A    between atoms: C_18  and  C_21
REMARK   10  A    between atoms: C_19  and  C_20
REMARK   11  A    between atoms: C_19  and  C_23
REMARK   12  A    between atoms: C_20  and  C_24
REMARK   13  A    between atoms: C_20  and  C_25
REMARK                            x       y       z     vdW  Elec       q    Type
REMARK                         _______ _______ _______ _____ _____    ______ ____
ROOT
ATOM      5  O   UNL     1      -4.877   1.323   0.304  0.00  0.00    -0.275 OA
ATOM      9  N   UNL     1      -2.848   1.856  -0.674  0.00  0.00    -0.287 N 
ATOM     13  C   UNL     1      -2.591   0.538  -1.238  0.00  0.00    +0.164 C 
ATOM     14  C   UNL     1      -0.700   1.976  -1.681  0.00  0.00    +0.094 C 
ATOM     15  C   UNL     1      -1.435   0.743  -2.215  0.00  0.00    +0.055 C 
ATOM     16  C   UNL     1      -1.815   2.815  -1.065  0.00  0.00    +0.131 C 
ATOM     18  C   UNL     1      -4.027   2.158  -0.009  0.00  0.00    +0.226 C 
ENDROOT
BRANCH  14  10
ATOM      6  O   UNL     1       2.065   1.432  -2.197  0.00  0.00    -0.252 OA
ATOM     10  N   UNL     1       0.305   1.623  -0.710  0.00  0.00    -0.295 N 
ATOM     12  N   UNL     1       2.380   1.054   0.099  0.00  0.00    -0.267 N 
ATOM     22  C   UNL     1       1.642   1.371  -1.045  0.00  0.00    +0.304 C 
ATOM     34  H   UNL     1       0.018   1.487   0.255  0.00  0.00    +0.151 HD
ATOM     36  H   UNL     1       1.876   1.046   0.982  0.00  0.00    +0.156 HD
BRANCH  12  26
ATOM      2  F   UNL     1       3.591   0.456   2.536  0.00  0.00    -0.203 F 
ATOM      3  F   UNL     1       7.773  -0.188   0.419  0.00  0.00    -0.205 F 
ATOM     26  C   UNL     1       3.756   0.738   0.183  0.00  0.00    +0.070 A 
ATOM     29  C   UNL     1       4.332   0.442   1.419  0.00  0.00    +0.147 A 
ATOM     30  C   UNL     1       4.537   0.721  -0.972  0.00  0.00    +0.029 A 
ATOM     31  C   UNL     1       5.689   0.130   1.499  0.00  0.00    +0.078 A 
ATOM     32  C   UNL     1       5.894   0.409  -0.892  0.00  0.00    +0.040 A 
ATOM     33  C   UNL     1       6.470   0.113   0.343  0.00  0.00    +0.126 A 
ENDBRANCH  12  26
ENDBRANCH  14  10
BRANCH  13  17
ATOM      4  O   UNL     1      -2.163  -0.025   1.042  0.00  0.00    -0.274 OA
ATOM     11  N   UNL     1      -1.923  -1.668  -0.589  0.00  0.00    -0.301 N 
ATOM     17  C   UNL     1      -2.214  -0.396  -0.128  0.00  0.00    +0.234 C 
ATOM     35  H   UNL     1      -2.065  -1.880  -1.572  0.00  0.00    +0.150 HD
BRANCH  11  19
ATOM     19  C   UNL     1      -1.510  -2.748   0.278  0.00  0.00    +0.184 C 
BRANCH  19  20
ATOM     20  C   UNL     1      -0.108  -3.288  -0.078  0.00  0.00    +0.014 C 
ATOM     24  C   UNL     1       0.975  -2.204  -0.084  0.00  0.00    +0.009 C 
ATOM     25  C   UNL     1      -0.120  -4.021  -1.423  0.00  0.00    +0.009 C 
ENDBRANCH  19  20
BRANCH  19  23
ATOM      8  O   UNL     1      -3.538  -3.873  -0.409  0.00  0.00    -0.249 OA
ATOM     23  C   UNL     1      -2.544  -3.869   0.310  0.00  0.00    +0.328 C 
BRANCH  23   7
ATOM      7  O   UNL     1      -2.228  -4.836   1.216  0.00  0.00    -0.467 OA
ATOM     28  C   UNL     1      -3.151  -5.926   1.310  0.00  0.00    +0.280 C 
ENDBRANCH  23   7
ENDBRANCH  19  23
ENDBRANCH  11  19
ENDBRANCH  13  17
BRANCH  18  21
ATOM     21  C   UNL     1      -4.223   3.612   0.339  0.00  0.00    +0.164 C 
BRANCH  21   1
ATOM      1  S   UNL     1      -3.519   3.883   1.972  0.00  0.00    -0.155 S 
ATOM     27  C   UNL     1      -3.878   5.649   2.141  0.00  0.00    +0.085 C 
ENDBRANCH  21   1
ENDBRANCH  18  21
TORSDOF 9
