MODEL 1
REMARK VINA RESULT:      -7.9      0.000      0.000
REMARK  Name = 11942809
REMARK  8 active torsions:
REMARK  status: ('A' for Active; 'I' for Inactive)
REMARK    1  A    between atoms: S_1  and  N_10
REMARK    2  A    between atoms: S_1  and  C_21
REMARK    3  A    between atoms: O_7  and  C_30
REMARK    4  A    between atoms: O_7  and  C_36
REMARK    5  A    between atoms: O_8  and  C_35
REMARK    6  A    between atoms: O_8  and  C_37
REMARK    7  A    between atoms: N_10  and  C_12
REMARK    8  A    between atoms: C_23  and  C_27
REMARK                            x       y       z     vdW  Elec       q    Type
REMARK                         _______ _______ _______ _____ _____    ______ ____
ROOT
ATOM      3  O   UNL     1      15.303   8.821  22.079  0.00  0.00    -0.273 OA
ATOM      4  O   UNL     1      18.408   5.237  19.664  0.00  0.00    -0.270 OA
ATOM      9  N   UNL     1      16.876   6.945  19.808  0.00  0.00    -0.284 N 
ATOM     11  N   UNL     1      17.517   8.364  22.316  0.00  0.00    -0.283 N 
ATOM     12  C   UNL     1      14.622   7.162  19.123  0.00  0.00    +0.096 C 
ATOM     13  C   UNL     1      16.526   8.328  20.061  0.00  0.00    +0.164 C 
ATOM     14  C   UNL     1      15.236   8.553  19.263  0.00  0.00    +0.054 C 
ATOM     15  C   UNL     1      15.835   6.249  19.060  0.00  0.00    +0.129 C 
ATOM     16  C   UNL     1      16.370   8.483  21.562  0.00  0.00    +0.238 C 
ATOM     17  C   UNL     1      18.106   6.368  20.044  0.00  0.00    +0.249 C 
ATOM     18  C   UNL     1      19.112   7.143  20.815  0.00  0.00    +0.059 A 
ATOM     19  C   UNL     1      18.810   7.974  21.905  0.00  0.00    +0.046 A 
ATOM     20  C   UNL     1      20.458   6.867  20.509  0.00  0.00    +0.023 A 
ATOM     22  C   UNL     1      19.864   8.455  22.702  0.00  0.00    +0.024 A 
ATOM     23  C   UNL     1      21.491   7.393  21.284  0.00  0.00    -0.014 A 
ATOM     24  C   UNL     1      21.194   8.176  22.389  0.00  0.00    +0.010 A 
ATOM     39  H   UNL     1      17.439   8.691  23.277  0.00  0.00    +0.155 HD
ENDROOT
BRANCH  23  27
ATOM     27  C   UNL     1      22.869   7.102  20.949  0.00  0.00    +0.024 A 
ATOM     30  C   UNL     1      23.472   5.912  21.360  0.00  0.00    +0.131 A 
ATOM     31  C   UNL     1      23.599   8.029  20.203  0.00  0.00    +0.016 A 
ATOM     33  C   UNL     1      24.801   5.650  21.027  0.00  0.00    +0.091 A 
ATOM     34  C   UNL     1      24.928   7.767  19.870  0.00  0.00    +0.046 A 
ATOM     35  C   UNL     1      25.529   6.578  20.281  0.00  0.00    +0.124 A 
BRANCH  30   7
ATOM      7  O   UNL     1      22.785   4.988  22.091  0.00  0.00    -0.494 OA
ATOM     36  C   UNL     1      22.482   3.752  21.449  0.00  0.00    +0.277 C 
ENDBRANCH  30   7
BRANCH  35   8
ATOM      8  O   UNL     1      26.826   6.324  19.957  0.00  0.00    -0.495 OA
ATOM     37  C   UNL     1      27.116   6.084  18.581  0.00  0.00    +0.277 C 
ENDBRANCH  35   8
ENDBRANCH  23  27
BRANCH  12  10
ATOM     10  N   UNL     1      13.803   6.835  20.316  0.00  0.00    -0.185 NA
ATOM     38  H   UNL     1      14.266   6.874  21.231  0.00  0.00    +0.148 HD
BRANCH  10   1
ATOM      1  S   UNL     1      12.113   7.083  20.217  0.00  0.00    +0.059 S 
ATOM      5  O   UNL     1      11.430   6.036  20.952  0.00  0.00    -0.153 OA
ATOM      6  O   UNL     1      11.765   7.393  18.845  0.00  0.00    -0.153 OA
BRANCH   1  21
ATOM      2  F   UNL     1      10.916  12.060  23.100  0.00  0.00    -0.205 F 
ATOM     21  C   UNL     1      11.748   8.601  21.098  0.00  0.00    +0.105 A 
ATOM     25  C   UNL     1      12.097   9.792  20.512  0.00  0.00    +0.031 A 
ATOM     26  C   UNL     1      11.135   8.513  22.322  0.00  0.00    +0.031 A 
ATOM     28  C   UNL     1      11.812  10.973  21.196  0.00  0.00    +0.040 A 
ATOM     29  C   UNL     1      10.851   9.694  23.006  0.00  0.00    +0.040 A 
ATOM     32  C   UNL     1      11.190  10.925  22.443  0.00  0.00    +0.124 A 
ENDBRANCH   1  21
ENDBRANCH  10   1
ENDBRANCH  12  10
TORSDOF 6
ENDMDL
MODEL 2
REMARK VINA RESULT:      -7.6      2.612      3.567
REMARK  Name = 11942809
REMARK  8 active torsions:
REMARK  status: ('A' for Active; 'I' for Inactive)
REMARK    1  A    between atoms: S_1  and  N_10
REMARK    2  A    between atoms: S_1  and  C_21
REMARK    3  A    between atoms: O_7  and  C_30
REMARK    4  A    between atoms: O_7  and  C_36
REMARK    5  A    between atoms: O_8  and  C_35
REMARK    6  A    between atoms: O_8  and  C_37
REMARK    7  A    between atoms: N_10  and  C_12
REMARK    8  A    between atoms: C_23  and  C_27
REMARK                            x       y       z     vdW  Elec       q    Type
REMARK                         _______ _______ _______ _____ _____    ______ ____
ROOT
ATOM      3  O   UNL     1      16.746   5.658  18.551  0.00  0.00    -0.273 OA
ATOM      4  O   UNL     1      19.261   8.757  22.073  0.00  0.00    -0.270 OA
ATOM      9  N   UNL     1      17.525   7.517  21.213  0.00  0.00    -0.284 N 
ATOM     11  N   UNL     1      18.795   5.461  19.518  0.00  0.00    -0.283 N 
ATOM     12  C   UNL     1      15.305   8.050  20.591  0.00  0.00    +0.096 C 
ATOM     13  C   UNL     1      16.902   6.252  20.882  0.00  0.00    +0.164 C 
ATOM     14  C   UNL     1      15.398   6.552  20.873  0.00  0.00    +0.054 C 
ATOM     15  C   UNL     1      16.557   8.607  21.250  0.00  0.00    +0.129 C 
ATOM     16  C   UNL     1      17.462   5.814  19.543  0.00  0.00    +0.238 C 
ATOM     17  C   UNL     1      18.823   7.687  21.647  0.00  0.00    +0.249 C 
ATOM     18  C   UNL     1      19.748   6.527  21.577  0.00  0.00    +0.059 A 
ATOM     19  C   UNL     1      19.761   5.582  20.539  0.00  0.00    +0.046 A 
ATOM     20  C   UNL     1      20.771   6.504  22.544  0.00  0.00    +0.023 A 
ATOM     22  C   UNL     1      20.836   4.680  20.458  0.00  0.00    +0.024 A 
ATOM     23  C   UNL     1      21.803   5.571  22.473  0.00  0.00    -0.014 A 
ATOM     24  C   UNL     1      21.844   4.666  21.422  0.00  0.00    +0.010 A 
ATOM     39  H   UNL     1      19.093   4.961  18.684  0.00  0.00    +0.155 HD
ENDROOT
BRANCH  23  27
ATOM     27  C   UNL     1      22.843   5.561  23.480  0.00  0.00    +0.024 A 
ATOM     30  C   UNL     1      22.989   4.479  24.351  0.00  0.00    +0.131 A 
ATOM     31  C   UNL     1      23.709   6.651  23.576  0.00  0.00    +0.016 A 
ATOM     33  C   UNL     1      23.998   4.488  25.314  0.00  0.00    +0.091 A 
ATOM     34  C   UNL     1      24.718   6.660  24.539  0.00  0.00    +0.046 A 
ATOM     35  C   UNL     1      24.863   5.579  25.407  0.00  0.00    +0.124 A 
BRANCH  30   7
ATOM      7  O   UNL     1      22.157   3.401  24.282  0.00  0.00    -0.494 OA
ATOM     36  C   UNL     1      22.726   2.126  24.573  0.00  0.00    +0.277 C 
ENDBRANCH  30   7
BRANCH  35   8
ATOM      8  O   UNL     1      25.846   5.588  26.348  0.00  0.00    -0.495 OA
ATOM     37  C   UNL     1      27.166   5.267  25.911  0.00  0.00    +0.277 C 
ENDBRANCH  35   8
ENDBRANCH  23  27
BRANCH  12  10
ATOM     10  N   UNL     1      15.346   8.306  19.130  0.00  0.00    -0.185 NA
ATOM     38  H   UNL     1      16.024   7.770  18.576  0.00  0.00    +0.148 HD
BRANCH  10   1
ATOM      1  S   UNL     1      13.922   8.889  18.382  0.00  0.00    +0.059 S 
ATOM      5  O   UNL     1      13.394   7.871  17.494  0.00  0.00    -0.153 OA
ATOM      6  O   UNL     1      14.156  10.244  17.923  0.00  0.00    -0.153 OA
BRANCH   1  21
ATOM      2  F   UNL     1       9.884   9.531  22.601  0.00  0.00    -0.205 F 
ATOM     21  C   UNL     1      12.690   9.086  19.669  0.00  0.00    +0.105 A 
ATOM     25  C   UNL     1      11.820   8.051  19.900  0.00  0.00    +0.031 A 
ATOM     26  C   UNL     1      12.665  10.264  20.372  0.00  0.00    +0.031 A 
ATOM     28  C   UNL     1      10.862   8.203  20.901  0.00  0.00    +0.040 A 
ATOM     29  C   UNL     1      11.707  10.416  21.373  0.00  0.00    +0.040 A 
ATOM     32  C   UNL     1      10.804   9.386  21.638  0.00  0.00    +0.124 A 
ENDBRANCH   1  21
ENDBRANCH  10   1
ENDBRANCH  12  10
TORSDOF 6
ENDMDL
MODEL 3
REMARK VINA RESULT:      -7.2     28.650     32.408
REMARK  Name = 11942809
REMARK  8 active torsions:
REMARK  status: ('A' for Active; 'I' for Inactive)
REMARK    1  A    between atoms: S_1  and  N_10
REMARK    2  A    between atoms: S_1  and  C_21
REMARK    3  A    between atoms: O_7  and  C_30
REMARK    4  A    between atoms: O_7  and  C_36
REMARK    5  A    between atoms: O_8  and  C_35
REMARK    6  A    between atoms: O_8  and  C_37
REMARK    7  A    between atoms: N_10  and  C_12
REMARK    8  A    between atoms: C_23  and  C_27
REMARK                            x       y       z     vdW  Elec       q    Type
REMARK                         _______ _______ _______ _____ _____    ______ ____
ROOT
ATOM      3  O   UNL     1      -5.490 -11.759  12.958  0.00  0.00    -0.273 OA
ATOM      4  O   UNL     1      -3.851  -8.642   8.968  0.00  0.00    -0.270 OA
ATOM      9  N   UNL     1      -3.739 -10.375  10.475  0.00  0.00    -0.284 N 
ATOM     11  N   UNL     1      -6.543 -11.091  11.057  0.00  0.00    -0.283 N 
ATOM     12  C   UNL     1      -2.220 -10.922  12.206  0.00  0.00    +0.096 C 
ATOM     13  C   UNL     1      -4.152 -11.677  10.955  0.00  0.00    +0.164 C 
ATOM     14  C   UNL     1      -2.958 -12.187  11.771  0.00  0.00    +0.054 C 
ATOM     15  C   UNL     1      -2.464  -9.962  11.052  0.00  0.00    +0.129 C 
ATOM     16  C   UNL     1      -5.422 -11.476  11.760  0.00  0.00    +0.238 C 
ATOM     17  C   UNL     1      -4.332  -9.667   9.452  0.00  0.00    +0.249 C 
ATOM     18  C   UNL     1      -5.631 -10.153   8.918  0.00  0.00    +0.059 A 
ATOM     19  C   UNL     1      -6.651 -10.716   9.701  0.00  0.00    +0.046 A 
ATOM     20  C   UNL     1      -5.881  -9.859   7.564  0.00  0.00    +0.023 A 
ATOM     22  C   UNL     1      -7.919 -10.908   9.124  0.00  0.00    +0.024 A 
ATOM     23  C   UNL     1      -7.132 -10.101   6.998  0.00  0.00    -0.014 A 
ATOM     24  C   UNL     1      -8.156 -10.614   7.781  0.00  0.00    +0.010 A 
ATOM     39  H   UNL     1      -7.421 -11.180  11.562  0.00  0.00    +0.155 HD
ENDROOT
BRANCH  23  27
ATOM     27  C   UNL     1      -7.368  -9.797   5.603  0.00  0.00    +0.024 A 
ATOM     30  C   UNL     1      -7.725  -8.509   5.199  0.00  0.00    +0.131 A 
ATOM     31  C   UNL     1      -7.234 -10.811   4.653  0.00  0.00    +0.016 A 
ATOM     33  C   UNL     1      -7.947  -8.236   3.850  0.00  0.00    +0.091 A 
ATOM     34  C   UNL     1      -7.457 -10.538   3.303  0.00  0.00    +0.046 A 
ATOM     35  C   UNL     1      -7.813  -9.251   2.901  0.00  0.00    +0.124 A 
BRANCH  30   7
ATOM      7  O   UNL     1      -7.864  -7.499   6.104  0.00  0.00    -0.494 OA
ATOM     36  C   UNL     1      -9.190  -7.054   6.378  0.00  0.00    +0.277 C 
ENDBRANCH  30   7
BRANCH  35   8
ATOM      8  O   UNL     1      -8.031  -8.985   1.585  0.00  0.00    -0.495 OA
ATOM     37  C   UNL     1      -9.347  -9.219   1.085  0.00  0.00    +0.277 C 
ENDBRANCH  35   8
ENDBRANCH  23  27
BRANCH  12  10
ATOM     10  N   UNL     1      -2.815 -10.378  13.451  0.00  0.00    -0.185 NA
ATOM     38  H   UNL     1      -3.790 -10.061  13.410  0.00  0.00    +0.148 HD
BRANCH  10   1
ATOM      1  S   UNL     1      -2.167 -10.908  14.943  0.00  0.00    +0.059 S 
ATOM      5  O   UNL     1      -1.164  -9.963  15.395  0.00  0.00    -0.153 OA
ATOM      6  O   UNL     1      -1.880 -12.326  14.851  0.00  0.00    -0.153 OA
BRANCH   1  21
ATOM      2  F   UNL     1      -6.492 -10.627  18.910  0.00  0.00    -0.205 F 
ATOM     21  C   UNL     1      -3.485 -10.822  16.154  0.00  0.00    +0.105 A 
ATOM     25  C   UNL     1      -4.647 -10.180  15.806  0.00  0.00    +0.031 A 
ATOM     26  C   UNL     1      -3.282 -11.401  17.381  0.00  0.00    +0.031 A 
ATOM     28  C   UNL     1      -5.674 -10.114  16.747  0.00  0.00    +0.040 A 
ATOM     29  C   UNL     1      -4.309 -11.334  18.322  0.00  0.00    +0.040 A 
ATOM     32  C   UNL     1      -5.505 -10.690  18.006  0.00  0.00    +0.124 A 
ENDBRANCH   1  21
ENDBRANCH  10   1
ENDBRANCH  12  10
TORSDOF 6
ENDMDL
MODEL 4
REMARK VINA RESULT:      -7.2     29.385     32.544
REMARK  Name = 11942809
REMARK  8 active torsions:
REMARK  status: ('A' for Active; 'I' for Inactive)
REMARK    1  A    between atoms: S_1  and  N_10
REMARK    2  A    between atoms: S_1  and  C_21
REMARK    3  A    between atoms: O_7  and  C_30
REMARK    4  A    between atoms: O_7  and  C_36
REMARK    5  A    between atoms: O_8  and  C_35
REMARK    6  A    between atoms: O_8  and  C_37
REMARK    7  A    between atoms: N_10  and  C_12
REMARK    8  A    between atoms: C_23  and  C_27
REMARK                            x       y       z     vdW  Elec       q    Type
REMARK                         _______ _______ _______ _____ _____    ______ ____
ROOT
ATOM      3  O   UNL     1     -14.280   4.648  22.805  0.00  0.00    -0.273 OA
ATOM      4  O   UNL     1     -15.269   7.571  18.469  0.00  0.00    -0.270 OA
ATOM      9  N   UNL     1     -15.586   6.800  20.613  0.00  0.00    -0.284 N 
ATOM     11  N   UNL     1     -12.915   5.961  21.548  0.00  0.00    -0.283 N 
ATOM     12  C   UNL     1     -17.381   5.694  21.687  0.00  0.00    +0.096 C 
ATOM     13  C   UNL     1     -15.212   6.723  22.009  0.00  0.00    +0.164 C 
ATOM     14  C   UNL     1     -16.515   6.381  22.742  0.00  0.00    +0.054 C 
ATOM     15  C   UNL     1     -16.966   6.378  20.395  0.00  0.00    +0.129 C 
ATOM     16  C   UNL     1     -14.131   5.666  22.126  0.00  0.00    +0.238 C 
ATOM     17  C   UNL     1     -14.842   7.383  19.609  0.00  0.00    +0.249 C 
ATOM     18  C   UNL     1     -13.444   7.785  19.911  0.00  0.00    +0.059 A 
ATOM     19  C   UNL     1     -12.567   7.058  20.732  0.00  0.00    +0.046 A 
ATOM     20  C   UNL     1     -12.953   8.880  19.174  0.00  0.00    +0.023 A 
ATOM     22  C   UNL     1     -11.205   7.406  20.742  0.00  0.00    +0.024 A 
ATOM     23  C   UNL     1     -11.607   9.238  19.235  0.00  0.00    -0.014 A 
ATOM     24  C   UNL     1     -10.729   8.493  20.009  0.00  0.00    +0.010 A 
ATOM     39  H   UNL     1     -12.146   5.356  21.826  0.00  0.00    +0.155 HD
ENDROOT
BRANCH  23  27
ATOM     27  C   UNL     1     -11.123  10.370  18.474  0.00  0.00    +0.024 A 
ATOM     30  C   UNL     1     -10.389  10.186  17.301  0.00  0.00    +0.131 A 
ATOM     31  C   UNL     1     -11.398  11.662  18.926  0.00  0.00    +0.016 A 
ATOM     33  C   UNL     1      -9.932  11.290  16.582  0.00  0.00    +0.091 A 
ATOM     34  C   UNL     1     -10.940  12.766  18.206  0.00  0.00    +0.046 A 
ATOM     35  C   UNL     1     -10.208  12.581  17.034  0.00  0.00    +0.124 A 
BRANCH  30   7
ATOM      7  O   UNL     1     -10.104   8.937  16.835  0.00  0.00    -0.494 OA
ATOM     36  C   UNL     1     -10.738   8.538  15.622  0.00  0.00    +0.277 C 
ENDBRANCH  30   7
BRANCH  35   8
ATOM      8  O   UNL     1      -9.761  13.658  16.334  0.00  0.00    -0.495 OA
ATOM     37  C   UNL     1     -10.074  13.703  14.942  0.00  0.00    +0.277 C 
ENDBRANCH  35   8
ENDBRANCH  23  27
BRANCH  12  10
ATOM     10  N   UNL     1     -17.061   4.247  21.619  0.00  0.00    -0.185 NA
ATOM     38  H   UNL     1     -16.072   3.978  21.668  0.00  0.00    +0.148 HD
BRANCH  10   1
ATOM      1  S   UNL     1     -18.259   3.140  22.138  0.00  0.00    +0.059 S 
ATOM      5  O   UNL     1     -18.361   2.057  21.178  0.00  0.00    -0.153 OA
ATOM      6  O   UNL     1     -19.428   3.881  22.566  0.00  0.00    -0.153 OA
BRANCH   1  21
ATOM      2  F   UNL     1     -16.300   0.657  27.090  0.00  0.00    -0.205 F 
ATOM     21  C   UNL     1     -17.661   2.384  23.650  0.00  0.00    +0.105 A 
ATOM     25  C   UNL     1     -18.024   1.087  23.915  0.00  0.00    +0.031 A 
ATOM     26  C   UNL     1     -16.865   3.130  24.481  0.00  0.00    +0.031 A 
ATOM     28  C   UNL     1     -17.559   0.497  25.090  0.00  0.00    +0.040 A 
ATOM     29  C   UNL     1     -16.400   2.540  25.656  0.00  0.00    +0.040 A 
ATOM     32  C   UNL     1     -16.748   1.224  25.961  0.00  0.00    +0.124 A 
ENDBRANCH   1  21
ENDBRANCH  10   1
ENDBRANCH  12  10
TORSDOF 6
ENDMDL
MODEL 5
REMARK VINA RESULT:      -7.1     30.152     33.618
REMARK  Name = 11942809
REMARK  8 active torsions:
REMARK  status: ('A' for Active; 'I' for Inactive)
REMARK    1  A    between atoms: S_1  and  N_10
REMARK    2  A    between atoms: S_1  and  C_21
REMARK    3  A    between atoms: O_7  and  C_30
REMARK    4  A    between atoms: O_7  and  C_36
REMARK    5  A    between atoms: O_8  and  C_35
REMARK    6  A    between atoms: O_8  and  C_37
REMARK    7  A    between atoms: N_10  and  C_12
REMARK    8  A    between atoms: C_23  and  C_27
REMARK                            x       y       z     vdW  Elec       q    Type
REMARK                         _______ _______ _______ _____ _____    ______ ____
ROOT
ATOM      3  O   UNL     1     -15.389   7.655  19.139  0.00  0.00    -0.273 OA
ATOM      4  O   UNL     1     -12.609   4.627  22.520  0.00  0.00    -0.270 OA
ATOM      9  N   UNL     1     -13.301   6.574  21.509  0.00  0.00    -0.284 N 
ATOM     11  N   UNL     1     -16.060   6.049  20.601  0.00  0.00    -0.283 N 
ATOM     12  C   UNL     1     -12.174   8.244  20.268  0.00  0.00    +0.096 C 
ATOM     13  C   UNL     1     -14.282   7.614  21.280  0.00  0.00    +0.164 C 
ATOM     14  C   UNL     1     -13.461   8.833  20.842  0.00  0.00    +0.054 C 
ATOM     15  C   UNL     1     -11.964   6.988  21.098  0.00  0.00    +0.129 C 
ATOM     16  C   UNL     1     -15.246   7.097  20.229  0.00  0.00    +0.238 C 
ATOM     17  C   UNL     1     -13.512   5.405  22.209  0.00  0.00    +0.249 C 
ATOM     18  C   UNL     1     -14.905   5.054  22.592  0.00  0.00    +0.059 A 
ATOM     19  C   UNL     1     -16.031   5.285  21.787  0.00  0.00    +0.046 A 
ATOM     20  C   UNL     1     -15.039   4.292  23.768  0.00  0.00    +0.023 A 
ATOM     22  C   UNL     1     -17.253   4.689  22.147  0.00  0.00    +0.024 A 
ATOM     23  C   UNL     1     -16.270   3.750  24.132  0.00  0.00    -0.014 A 
ATOM     24  C   UNL     1     -17.376   3.937  23.315  0.00  0.00    +0.010 A 
ATOM     39  H   UNL     1     -16.843   5.867  19.977  0.00  0.00    +0.155 HD
ENDROOT
BRANCH  23  27
ATOM     27  C   UNL     1     -16.390   2.974  25.348  0.00  0.00    +0.024 A 
ATOM     30  C   UNL     1     -16.755   1.627  25.308  0.00  0.00    +0.131 A 
ATOM     31  C   UNL     1     -16.133   3.587  26.576  0.00  0.00    +0.016 A 
ATOM     33  C   UNL     1     -16.864   0.897  26.491  0.00  0.00    +0.091 A 
ATOM     34  C   UNL     1     -16.242   2.857  27.759  0.00  0.00    +0.046 A 
ATOM     35  C   UNL     1     -16.606   1.511  27.717  0.00  0.00    +0.124 A 
BRANCH  30   7
ATOM      7  O   UNL     1     -17.013   1.001  24.125  0.00  0.00    -0.494 OA
ATOM     36  C   UNL     1     -18.273   0.346  24.000  0.00  0.00    +0.277 C 
ENDBRANCH  30   7
BRANCH  35   8
ATOM      8  O   UNL     1     -16.714   0.799  28.871  0.00  0.00    -0.495 OA
ATOM     37  C   UNL     1     -15.518   0.600  29.625  0.00  0.00    +0.277 C 
ENDBRANCH  35   8
ENDBRANCH  23  27
BRANCH  12  10
ATOM     10  N   UNL     1     -12.362   7.882  18.842  0.00  0.00    -0.185 NA
ATOM     38  H   UNL     1     -13.188   7.323  18.601  0.00  0.00    +0.148 HD
BRANCH  10   1
ATOM      1  S   UNL     1     -11.668   8.908  17.660  0.00  0.00    +0.059 S 
ATOM      5  O   UNL     1     -10.253   8.615  17.540  0.00  0.00    -0.153 OA
ATOM      6  O   UNL     1     -12.143  10.260  17.877  0.00  0.00    -0.153 OA
BRANCH   1  21
ATOM      2  F   UNL     1     -14.021   7.431  12.483  0.00  0.00    -0.205 F 
ATOM     21  C   UNL     1     -12.385   8.456  16.080  0.00  0.00    +0.105 A 
ATOM     25  C   UNL     1     -13.733   8.202  16.027  0.00  0.00    +0.031 A 
ATOM     26  C   UNL     1     -11.560   8.383  14.987  0.00  0.00    +0.031 A 
ATOM     28  C   UNL     1     -14.291   7.852  14.798  0.00  0.00    +0.040 A 
ATOM     29  C   UNL     1     -12.118   8.033  13.759  0.00  0.00    +0.040 A 
ATOM     32  C   UNL     1     -13.484   7.767  13.664  0.00  0.00    +0.124 A 
ENDBRANCH   1  21
ENDBRANCH  10   1
ENDBRANCH  12  10
TORSDOF 6
ENDMDL
MODEL 6
REMARK VINA RESULT:      -7.0      2.162      2.511
REMARK  Name = 11942809
REMARK  8 active torsions:
REMARK  status: ('A' for Active; 'I' for Inactive)
REMARK    1  A    between atoms: S_1  and  N_10
REMARK    2  A    between atoms: S_1  and  C_21
REMARK    3  A    between atoms: O_7  and  C_30
REMARK    4  A    between atoms: O_7  and  C_36
REMARK    5  A    between atoms: O_8  and  C_35
REMARK    6  A    between atoms: O_8  and  C_37
REMARK    7  A    between atoms: N_10  and  C_12
REMARK    8  A    between atoms: C_23  and  C_27
REMARK                            x       y       z     vdW  Elec       q    Type
REMARK                         _______ _______ _______ _____ _____    ______ ____
ROOT
ATOM      3  O   UNL     1      15.954  11.201  21.947  0.00  0.00    -0.273 OA
ATOM      4  O   UNL     1      16.719   5.945  21.615  0.00  0.00    -0.270 OA
ATOM      9  N   UNL     1      16.051   8.029  20.910  0.00  0.00    -0.284 N 
ATOM     11  N   UNL     1      17.804   9.935  22.326  0.00  0.00    -0.283 N 
ATOM     12  C   UNL     1      13.958   8.929  20.269  0.00  0.00    +0.096 C 
ATOM     13  C   UNL     1      16.335   9.366  20.432  0.00  0.00    +0.164 C 
ATOM     14  C   UNL     1      15.074   9.780  19.664  0.00  0.00    +0.054 C 
ATOM     15  C   UNL     1      14.669   7.640  20.648  0.00  0.00    +0.129 C 
ATOM     16  C   UNL     1      16.639  10.221  21.647  0.00  0.00    +0.238 C 
ATOM     17  C   UNL     1      16.981   7.123  21.374  0.00  0.00    +0.249 C 
ATOM     18  C   UNL     1      18.368   7.598  21.615  0.00  0.00    +0.059 A 
ATOM     19  C   UNL     1      18.697   8.859  22.136  0.00  0.00    +0.046 A 
ATOM     20  C   UNL     1      19.379   6.631  21.456  0.00  0.00    +0.023 A 
ATOM     22  C   UNL     1      20.020   9.097  22.549  0.00  0.00    +0.024 A 
ATOM     23  C   UNL     1      20.695   6.903  21.827  0.00  0.00    -0.014 A 
ATOM     24  C   UNL     1      21.014   8.132  22.386  0.00  0.00    +0.010 A 
ATOM     39  H   UNL     1      18.104  10.648  22.987  0.00  0.00    +0.155 HD
ENDROOT
BRANCH  23  27
ATOM     27  C   UNL     1      21.721   5.898  21.651  0.00  0.00    +0.024 A 
ATOM     30  C   UNL     1      22.127   5.092  22.716  0.00  0.00    +0.131 A 
ATOM     31  C   UNL     1      22.308   5.736  20.395  0.00  0.00    +0.016 A 
ATOM     33  C   UNL     1      23.117   4.128  22.525  0.00  0.00    +0.091 A 
ATOM     34  C   UNL     1      23.298   4.772  20.204  0.00  0.00    +0.046 A 
ATOM     35  C   UNL     1      23.702   3.968  21.269  0.00  0.00    +0.124 A 
BRANCH  30   7
ATOM      7  O   UNL     1      21.573   5.227  23.955  0.00  0.00    -0.494 OA
ATOM     36  C   UNL     1      22.466   5.462  25.041  0.00  0.00    +0.277 C 
ENDBRANCH  30   7
BRANCH  35   8
ATOM      8  O   UNL     1      24.669   3.029  21.083  0.00  0.00    -0.495 OA
ATOM     37  C   UNL     1      25.420   3.101  19.872  0.00  0.00    +0.277 C 
ENDBRANCH  35   8
ENDBRANCH  23  27
BRANCH  12  10
ATOM     10  N   UNL     1      13.411   9.581  21.484  0.00  0.00    -0.185 NA
ATOM     38  H   UNL     1      13.943  10.364  21.880  0.00  0.00    +0.148 HD
BRANCH  10   1
ATOM      1  S   UNL     1      11.721   9.498  21.742  0.00  0.00    +0.059 S 
ATOM      5  O   UNL     1      11.433   8.450  22.703  0.00  0.00    -0.153 OA
ATOM      6  O   UNL     1      11.048   9.551  20.459  0.00  0.00    -0.153 OA
BRANCH   1  21
ATOM      2  F   UNL     1      10.111  14.508  24.352  0.00  0.00    -0.205 F 
ATOM     21  C   UNL     1      11.231  11.026  22.539  0.00  0.00    +0.105 A 
ATOM     25  C   UNL     1      11.151  12.162  21.774  0.00  0.00    +0.031 A 
ATOM     26  C   UNL     1      10.955  11.001  23.883  0.00  0.00    +0.031 A 
ATOM     28  C   UNL     1      10.768  13.351  22.393  0.00  0.00    +0.040 A 
ATOM     29  C   UNL     1      10.572  12.190  24.502  0.00  0.00    +0.040 A 
ATOM     32  C   UNL     1      10.479  13.366  23.757  0.00  0.00    +0.124 A 
ENDBRANCH   1  21
ENDBRANCH  10   1
ENDBRANCH  12  10
TORSDOF 6
ENDMDL
MODEL 7
REMARK VINA RESULT:      -6.9     29.169     33.373
REMARK  Name = 11942809
REMARK  8 active torsions:
REMARK  status: ('A' for Active; 'I' for Inactive)
REMARK    1  A    between atoms: S_1  and  N_10
REMARK    2  A    between atoms: S_1  and  C_21
REMARK    3  A    between atoms: O_7  and  C_30
REMARK    4  A    between atoms: O_7  and  C_36
REMARK    5  A    between atoms: O_8  and  C_35
REMARK    6  A    between atoms: O_8  and  C_37
REMARK    7  A    between atoms: N_10  and  C_12
REMARK    8  A    between atoms: C_23  and  C_27
REMARK                            x       y       z     vdW  Elec       q    Type
REMARK                         _______ _______ _______ _____ _____    ______ ____
ROOT
ATOM      3  O   UNL     1     -15.604   9.079  20.640  0.00  0.00    -0.273 OA
ATOM      4  O   UNL     1     -13.445   4.417  22.030  0.00  0.00    -0.270 OA
ATOM      9  N   UNL     1     -13.533   6.695  21.725  0.00  0.00    -0.284 N 
ATOM     11  N   UNL     1     -16.387   7.408  21.968  0.00  0.00    -0.283 N 
ATOM     12  C   UNL     1     -12.265   8.204  20.417  0.00  0.00    +0.096 C 
ATOM     13  C   UNL     1     -14.003   8.014  22.094  0.00  0.00    +0.164 C 
ATOM     14  C   UNL     1     -12.930   8.971  21.559  0.00  0.00    +0.054 C 
ATOM     15  C   UNL     1     -12.353   6.756  20.871  0.00  0.00    +0.129 C 
ATOM     16  C   UNL     1     -15.372   8.194  21.467  0.00  0.00    +0.238 C 
ATOM     17  C   UNL     1     -13.984   5.502  22.251  0.00  0.00    +0.249 C 
ATOM     18  C   UNL     1     -15.194   5.524  23.113  0.00  0.00    +0.059 A 
ATOM     19  C   UNL     1     -16.309   6.348  22.895  0.00  0.00    +0.046 A 
ATOM     20  C   UNL     1     -15.257   4.522  24.099  0.00  0.00    +0.023 A 
ATOM     22  C   UNL     1     -17.485   6.102  23.627  0.00  0.00    +0.024 A 
ATOM     23  C   UNL     1     -16.416   4.325  24.847  0.00  0.00    -0.014 A 
ATOM     24  C   UNL     1     -17.536   5.107  24.603  0.00  0.00    +0.010 A 
ATOM     39  H   UNL     1     -17.327   7.696  21.703  0.00  0.00    +0.155 HD
ENDROOT
BRANCH  23  27
ATOM     27  C   UNL     1     -16.460   3.292  25.861  0.00  0.00    +0.024 A 
ATOM     30  C   UNL     1     -16.724   1.964  25.522  0.00  0.00    +0.131 A 
ATOM     31  C   UNL     1     -16.232   3.637  27.194  0.00  0.00    +0.016 A 
ATOM     33  C   UNL     1     -16.761   0.984  26.514  0.00  0.00    +0.091 A 
ATOM     34  C   UNL     1     -16.269   2.657  28.186  0.00  0.00    +0.046 A 
ATOM     35  C   UNL     1     -16.532   1.331  27.846  0.00  0.00    +0.124 A 
BRANCH  30   7
ATOM      7  O   UNL     1     -16.951   1.597  24.229  0.00  0.00    -0.494 OA
ATOM     36  C   UNL     1     -18.202   0.977  23.942  0.00  0.00    +0.277 C 
ENDBRANCH  30   7
BRANCH  35   8
ATOM      8  O   UNL     1     -16.569   0.374  28.813  0.00  0.00    -0.495 OA
ATOM     37  C   UNL     1     -15.743   0.578  29.959  0.00  0.00    +0.277 C 
ENDBRANCH  35   8
ENDBRANCH  23  27
BRANCH  12  10
ATOM     10  N   UNL     1     -13.028   8.387  19.158  0.00  0.00    -0.185 NA
ATOM     38  H   UNL     1     -13.930   8.874  19.219  0.00  0.00    +0.148 HD
BRANCH  10   1
ATOM      1  S   UNL     1     -12.150   8.427  17.690  0.00  0.00    +0.059 S 
ATOM      5  O   UNL     1     -13.046   8.145  16.585  0.00  0.00    -0.153 OA
ATOM      6  O   UNL     1     -10.913   7.691  17.865  0.00  0.00    -0.153 OA
BRANCH   1  21
ATOM      2  F   UNL     1     -10.368  13.967  16.884  0.00  0.00    -0.205 F 
ATOM     21  C   UNL     1     -11.605  10.117  17.444  0.00  0.00    +0.105 A 
ATOM     25  C   UNL     1     -12.347  10.925  16.621  0.00  0.00    +0.031 A 
ATOM     26  C   UNL     1     -10.468  10.535  18.088  0.00  0.00    +0.031 A 
ATOM     28  C   UNL     1     -11.925  12.240  16.429  0.00  0.00    +0.040 A 
ATOM     29  C   UNL     1     -10.046  11.850  17.897  0.00  0.00    +0.040 A 
ATOM     32  C   UNL     1     -10.774  12.703  17.067  0.00  0.00    +0.124 A 
ENDBRANCH   1  21
ENDBRANCH  10   1
ENDBRANCH  12  10
TORSDOF 6
ENDMDL
MODEL 8
REMARK VINA RESULT:      -6.8     12.081     14.895
REMARK  Name = 11942809
REMARK  8 active torsions:
REMARK  status: ('A' for Active; 'I' for Inactive)
REMARK    1  A    between atoms: S_1  and  N_10
REMARK    2  A    between atoms: S_1  and  C_21
REMARK    3  A    between atoms: O_7  and  C_30
REMARK    4  A    between atoms: O_7  and  C_36
REMARK    5  A    between atoms: O_8  and  C_35
REMARK    6  A    between atoms: O_8  and  C_37
REMARK    7  A    between atoms: N_10  and  C_12
REMARK    8  A    between atoms: C_23  and  C_27
REMARK                            x       y       z     vdW  Elec       q    Type
REMARK                         _______ _______ _______ _____ _____    ______ ____
ROOT
ATOM      3  O   UNL     1      21.508  -3.068  27.863  0.00  0.00    -0.273 OA
ATOM      4  O   UNL     1      16.485  -2.089  29.323  0.00  0.00    -0.270 OA
ATOM      9  N   UNL     1      18.363  -3.361  28.944  0.00  0.00    -0.284 N 
ATOM     11  N   UNL     1      20.641  -1.514  29.277  0.00  0.00    -0.283 N 
ATOM     12  C   UNL     1      18.811  -5.208  27.535  0.00  0.00    +0.096 C 
ATOM     13  C   UNL     1      19.702  -3.792  29.286  0.00  0.00    +0.164 C 
ATOM     14  C   UNL     1      19.827  -5.193  28.677  0.00  0.00    +0.054 C 
ATOM     15  C   UNL     1      17.704  -4.299  28.042  0.00  0.00    +0.129 C 
ATOM     16  C   UNL     1      20.663  -2.769  28.709  0.00  0.00    +0.238 C 
ATOM     17  C   UNL     1      17.677  -2.317  29.528  0.00  0.00    +0.249 C 
ATOM     18  C   UNL     1      18.420  -1.406  30.437  0.00  0.00    +0.059 A 
ATOM     19  C   UNL     1      19.747  -0.993  30.236  0.00  0.00    +0.046 A 
ATOM     20  C   UNL     1      17.658  -0.809  31.459  0.00  0.00    +0.023 A 
ATOM     22  C   UNL     1      20.255   0.057  31.023  0.00  0.00    +0.024 A 
ATOM     23  C   UNL     1      18.195   0.197  32.259  0.00  0.00    -0.014 A 
ATOM     24  C   UNL     1      19.490   0.640  32.033  0.00  0.00    +0.010 A 
ATOM     39  H   UNL     1      21.432  -0.919  29.041  0.00  0.00    +0.155 HD
ENDROOT
BRANCH  23  27
ATOM     27  C   UNL     1      17.397   0.794  33.308  0.00  0.00    +0.024 A 
ATOM     30  C   UNL     1      16.622   1.929  33.063  0.00  0.00    +0.131 A 
ATOM     31  C   UNL     1      17.406   0.221  34.581  0.00  0.00    +0.016 A 
ATOM     33  C   UNL     1      15.858   2.489  34.087  0.00  0.00    +0.091 A 
ATOM     34  C   UNL     1      16.642   0.780  35.605  0.00  0.00    +0.046 A 
ATOM     35  C   UNL     1      15.868   1.914  35.359  0.00  0.00    +0.124 A 
BRANCH  30   7
ATOM      7  O   UNL     1      16.593   2.512  31.831  0.00  0.00    -0.494 OA
ATOM     36  C   UNL     1      16.728   3.930  31.783  0.00  0.00    +0.277 C 
ENDBRANCH  30   7
BRANCH  35   8
ATOM      8  O   UNL     1      15.125   2.461  36.359  0.00  0.00    -0.495 OA
ATOM     37  C   UNL     1      14.788   1.613  37.456  0.00  0.00    +0.277 C 
ENDBRANCH  35   8
ENDBRANCH  23  27
BRANCH  12  10
ATOM     10  N   UNL     1      19.410  -4.640  26.303  0.00  0.00    -0.185 NA
ATOM     38  H   UNL     1      20.363  -4.265  26.370  0.00  0.00    +0.148 HD
BRANCH  10   1
ATOM      1  S   UNL     1      18.839  -5.220  24.797  0.00  0.00    +0.059 S 
ATOM      5  O   UNL     1      17.887  -6.291  25.024  0.00  0.00    -0.153 OA
ATOM      6  O   UNL     1      19.967  -5.389  23.903  0.00  0.00    -0.153 OA
BRANCH   1  21
ATOM      2  F   UNL     1      15.753  -0.879  22.318  0.00  0.00    -0.205 F 
ATOM     21  C   UNL     1      17.897  -3.895  24.042  0.00  0.00    +0.105 A 
ATOM     25  C   UNL     1      18.513  -3.118  23.094  0.00  0.00    +0.031 A 
ATOM     26  C   UNL     1      16.598  -3.710  24.441  0.00  0.00    +0.031 A 
ATOM     28  C   UNL     1      17.781  -2.088  22.505  0.00  0.00    +0.040 A 
ATOM     29  C   UNL     1      15.865  -2.680  23.852  0.00  0.00    +0.040 A 
ATOM     32  C   UNL     1      16.457  -1.868  22.884  0.00  0.00    +0.124 A 
ENDBRANCH   1  21
ENDBRANCH  10   1
ENDBRANCH  12  10
TORSDOF 6
ENDMDL
MODEL 9
REMARK VINA RESULT:      -6.8      3.573      4.769
REMARK  Name = 11942809
REMARK  8 active torsions:
REMARK  status: ('A' for Active; 'I' for Inactive)
REMARK    1  A    between atoms: S_1  and  N_10
REMARK    2  A    between atoms: S_1  and  C_21
REMARK    3  A    between atoms: O_7  and  C_30
REMARK    4  A    between atoms: O_7  and  C_36
REMARK    5  A    between atoms: O_8  and  C_35
REMARK    6  A    between atoms: O_8  and  C_37
REMARK    7  A    between atoms: N_10  and  C_12
REMARK    8  A    between atoms: C_23  and  C_27
REMARK                            x       y       z     vdW  Elec       q    Type
REMARK                         _______ _______ _______ _____ _____    ______ ____
ROOT
ATOM      3  O   UNL     1      16.470   5.796  18.344  0.00  0.00    -0.273 OA
ATOM      4  O   UNL     1      18.630   9.018  21.987  0.00  0.00    -0.270 OA
ATOM      9  N   UNL     1      17.015   7.679  21.047  0.00  0.00    -0.284 N 
ATOM     11  N   UNL     1      18.482   5.719  19.398  0.00  0.00    -0.283 N 
ATOM     12  C   UNL     1      14.795   8.078  20.331  0.00  0.00    +0.096 C 
ATOM     13  C   UNL     1      16.487   6.381  20.682  0.00  0.00    +0.164 C 
ATOM     14  C   UNL     1      14.969   6.586  20.608  0.00  0.00    +0.054 C 
ATOM     15  C   UNL     1      15.979   8.706  21.047  0.00  0.00    +0.129 C 
ATOM     16  C   UNL     1      17.131   5.988  19.366  0.00  0.00    +0.238 C 
ATOM     17  C   UNL     1      18.279   7.927  21.537  0.00  0.00    +0.249 C 
ATOM     18  C   UNL     1      19.277   6.827  21.502  0.00  0.00    +0.059 A 
ATOM     19  C   UNL     1      19.394   5.893  20.461  0.00  0.00    +0.046 A 
ATOM     20  C   UNL     1      20.257   6.860  22.513  0.00  0.00    +0.023 A 
ATOM     22  C   UNL     1      20.526   5.060  20.422  0.00  0.00    +0.024 A 
ATOM     23  C   UNL     1      21.347   5.993  22.482  0.00  0.00    -0.014 A 
ATOM     24  C   UNL     1      21.490   5.101  21.429  0.00  0.00    +0.010 A 
ATOM     39  H   UNL     1      18.848   5.245  18.575  0.00  0.00    +0.155 HD
ENDROOT
BRANCH  23  27
ATOM     27  C   UNL     1      22.341   6.040  23.534  0.00  0.00    +0.024 A 
ATOM     30  C   UNL     1      22.696   4.888  24.237  0.00  0.00    +0.131 A 
ATOM     31  C   UNL     1      22.949   7.258  23.842  0.00  0.00    +0.016 A 
ATOM     33  C   UNL     1      23.657   4.954  25.247  0.00  0.00    +0.091 A 
ATOM     34  C   UNL     1      23.910   7.324  24.852  0.00  0.00    +0.046 A 
ATOM     35  C   UNL     1      24.264   6.172  25.553  0.00  0.00    +0.124 A 
BRANCH  30   7
ATOM      7  O   UNL     1      22.119   3.685  23.959  0.00  0.00    -0.494 OA
ATOM     36  C   UNL     1      22.929   2.524  24.129  0.00  0.00    +0.277 C 
ENDBRANCH  30   7
BRANCH  35   8
ATOM      8  O   UNL     1      25.200   6.237  26.539  0.00  0.00    -0.495 OA
ATOM     37  C   UNL     1      26.333   7.073  26.305  0.00  0.00    +0.277 C 
ENDBRANCH  35   8
ENDBRANCH  23  27
BRANCH  12  10
ATOM     10  N   UNL     1      14.883   8.347  18.875  0.00  0.00    -0.185 NA
ATOM     38  H   UNL     1      15.329   7.632  18.288  0.00  0.00    +0.148 HD
BRANCH  10   1
ATOM      1  S   UNL     1      13.718   9.392  18.184  0.00  0.00    +0.059 S 
ATOM      5  O   UNL     1      13.216  10.294  19.204  0.00  0.00    -0.153 OA
ATOM      6  O   UNL     1      12.818   8.611  17.359  0.00  0.00    -0.153 OA
BRANCH   1  21
ATOM      2  F   UNL     1      16.528  12.809  14.319  0.00  0.00    -0.205 F 
ATOM     21  C   UNL     1      14.574  10.435  17.004  0.00  0.00    +0.105 A 
ATOM     25  C   UNL     1      15.213  11.556  17.470  0.00  0.00    +0.031 A 
ATOM     26  C   UNL     1      14.558  10.071  15.681  0.00  0.00    +0.031 A 
ATOM     28  C   UNL     1      15.881  12.367  16.553  0.00  0.00    +0.040 A 
ATOM     29  C   UNL     1      15.225  10.882  14.764  0.00  0.00    +0.040 A 
ATOM     32  C   UNL     1      15.887  12.031  15.200  0.00  0.00    +0.124 A 
ENDBRANCH   1  21
ENDBRANCH  10   1
ENDBRANCH  12  10
TORSDOF 6
ENDMDL
MODEL 10
REMARK VINA RESULT:      -6.7     28.372     33.793
REMARK  Name = 11942809
REMARK  8 active torsions:
REMARK  status: ('A' for Active; 'I' for Inactive)
REMARK    1  A    between atoms: S_1  and  N_10
REMARK    2  A    between atoms: S_1  and  C_21
REMARK    3  A    between atoms: O_7  and  C_30
REMARK    4  A    between atoms: O_7  and  C_36
REMARK    5  A    between atoms: O_8  and  C_35
REMARK    6  A    between atoms: O_8  and  C_37
REMARK    7  A    between atoms: N_10  and  C_12
REMARK    8  A    between atoms: C_23  and  C_27
REMARK                            x       y       z     vdW  Elec       q    Type
REMARK                         _______ _______ _______ _____ _____    ______ ____
ROOT
ATOM      3  O   UNL     1      -7.793  -9.164  18.282  0.00  0.00    -0.273 OA
ATOM      4  O   UNL     1      -9.450  -9.300  13.226  0.00  0.00    -0.270 OA
ATOM      9  N   UNL     1      -8.951 -10.143  15.307  0.00  0.00    -0.284 N 
ATOM     11  N   UNL     1      -9.311  -7.885  17.174  0.00  0.00    -0.283 N 
ATOM     12  C   UNL     1      -7.435 -11.794  16.065  0.00  0.00    +0.096 C 
ATOM     13  C   UNL     1      -9.230 -10.305  16.718  0.00  0.00    +0.164 C 
ATOM     14  C   UNL     1      -8.545 -11.623  17.100  0.00  0.00    +0.054 C 
ATOM     15  C   UNL     1      -8.020 -11.154  14.817  0.00  0.00    +0.129 C 
ATOM     16  C   UNL     1      -8.678  -9.083  17.428  0.00  0.00    +0.238 C 
ATOM     17  C   UNL     1      -9.608  -9.288  14.447  0.00  0.00    +0.249 C 
ATOM     18  C   UNL     1     -10.540  -8.285  15.025  0.00  0.00    +0.059 A 
ATOM     19  C   UNL     1     -10.322  -7.601  16.231  0.00  0.00    +0.046 A 
ATOM     20  C   UNL     1     -11.613  -7.904  14.199  0.00  0.00    +0.023 A 
ATOM     22  C   UNL     1     -11.146  -6.506  16.546  0.00  0.00    +0.024 A 
ATOM     23  C   UNL     1     -12.448  -6.846  14.552  0.00  0.00    -0.014 A 
ATOM     24  C   UNL     1     -12.208  -6.137  15.720  0.00  0.00    +0.010 A 
ATOM     39  H   UNL     1      -9.082  -7.131  17.818  0.00  0.00    +0.155 HD
ENDROOT
BRANCH  23  27
ATOM     27  C   UNL     1     -13.550  -6.472  13.691  0.00  0.00    +0.024 A 
ATOM     30  C   UNL     1     -13.391  -5.501  12.701  0.00  0.00    +0.131 A 
ATOM     31  C   UNL     1     -14.787  -7.097  13.858  0.00  0.00    +0.016 A 
ATOM     33  C   UNL     1     -14.465  -5.155  11.881  0.00  0.00    +0.091 A 
ATOM     34  C   UNL     1     -15.861  -6.752  13.037  0.00  0.00    +0.046 A 
ATOM     35  C   UNL     1     -15.700  -5.781  12.049  0.00  0.00    +0.124 A 
BRANCH  30   7
ATOM      7  O   UNL     1     -12.195  -4.872  12.515  0.00  0.00    -0.494 OA
ATOM     36  C   UNL     1     -12.238  -3.508  12.105  0.00  0.00    +0.277 C 
ENDBRANCH  30   7
BRANCH  35   8
ATOM      8  O   UNL     1     -16.749  -5.444  11.250  0.00  0.00    -0.495 OA
ATOM     37  C   UNL     1     -17.461  -6.512  10.627  0.00  0.00    +0.277 C 
ENDBRANCH  35   8
ENDBRANCH  23  27
BRANCH  12  10
ATOM     10  N   UNL     1      -6.217 -11.061  16.486  0.00  0.00    -0.185 NA
ATOM     38  H   UNL     1      -6.344 -10.238  17.087  0.00  0.00    +0.148 HD
BRANCH  10   1
ATOM      1  S   UNL     1      -4.745 -11.931  16.555  0.00  0.00    +0.059 S 
ATOM      5  O   UNL     1      -4.986 -13.313  16.188  0.00  0.00    -0.153 OA
ATOM      6  O   UNL     1      -4.054 -11.586  17.781  0.00  0.00    -0.153 OA
BRANCH   1  21
ATOM      2  F   UNL     1      -1.253  -9.781  12.348  0.00  0.00    -0.205 F 
ATOM     21  C   UNL     1      -3.680 -11.274  15.271  0.00  0.00    +0.105 A 
ATOM     25  C   UNL     1      -2.434 -10.825  15.627  0.00  0.00    +0.031 A 
ATOM     26  C   UNL     1      -4.153 -11.247  13.983  0.00  0.00    +0.031 A 
ATOM     28  C   UNL     1      -1.605 -10.315  14.628  0.00  0.00    +0.040 A 
ATOM     29  C   UNL     1      -3.324 -10.737  12.985  0.00  0.00    +0.040 A 
ATOM     32  C   UNL     1      -2.050 -10.270  13.307  0.00  0.00    +0.124 A 
ENDBRANCH   1  21
ENDBRANCH  10   1
ENDBRANCH  12  10
TORSDOF 6
ENDMDL
