MODEL 1
REMARK VINA RESULT:      -7.4      0.000      0.000
REMARK  Name = 11882967
REMARK  10 active torsions:
REMARK  status: ('A' for Active; 'I' for Inactive)
REMARK    1  A    between atoms: O_2  and  C_16
REMARK    2  A    between atoms: O_3  and  C_21
REMARK    3  A    between atoms: N_9  and  C_28
REMARK    4  A    between atoms: C_11  and  C_19
REMARK    5  A    between atoms: C_13  and  C_21
REMARK    6  A    between atoms: C_13  and  C_22
REMARK    7  A    between atoms: C_14  and  C_24
REMARK    8  A    between atoms: C_24  and  C_25
REMARK    9  A    between atoms: C_27  and  C_29
REMARK   10  A    between atoms: C_28  and  C_35
REMARK                            x       y       z     vdW  Elec       q    Type
REMARK                         _______ _______ _______ _____ _____    ______ ____
ROOT
ATOM      1  S   UNL     1      14.948   7.985   6.187  0.00  0.00    -0.057 S 
ATOM      5  O   UNL     1      12.471   6.442   2.545  0.00  0.00    -0.275 OA
ATOM      8  N   UNL     1      15.024   7.496   3.648  0.00  0.00    -0.229 NA
ATOM     10  N   UNL     1      12.943   7.050   4.780  0.00  0.00    -0.264 N 
ATOM     11  C   UNL     1      18.548   9.059   3.584  0.00  0.00    -0.019 C 
ATOM     12  C   UNL     1      18.865   8.599   5.074  0.00  0.00    +0.011 C 
ATOM     13  C   UNL     1      20.229   9.087   5.700  0.00  0.00    +0.021 C 
ATOM     14  C   UNL     1      17.384   8.123   3.015  0.00  0.00    +0.054 C 
ATOM     15  C   UNL     1      19.809   8.860   2.703  0.00  0.00    +0.010 C 
ATOM     16  C   UNL     1      21.374   8.857   4.672  0.00  0.00    +0.123 C 
ATOM     17  C   UNL     1      17.637   8.809   6.008  0.00  0.00    +0.049 C 
ATOM     18  C   UNL     1      21.078   9.451   3.300  0.00  0.00    +0.032 C 
ATOM     19  C   UNL     1      18.108  10.542   3.492  0.00  0.00    +0.012 C 
ATOM     20  C   UNL     1      16.264   7.985   4.015  0.00  0.00    +0.058 A 
ATOM     22  C   UNL     1      20.551   8.222   6.951  0.00  0.00    +0.016 C 
ATOM     23  C   UNL     1      16.405   8.281   5.355  0.00  0.00    +0.015 A 
ATOM     26  C   UNL     1      14.249   7.460   4.709  0.00  0.00    +0.165 A 
ATOM     27  C   UNL     1      12.149   6.577   3.721  0.00  0.00    +0.222 C 
ATOM     45  H   UNL     1      12.527   7.141   5.702  0.00  0.00    +0.157 HD
ENDROOT
BRANCH  27  29
ATOM     29  C   UNL     1      10.768   6.218   4.180  0.00  0.00    +0.075 C 
ATOM     30  C   UNL     1       9.800   7.363   3.870  0.00  0.00    +0.013 C 
ATOM     31  C   UNL     1      10.786   5.890   5.676  0.00  0.00    +0.013 C 
ATOM     32  C   UNL     1       8.400   7.078   4.407  0.00  0.00    +0.001 C 
ATOM     33  C   UNL     1       9.383   5.609   6.208  0.00  0.00    +0.001 C 
ATOM     34  C   UNL     1       8.423   6.754   5.897  0.00  0.00    +0.000 C 
ENDBRANCH  27  29
BRANCH  16   2
ATOM      2  O   UNL     1      22.600   9.405   5.156  0.00  0.00    -0.391 OA
ATOM     42  H   UNL     1      22.903  10.073   4.518  0.00  0.00    +0.210 HD
ENDBRANCH  16   2
BRANCH  13  21
ATOM     21  C   UNL     1      20.220  10.549   6.196  0.00  0.00    +0.165 C 
BRANCH  21   3
ATOM      3  O   UNL     1      21.020  10.616   7.355  0.00  0.00    -0.394 OA
ATOM     43  H   UNL     1      20.468  10.950   8.083  0.00  0.00    +0.209 HD
ENDBRANCH  21   3
ENDBRANCH  13  21
BRANCH  14  24
ATOM     24  C   UNL     1      16.857   8.530   1.633  0.00  0.00    +0.106 C 
BRANCH  24  25
ATOM      4  O   UNL     1      17.747   7.418  -0.323  0.00  0.00    -0.276 OA
ATOM      9  N   UNL     1      16.090   6.379   0.932  0.00  0.00    -0.311 N 
ATOM     25  C   UNL     1      16.972   7.405   0.630  0.00  0.00    +0.214 C 
ATOM     44  H   UNL     1      15.531   6.429   1.778  0.00  0.00    +0.149 HD
BRANCH   9  28
ATOM     28  C   UNL     1      15.979   5.175   0.141  0.00  0.00    +0.139 C 
BRANCH  28  35
ATOM      6  O   UNL     1      11.426   5.828  -1.654  0.00  0.00    -0.453 OA
ATOM      7  O   UNL     1      10.567   3.897  -0.497  0.00  0.00    -0.453 OA
ATOM     35  C   UNL     1      14.534   4.803  -0.007  0.00  0.00    -0.027 A 
ATOM     36  C   UNL     1      13.705   5.580  -0.814  0.00  0.00    +0.054 A 
ATOM     37  C   UNL     1      14.040   3.677   0.669  0.00  0.00    +0.009 A 
ATOM     38  C   UNL     1      12.382   5.198  -0.919  0.00  0.00    +0.167 A 
ATOM     39  C   UNL     1      12.696   3.313   0.545  0.00  0.00    +0.050 A 
ATOM     40  C   UNL     1      11.892   4.095  -0.258  0.00  0.00    +0.166 A 
ATOM     41  C   UNL     1      10.278   4.998  -1.381  0.00  0.00    +0.466 C 
ENDBRANCH  28  35
ENDBRANCH   9  28
ENDBRANCH  24  25
ENDBRANCH  14  24
TORSDOF 8
ENDMDL
MODEL 2
REMARK VINA RESULT:      -7.3     16.258     20.716
REMARK  Name = 11882967
REMARK  10 active torsions:
REMARK  status: ('A' for Active; 'I' for Inactive)
REMARK    1  A    between atoms: O_2  and  C_16
REMARK    2  A    between atoms: O_3  and  C_21
REMARK    3  A    between atoms: N_9  and  C_28
REMARK    4  A    between atoms: C_11  and  C_19
REMARK    5  A    between atoms: C_13  and  C_21
REMARK    6  A    between atoms: C_13  and  C_22
REMARK    7  A    between atoms: C_14  and  C_24
REMARK    8  A    between atoms: C_24  and  C_25
REMARK    9  A    between atoms: C_27  and  C_29
REMARK   10  A    between atoms: C_28  and  C_35
REMARK                            x       y       z     vdW  Elec       q    Type
REMARK                         _______ _______ _______ _____ _____    ______ ____
ROOT
ATOM      1  S   UNL     1      17.944   6.153  19.986  0.00  0.00    -0.057 S 
ATOM      5  O   UNL     1      20.874   8.567  22.701  0.00  0.00    -0.275 OA
ATOM      8  N   UNL     1      18.205   8.292  21.418  0.00  0.00    -0.229 NA
ATOM     10  N   UNL     1      20.112   6.823  21.300  0.00  0.00    -0.264 N 
ATOM     11  C   UNL     1      14.733   9.401  20.159  0.00  0.00    -0.019 C 
ATOM     12  C   UNL     1      14.217   7.902  20.023  0.00  0.00    +0.011 C 
ATOM     13  C   UNL     1      12.786   7.692  19.394  0.00  0.00    +0.021 C 
ATOM     14  C   UNL     1      15.955   9.410  21.189  0.00  0.00    +0.054 C 
ATOM     15  C   UNL     1      13.600  10.287  20.739  0.00  0.00    +0.010 C 
ATOM     16  C   UNL     1      11.786   8.685  20.052  0.00  0.00    +0.123 C 
ATOM     17  C   UNL     1      15.310   6.976  19.416  0.00  0.00    +0.049 C 
ATOM     18  C   UNL     1      12.268  10.132  20.020  0.00  0.00    +0.032 C 
ATOM     19  C   UNL     1      15.194  10.004  18.808  0.00  0.00    +0.012 C 
ATOM     20  C   UNL     1      16.931   8.303  20.881  0.00  0.00    +0.058 A 
ATOM     22  C   UNL     1      12.292   6.255  19.723  0.00  0.00    +0.016 C 
ATOM     23  C   UNL     1      16.615   7.211  20.099  0.00  0.00    +0.015 A 
ATOM     26  C   UNL     1      18.831   7.210  21.008  0.00  0.00    +0.165 A 
ATOM     27  C   UNL     1      21.037   7.506  22.109  0.00  0.00    +0.222 C 
ATOM     45  H   UNL     1      20.402   5.963  20.843  0.00  0.00    +0.157 HD
ENDROOT
BRANCH  27  29
ATOM     29  C   UNL     1      22.341   6.773  22.201  0.00  0.00    +0.075 C 
ATOM     30  C   UNL     1      22.710   6.187  20.835  0.00  0.00    +0.013 C 
ATOM     31  C   UNL     1      22.251   5.682  23.272  0.00  0.00    +0.013 C 
ATOM     32  C   UNL     1      23.984   5.351  20.905  0.00  0.00    +0.001 C 
ATOM     33  C   UNL     1      23.527   4.848  23.336  0.00  0.00    +0.001 C 
ATOM     34  C   UNL     1      23.888   4.265  21.972  0.00  0.00    +0.000 C 
ENDBRANCH  27  29
BRANCH  16   2
ATOM      2  O   UNL     1      10.511   8.611  19.415  0.00  0.00    -0.391 OA
ATOM     42  H   UNL     1      10.621   8.135  18.576  0.00  0.00    +0.210 HD
ENDBRANCH  16   2
BRANCH  13  21
ATOM     21  C   UNL     1      12.740   7.804  17.854  0.00  0.00    +0.165 C 
BRANCH  21   3
ATOM      3  O   UNL     1      11.715   6.954  17.390  0.00  0.00    -0.394 OA
ATOM     43  H   UNL     1      11.996   6.583  16.535  0.00  0.00    +0.209 HD
ENDBRANCH  21   3
ENDBRANCH  13  21
BRANCH  14  24
ATOM     24  C   UNL     1      16.666  10.763  21.323  0.00  0.00    +0.106 C 
BRANCH  24  25
ATOM      4  O   UNL     1      17.267  12.118  23.236  0.00  0.00    -0.276 OA
ATOM      9  N   UNL     1      15.225  11.009  23.212  0.00  0.00    -0.311 N 
ATOM     25  C   UNL     1      16.451  11.384  22.685  0.00  0.00    +0.214 C 
ATOM     44  H   UNL     1      14.588  10.448  22.655  0.00  0.00    +0.149 HD
BRANCH   9  28
ATOM     28  C   UNL     1      14.753  11.450  24.505  0.00  0.00    +0.139 C 
BRANCH  28  35
ATOM      6  O   UNL     1      11.388  14.209  22.173  0.00  0.00    -0.453 OA
ATOM      7  O   UNL     1       9.710  13.788  23.850  0.00  0.00    -0.453 OA
ATOM     35  C   UNL     1      13.392  12.059  24.362  0.00  0.00    -0.027 A 
ATOM     36  C   UNL     1      13.112  12.864  23.258  0.00  0.00    +0.054 A 
ATOM     37  C   UNL     1      12.418  11.811  25.341  0.00  0.00    +0.009 A 
ATOM     38  C   UNL     1      11.844  13.403  23.169  0.00  0.00    +0.167 A 
ATOM     39  C   UNL     1      11.142  12.370  25.228  0.00  0.00    +0.050 A 
ATOM     40  C   UNL     1      10.886  13.162  24.128  0.00  0.00    +0.166 A 
ATOM     41  C   UNL     1      10.034  14.448  22.611  0.00  0.00    +0.466 C 
ENDBRANCH  28  35
ENDBRANCH   9  28
ENDBRANCH  24  25
ENDBRANCH  14  24
TORSDOF 8
ENDMDL
MODEL 3
REMARK VINA RESULT:      -7.3     13.844     16.954
REMARK  Name = 11882967
REMARK  10 active torsions:
REMARK  status: ('A' for Active; 'I' for Inactive)
REMARK    1  A    between atoms: O_2  and  C_16
REMARK    2  A    between atoms: O_3  and  C_21
REMARK    3  A    between atoms: N_9  and  C_28
REMARK    4  A    between atoms: C_11  and  C_19
REMARK    5  A    between atoms: C_13  and  C_21
REMARK    6  A    between atoms: C_13  and  C_22
REMARK    7  A    between atoms: C_14  and  C_24
REMARK    8  A    between atoms: C_24  and  C_25
REMARK    9  A    between atoms: C_27  and  C_29
REMARK   10  A    between atoms: C_28  and  C_35
REMARK                            x       y       z     vdW  Elec       q    Type
REMARK                         _______ _______ _______ _____ _____    ______ ____
ROOT
ATOM      1  S   UNL     1      14.454  13.816  19.707  0.00  0.00    -0.057 S 
ATOM      5  O   UNL     1      11.565  10.330  20.839  0.00  0.00    -0.275 OA
ATOM      8  N   UNL     1      13.516  11.530  18.941  0.00  0.00    -0.229 NA
ATOM     10  N   UNL     1      12.711  12.387  21.045  0.00  0.00    -0.264 N 
ATOM     11  C   UNL     1      15.399  12.019  15.612  0.00  0.00    -0.019 C 
ATOM     12  C   UNL     1      16.562  12.856  16.302  0.00  0.00    +0.011 C 
ATOM     13  C   UNL     1      17.657  13.479  15.352  0.00  0.00    +0.021 C 
ATOM     14  C   UNL     1      14.687  11.139  16.741  0.00  0.00    +0.054 C 
ATOM     15  C   UNL     1      16.009  11.058  14.559  0.00  0.00    +0.010 C 
ATOM     16  C   UNL     1      18.125  12.400  14.334  0.00  0.00    +0.123 C 
ATOM     17  C   UNL     1      15.997  13.860  17.349  0.00  0.00    +0.049 C 
ATOM     18  C   UNL     1      16.971  11.734  13.592  0.00  0.00    +0.032 C 
ATOM     19  C   UNL     1      14.344  12.914  14.915  0.00  0.00    +0.012 C 
ATOM     20  C   UNL     1      14.394  11.967  17.966  0.00  0.00    +0.058 A 
ATOM     22  C   UNL     1      18.896  13.882  16.200  0.00  0.00    +0.016 C 
ATOM     23  C   UNL     1      15.006  13.175  18.228  0.00  0.00    +0.015 A 
ATOM     26  C   UNL     1      13.463  12.427  19.901  0.00  0.00    +0.165 A 
ATOM     27  C   UNL     1      11.827  11.367  21.438  0.00  0.00    +0.222 C 
ATOM     45  H   UNL     1      12.801  13.210  21.633  0.00  0.00    +0.157 HD
ENDROOT
BRANCH  27  29
ATOM     29  C   UNL     1      11.181  11.670  22.757  0.00  0.00    +0.075 C 
ATOM     30  C   UNL     1      10.633  13.099  22.754  0.00  0.00    +0.013 C 
ATOM     31  C   UNL     1      12.188  11.458  23.891  0.00  0.00    +0.013 C 
ATOM     32  C   UNL     1      10.051  13.482  24.112  0.00  0.00    +0.001 C 
ATOM     33  C   UNL     1      11.601  11.845  25.245  0.00  0.00    +0.001 C 
ATOM     34  C   UNL     1      11.058  13.272  25.237  0.00  0.00    +0.000 C 
ENDBRANCH  27  29
BRANCH  16   2
ATOM      2  O   UNL     1      19.020  12.966  13.378  0.00  0.00    -0.391 OA
ATOM     42  H   UNL     1      19.622  12.266  13.077  0.00  0.00    +0.210 HD
ENDBRANCH  16   2
BRANCH  13  21
ATOM     21  C   UNL     1      17.216  14.768  14.624  0.00  0.00    +0.165 C 
BRANCH  21   3
ATOM      3  O   UNL     1      18.356  15.578  14.451  0.00  0.00    -0.394 OA
ATOM     43  H   UNL     1      18.359  15.903  13.534  0.00  0.00    +0.209 HD
ENDBRANCH  21   3
ENDBRANCH  13  21
BRANCH  14  24
ATOM     24  C   UNL     1      13.442  10.378  16.267  0.00  0.00    +0.106 C 
BRANCH  24  25
ATOM      4  O   UNL     1      13.926   8.045  15.844  0.00  0.00    -0.276 OA
ATOM      9  N   UNL     1      13.045   8.679  17.899  0.00  0.00    -0.311 N 
ATOM     25  C   UNL     1      13.511   8.908  16.614  0.00  0.00    +0.214 C 
ATOM     44  H   UNL     1      12.780   9.465  18.485  0.00  0.00    +0.149 HD
BRANCH   9  28
ATOM     28  C   UNL     1      12.990   7.365  18.497  0.00  0.00    +0.139 C 
BRANCH  28  35
ATOM      6  O   UNL     1      17.724   6.120  19.142  0.00  0.00    -0.453 OA
ATOM      7  O   UNL     1      17.622   6.503  21.518  0.00  0.00    -0.453 OA
ATOM     35  C   UNL     1      14.212   7.145  19.337  0.00  0.00    -0.027 A 
ATOM     36  C   UNL     1      15.393   6.720  18.732  0.00  0.00    +0.054 A 
ATOM     37  C   UNL     1      14.147   7.369  20.720  0.00  0.00    +0.009 A 
ATOM     38  C   UNL     1      16.492   6.531  19.546  0.00  0.00    +0.167 A 
ATOM     39  C   UNL     1      15.274   7.169  21.523  0.00  0.00    +0.050 A 
ATOM     40  C   UNL     1      16.433   6.750  20.904  0.00  0.00    +0.166 A 
ATOM     41  C   UNL     1      18.435   6.106  20.397  0.00  0.00    +0.466 C 
ENDBRANCH  28  35
ENDBRANCH   9  28
ENDBRANCH  24  25
ENDBRANCH  14  24
TORSDOF 8
ENDMDL
MODEL 4
REMARK VINA RESULT:      -7.1     17.243     20.998
REMARK  Name = 11882967
REMARK  10 active torsions:
REMARK  status: ('A' for Active; 'I' for Inactive)
REMARK    1  A    between atoms: O_2  and  C_16
REMARK    2  A    between atoms: O_3  and  C_21
REMARK    3  A    between atoms: N_9  and  C_28
REMARK    4  A    between atoms: C_11  and  C_19
REMARK    5  A    between atoms: C_13  and  C_21
REMARK    6  A    between atoms: C_13  and  C_22
REMARK    7  A    between atoms: C_14  and  C_24
REMARK    8  A    between atoms: C_24  and  C_25
REMARK    9  A    between atoms: C_27  and  C_29
REMARK   10  A    between atoms: C_28  and  C_35
REMARK                            x       y       z     vdW  Elec       q    Type
REMARK                         _______ _______ _______ _____ _____    ______ ____
ROOT
ATOM      1  S   UNL     1      16.903   5.847  19.855  0.00  0.00    -0.057 S 
ATOM      5  O   UNL     1      21.142   7.353  21.100  0.00  0.00    -0.275 OA
ATOM      8  N   UNL     1      18.214   7.828  20.882  0.00  0.00    -0.229 NA
ATOM     10  N   UNL     1      19.496   5.890  20.242  0.00  0.00    -0.264 N 
ATOM     11  C   UNL     1      14.934   9.855  20.834  0.00  0.00    -0.019 C 
ATOM     12  C   UNL     1      14.037   8.557  21.039  0.00  0.00    +0.011 C 
ATOM     13  C   UNL     1      12.473   8.751  20.983  0.00  0.00    +0.021 C 
ATOM     14  C   UNL     1      16.408   9.524  21.357  0.00  0.00    +0.054 C 
ATOM     15  C   UNL     1      14.364  11.017  21.686  0.00  0.00    +0.010 C 
ATOM     16  C   UNL     1      12.078   9.980  21.851  0.00  0.00    +0.123 C 
ATOM     17  C   UNL     1      14.552   7.367  20.178  0.00  0.00    +0.049 C 
ATOM     18  C   UNL     1      12.869  11.238  21.507  0.00  0.00    +0.032 C 
ATOM     19  C   UNL     1      15.003  10.311  19.355  0.00  0.00    +0.012 C 
ATOM     20  C   UNL     1      16.881   8.191  20.834  0.00  0.00    +0.058 A 
ATOM     22  C   UNL     1      11.784   7.505  21.606  0.00  0.00    +0.016 C 
ATOM     23  C   UNL     1      16.030   7.232  20.327  0.00  0.00    +0.015 A 
ATOM     26  C   UNL     1      18.344   6.617  20.386  0.00  0.00    +0.165 A 
ATOM     27  C   UNL     1      20.796   6.289  20.598  0.00  0.00    +0.222 C 
ATOM     45  H   UNL     1      19.366   4.985  19.799  0.00  0.00    +0.157 HD
ENDROOT
BRANCH  27  29
ATOM     29  C   UNL     1      21.806   5.225  20.293  0.00  0.00    +0.075 C 
ATOM     30  C   UNL     1      21.523   3.978  21.137  0.00  0.00    +0.013 C 
ATOM     31  C   UNL     1      23.219   5.760  20.542  0.00  0.00    +0.013 C 
ATOM     32  C   UNL     1      22.585   2.903  20.928  0.00  0.00    +0.001 C 
ATOM     33  C   UNL     1      24.277   4.679  20.334  0.00  0.00    +0.001 C 
ATOM     34  C   UNL     1      23.990   3.441  21.179  0.00  0.00    +0.000 C 
ENDBRANCH  27  29
BRANCH  16   2
ATOM      2  O   UNL     1      10.685  10.263  21.719  0.00  0.00    -0.391 OA
ATOM     42  H   UNL     1      10.360   9.807  20.925  0.00  0.00    +0.210 HD
ENDBRANCH  16   2
BRANCH  13  21
ATOM     21  C   UNL     1      11.893   8.876  19.557  0.00  0.00    +0.165 C 
BRANCH  21   3
ATOM      3  O   UNL     1      10.555   8.436  19.594  0.00  0.00    -0.394 OA
ATOM     43  H   UNL     1      10.361   8.140  20.500  0.00  0.00    +0.209 HD
ENDBRANCH  21   3
ENDBRANCH  13  21
BRANCH  14  24
ATOM     24  C   UNL     1      17.441  10.628  21.095  0.00  0.00    +0.106 C 
BRANCH  24  25
ATOM      4  O   UNL     1      17.858  12.123  22.952  0.00  0.00    -0.276 OA
ATOM      9  N   UNL     1      19.082  10.156  22.765  0.00  0.00    -0.311 N 
ATOM     25  C   UNL     1      18.125  11.076  22.366  0.00  0.00    +0.214 C 
ATOM     44  H   UNL     1      19.189   9.287  22.251  0.00  0.00    +0.149 HD
BRANCH   9  28
ATOM     28  C   UNL     1      19.896  10.325  23.947  0.00  0.00    +0.139 C 
BRANCH  28  35
ATOM      6  O   UNL     1      21.454   5.700  24.692  0.00  0.00    -0.453 OA
ATOM      7  O   UNL     1      23.733   6.254  24.139  0.00  0.00    -0.453 OA
ATOM     35  C   UNL     1      20.950   9.260  23.987  0.00  0.00    -0.027 A 
ATOM     36  C   UNL     1      20.598   7.959  24.345  0.00  0.00    +0.054 A 
ATOM     37  C   UNL     1      22.275   9.588  23.664  0.00  0.00    +0.009 A 
ATOM     38  C   UNL     1      21.602   7.013  24.368  0.00  0.00    +0.167 A 
ATOM     39  C   UNL     1      23.273   8.610  23.696  0.00  0.00    +0.050 A 
ATOM     40  C   UNL     1      22.904   7.330  24.053  0.00  0.00    +0.166 A 
ATOM     41  C   UNL     1      22.808   5.225  24.544  0.00  0.00    +0.466 C 
ENDBRANCH  28  35
ENDBRANCH   9  28
ENDBRANCH  24  25
ENDBRANCH  14  24
TORSDOF 8
ENDMDL
MODEL 5
REMARK VINA RESULT:      -7.1     27.022     32.333
REMARK  Name = 11882967
REMARK  10 active torsions:
REMARK  status: ('A' for Active; 'I' for Inactive)
REMARK    1  A    between atoms: O_2  and  C_16
REMARK    2  A    between atoms: O_3  and  C_21
REMARK    3  A    between atoms: N_9  and  C_28
REMARK    4  A    between atoms: C_11  and  C_19
REMARK    5  A    between atoms: C_13  and  C_21
REMARK    6  A    between atoms: C_13  and  C_22
REMARK    7  A    between atoms: C_14  and  C_24
REMARK    8  A    between atoms: C_24  and  C_25
REMARK    9  A    between atoms: C_27  and  C_29
REMARK   10  A    between atoms: C_28  and  C_35
REMARK                            x       y       z     vdW  Elec       q    Type
REMARK                         _______ _______ _______ _____ _____    ______ ____
ROOT
ATOM      1  S   UNL     1      -9.523  -9.910  12.814  0.00  0.00    -0.057 S 
ATOM      5  O   UNL     1      -4.921 -10.160  13.555  0.00  0.00    -0.275 OA
ATOM      8  N   UNL     1      -7.687  -9.995  14.636  0.00  0.00    -0.229 NA
ATOM     10  N   UNL     1      -6.948 -10.056  12.343  0.00  0.00    -0.264 N 
ATOM     11  C   UNL     1     -10.449  -9.415  17.263  0.00  0.00    -0.019 C 
ATOM     12  C   UNL     1     -11.546 -10.171  16.392  0.00  0.00    +0.011 C 
ATOM     13  C   UNL     1     -13.026 -10.160  16.937  0.00  0.00    +0.021 C 
ATOM     14  C   UNL     1      -9.009  -9.914  16.783  0.00  0.00    +0.054 C 
ATOM     15  C   UNL     1     -10.624  -9.795  18.756  0.00  0.00    +0.010 C 
ATOM     16  C   UNL     1     -13.016 -10.516  18.452  0.00  0.00    +0.123 C 
ATOM     17  C   UNL     1     -11.432  -9.798  14.885  0.00  0.00    +0.049 C 
ATOM     18  C   UNL     1     -12.053  -9.657  19.264  0.00  0.00    +0.032 C 
ATOM     19  C   UNL     1     -10.531  -7.874  17.130  0.00  0.00    +0.012 C 
ATOM     20  C   UNL     1      -8.908  -9.911  15.279  0.00  0.00    +0.058 A 
ATOM     22  C   UNL     1     -13.843 -11.264  16.210  0.00  0.00    +0.016 C 
ATOM     23  C   UNL     1     -10.008  -9.876  14.447  0.00  0.00    +0.015 A 
ATOM     26  C   UNL     1      -7.889  -9.995  13.336  0.00  0.00    +0.165 A 
ATOM     27  C   UNL     1      -5.554 -10.133  12.504  0.00  0.00    +0.222 C 
ATOM     45  H   UNL     1      -7.330 -10.006  11.403  0.00  0.00    +0.157 HD
ENDROOT
BRANCH  27  29
ATOM     29  C   UNL     1      -4.844 -10.187  11.185  0.00  0.00    +0.075 C 
ATOM     30  C   UNL     1      -4.715  -8.777  10.602  0.00  0.00    +0.013 C 
ATOM     31  C   UNL     1      -5.592 -11.122  10.230  0.00  0.00    +0.013 C 
ATOM     32  C   UNL     1      -4.082  -8.797   9.214  0.00  0.00    +0.001 C 
ATOM     33  C   UNL     1      -4.956 -11.135   8.842  0.00  0.00    +0.001 C 
ATOM     34  C   UNL     1      -4.832  -9.727   8.266  0.00  0.00    +0.000 C 
ENDBRANCH  27  29
BRANCH  16   2
ATOM      2  O   UNL     1     -14.324 -10.389  19.007  0.00  0.00    -0.391 OA
ATOM     42  H   UNL     1     -14.942 -10.200  18.281  0.00  0.00    +0.210 HD
ENDBRANCH  16   2
BRANCH  13  21
ATOM     21  C   UNL     1     -13.793  -8.843  16.687  0.00  0.00    +0.165 C 
BRANCH  21   3
ATOM      3  O   UNL     1     -15.160  -9.158  16.552  0.00  0.00    -0.394 OA
ATOM     43  H   UNL     1     -15.292  -9.556  15.673  0.00  0.00    +0.209 HD
ENDBRANCH  21   3
ENDBRANCH  13  21
BRANCH  14  24
ATOM     24  C   UNL     1      -7.830  -9.172  17.426  0.00  0.00    +0.106 C 
BRANCH  24  25
ATOM      4  O   UNL     1      -7.108 -10.628  19.219  0.00  0.00    -0.276 OA
ATOM      9  N   UNL     1      -5.733 -10.315  17.371  0.00  0.00    -0.311 N 
ATOM     25  C   UNL     1      -6.879 -10.116  18.125  0.00  0.00    +0.214 C 
ATOM     44  H   UNL     1      -5.660  -9.898  16.448  0.00  0.00    +0.149 HD
BRANCH   9  28
ATOM     28  C   UNL     1      -4.647 -11.169  17.794  0.00  0.00    +0.139 C 
BRANCH  28  35
ATOM      6  O   UNL     1      -3.365 -13.878  13.871  0.00  0.00    -0.453 OA
ATOM      7  O   UNL     1      -1.465 -12.479  13.380  0.00  0.00    -0.453 OA
ATOM     35  C   UNL     1      -3.773 -11.490  16.620  0.00  0.00    -0.027 A 
ATOM     36  C   UNL     1      -4.071 -12.595  15.825  0.00  0.00    +0.054 A 
ATOM     37  C   UNL     1      -2.669 -10.672  16.339  0.00  0.00    +0.009 A 
ATOM     38  C   UNL     1      -3.238 -12.851  14.754  0.00  0.00    +0.167 A 
ATOM     39  C   UNL     1      -1.840 -10.953  15.248  0.00  0.00    +0.050 A 
ATOM     40  C   UNL     1      -2.153 -12.052  14.474  0.00  0.00    +0.166 A 
ATOM     41  C   UNL     1      -2.238 -13.635  13.003  0.00  0.00    +0.466 C 
ENDBRANCH  28  35
ENDBRANCH   9  28
ENDBRANCH  24  25
ENDBRANCH  14  24
TORSDOF 8
ENDMDL
MODEL 6
REMARK VINA RESULT:      -7.0     13.657     16.520
REMARK  Name = 11882967
REMARK  10 active torsions:
REMARK  status: ('A' for Active; 'I' for Inactive)
REMARK    1  A    between atoms: O_2  and  C_16
REMARK    2  A    between atoms: O_3  and  C_21
REMARK    3  A    between atoms: N_9  and  C_28
REMARK    4  A    between atoms: C_11  and  C_19
REMARK    5  A    between atoms: C_13  and  C_21
REMARK    6  A    between atoms: C_13  and  C_22
REMARK    7  A    between atoms: C_14  and  C_24
REMARK    8  A    between atoms: C_24  and  C_25
REMARK    9  A    between atoms: C_27  and  C_29
REMARK   10  A    between atoms: C_28  and  C_35
REMARK                            x       y       z     vdW  Elec       q    Type
REMARK                         _______ _______ _______ _____ _____    ______ ____
ROOT
ATOM      1  S   UNL     1      16.694  13.290  20.021  0.00  0.00    -0.057 S 
ATOM      5  O   UNL     1      12.514  11.246  20.391  0.00  0.00    -0.275 OA
ATOM      8  N   UNL     1      14.853  12.018  18.723  0.00  0.00    -0.229 NA
ATOM     10  N   UNL     1      14.455  12.414  21.066  0.00  0.00    -0.264 N 
ATOM     11  C   UNL     1      16.854  12.681  15.494  0.00  0.00    -0.019 C 
ATOM     12  C   UNL     1      18.248  12.659  16.260  0.00  0.00    +0.011 C 
ATOM     13  C   UNL     1      19.534  13.013  15.418  0.00  0.00    +0.021 C 
ATOM     14  C   UNL     1      15.790  11.887  16.384  0.00  0.00    +0.054 C 
ATOM     15  C   UNL     1      16.999  11.945  14.137  0.00  0.00    +0.010 C 
ATOM     16  C   UNL     1      19.498  12.228  14.075  0.00  0.00    +0.123 C 
ATOM     17  C   UNL     1      18.163  13.414  17.619  0.00  0.00    +0.049 C 
ATOM     18  C   UNL     1      18.191  12.406  13.310  0.00  0.00    +0.032 C 
ATOM     19  C   UNL     1      16.335  14.116  15.228  0.00  0.00    +0.012 C 
ATOM     20  C   UNL     1      15.863  12.318  17.827  0.00  0.00    +0.058 A 
ATOM     22  C   UNL     1      20.796  12.542  16.194  0.00  0.00    +0.016 C 
ATOM     23  C   UNL     1      16.944  12.986  18.364  0.00  0.00    +0.015 A 
ATOM     26  C   UNL     1      15.180  12.489  19.907  0.00  0.00    +0.165 A 
ATOM     27  C   UNL     1      13.196  11.813  21.238  0.00  0.00    +0.222 C 
ATOM     45  H   UNL     1      14.888  12.880  21.859  0.00  0.00    +0.157 HD
ENDROOT
BRANCH  27  29
ATOM     29  C   UNL     1      12.716  11.925  22.653  0.00  0.00    +0.075 C 
ATOM     30  C   UNL     1      11.500  11.019  22.867  0.00  0.00    +0.013 C 
ATOM     31  C   UNL     1      12.390  13.385  22.979  0.00  0.00    +0.013 C 
ATOM     32  C   UNL     1      10.921  11.174  24.270  0.00  0.00    +0.001 C 
ATOM     33  C   UNL     1      11.808  13.534  24.382  0.00  0.00    +0.001 C 
ATOM     34  C   UNL     1      10.595  12.630  24.588  0.00  0.00    +0.000 C 
ENDBRANCH  27  29
BRANCH  16   2
ATOM      2  O   UNL     1      20.581  12.624  13.233  0.00  0.00    -0.391 OA
ATOM     42  H   UNL     1      21.374  12.141  13.517  0.00  0.00    +0.210 HD
ENDBRANCH  16   2
BRANCH  13  21
ATOM     21  C   UNL     1      19.741  14.523  15.167  0.00  0.00    +0.165 C 
BRANCH  21   3
ATOM      3  O   UNL     1      21.129  14.771  15.147  0.00  0.00    -0.394 OA
ATOM     43  H   UNL     1      21.269  15.666  14.792  0.00  0.00    +0.209 HD
ENDBRANCH  21   3
ENDBRANCH  13  21
BRANCH  14  24
ATOM     24  C   UNL     1      14.351  11.939  15.855  0.00  0.00    +0.106 C 
BRANCH  24  25
ATOM      4  O   UNL     1      12.919  10.289  14.812  0.00  0.00    -0.276 OA
ATOM      9  N   UNL     1      14.320   9.655  16.555  0.00  0.00    -0.311 N 
ATOM     25  C   UNL     1      13.769  10.557  15.658  0.00  0.00    +0.214 C 
ATOM     44  H   UNL     1      15.064   9.956  17.178  0.00  0.00    +0.149 HD
BRANCH   9  28
ATOM     28  C   UNL     1      13.949   8.259  16.601  0.00  0.00    +0.139 C 
BRANCH  28  35
ATOM      6  O   UNL     1      10.641   8.072  20.260  0.00  0.00    -0.453 OA
ATOM      7  O   UNL     1      12.182   6.978  21.754  0.00  0.00    -0.453 OA
ATOM     35  C   UNL     1      13.510   7.901  17.988  0.00  0.00    -0.027 A 
ATOM     36  C   UNL     1      12.213   8.206  18.398  0.00  0.00    +0.054 A 
ATOM     37  C   UNL     1      14.412   7.264  18.854  0.00  0.00    +0.009 A 
ATOM     38  C   UNL     1      11.854   7.857  19.684  0.00  0.00    +0.167 A 
ATOM     39  C   UNL     1      14.023   6.922  20.152  0.00  0.00    +0.050 A 
ATOM     40  C   UNL     1      12.735   7.232  20.537  0.00  0.00    +0.166 A 
ATOM     41  C   UNL     1      10.856   7.512  21.572  0.00  0.00    +0.466 C 
ENDBRANCH  28  35
ENDBRANCH   9  28
ENDBRANCH  24  25
ENDBRANCH  14  24
TORSDOF 8
ENDMDL
MODEL 7
REMARK VINA RESULT:      -6.9     27.009     30.183
REMARK  Name = 11882967
REMARK  10 active torsions:
REMARK  status: ('A' for Active; 'I' for Inactive)
REMARK    1  A    between atoms: O_2  and  C_16
REMARK    2  A    between atoms: O_3  and  C_21
REMARK    3  A    between atoms: N_9  and  C_28
REMARK    4  A    between atoms: C_11  and  C_19
REMARK    5  A    between atoms: C_13  and  C_21
REMARK    6  A    between atoms: C_13  and  C_22
REMARK    7  A    between atoms: C_14  and  C_24
REMARK    8  A    between atoms: C_24  and  C_25
REMARK    9  A    between atoms: C_27  and  C_29
REMARK   10  A    between atoms: C_28  and  C_35
REMARK                            x       y       z     vdW  Elec       q    Type
REMARK                         _______ _______ _______ _____ _____    ______ ____
ROOT
ATOM      1  S   UNL     1      -4.303  -9.243   9.344  0.00  0.00    -0.057 S 
ATOM      5  O   UNL     1      -8.855  -8.536   8.590  0.00  0.00    -0.275 OA
ATOM      8  N   UNL     1      -6.664  -9.455  10.380  0.00  0.00    -0.229 NA
ATOM     10  N   UNL     1      -6.534  -8.563   8.145  0.00  0.00    -0.264 N 
ATOM     11  C   UNL     1      -5.043 -11.248  13.384  0.00  0.00    -0.019 C 
ATOM     12  C   UNL     1      -3.683 -10.435  13.237  0.00  0.00    +0.011 C 
ATOM     13  C   UNL     1      -2.497 -10.843  14.193  0.00  0.00    +0.021 C 
ATOM     14  C   UNL     1      -6.200 -10.409  12.669  0.00  0.00    +0.054 C 
ATOM     15  C   UNL     1      -5.400 -11.389  14.887  0.00  0.00    +0.010 C 
ATOM     16  C   UNL     1      -3.036 -10.985  15.646  0.00  0.00    +0.123 C 
ATOM     17  C   UNL     1      -3.264 -10.293  11.744  0.00  0.00    +0.049 C 
ATOM     18  C   UNL     1      -4.253 -11.897  15.748  0.00  0.00    +0.032 C 
ATOM     19  C   UNL     1      -4.970 -12.663  12.757  0.00  0.00    +0.012 C 
ATOM     20  C   UNL     1      -5.757  -9.924  11.313  0.00  0.00    +0.058 A 
ATOM     22  C   UNL     1      -1.438  -9.706  14.202  0.00  0.00    +0.016 C 
ATOM     23  C   UNL     1      -4.434  -9.863  10.925  0.00  0.00    +0.015 A 
ATOM     26  C   UNL     1      -6.012  -9.078   9.303  0.00  0.00    +0.165 A 
ATOM     27  C   UNL     1      -7.890  -8.328   7.862  0.00  0.00    +0.222 C 
ATOM     45  H   UNL     1      -5.843  -8.373   7.425  0.00  0.00    +0.157 HD
ENDROOT
BRANCH  27  29
ATOM     29  C   UNL     1      -8.079  -7.753   6.491  0.00  0.00    +0.075 C 
ATOM     30  C   UNL     1      -9.569  -7.713   6.141  0.00  0.00    +0.013 C 
ATOM     31  C   UNL     1      -7.286  -8.572   5.469  0.00  0.00    +0.013 C 
ATOM     32  C   UNL     1      -9.801  -7.223   4.715  0.00  0.00    +0.001 C 
ATOM     33  C   UNL     1      -7.524  -8.079   4.044  0.00  0.00    +0.001 C 
ATOM     34  C   UNL     1      -9.011  -8.043   3.701  0.00  0.00    +0.000 C 
ENDBRANCH  27  29
BRANCH  16   2
ATOM      2  O   UNL     1      -2.017 -11.479  16.514  0.00  0.00    -0.391 OA
ATOM     42  H   UNL     1      -2.294 -12.351  16.838  0.00  0.00    +0.210 HD
ENDBRANCH  16   2
BRANCH  13  21
ATOM     21  C   UNL     1      -1.735 -12.116  13.762  0.00  0.00    +0.165 C 
BRANCH  21   3
ATOM      3  O   UNL     1      -2.209 -13.189  14.544  0.00  0.00    -0.394 OA
ATOM     43  H   UNL     1      -3.172 -13.250  14.418  0.00  0.00    +0.209 HD
ENDBRANCH  21   3
ENDBRANCH  13  21
BRANCH  14  24
ATOM     24  C   UNL     1      -7.555 -11.126  12.594  0.00  0.00    +0.106 C 
BRANCH  24  25
ATOM      4  O   UNL     1      -9.365 -11.451  14.167  0.00  0.00    -0.276 OA
ATOM      9  N   UNL     1      -8.156  -9.467  14.204  0.00  0.00    -0.311 N 
ATOM     25  C   UNL     1      -8.468 -10.732  13.732  0.00  0.00    +0.214 C 
ATOM     44  H   UNL     1      -7.355  -8.972  13.823  0.00  0.00    +0.149 HD
BRANCH   9  28
ATOM     28  C   UNL     1      -8.867  -8.830  15.289  0.00  0.00    +0.139 C 
BRANCH  28  35
ATOM      6  O   UNL     1      -5.678 -10.384  18.722  0.00  0.00    -0.453 OA
ATOM      7  O   UNL     1      -7.427 -11.314  20.093  0.00  0.00    -0.453 OA
ATOM     35  C   UNL     1      -8.518  -9.502  16.582  0.00  0.00    -0.027 A 
ATOM     36  C   UNL     1      -7.183  -9.581  16.976  0.00  0.00    +0.054 A 
ATOM     37  C   UNL     1      -9.541 -10.042  17.376  0.00  0.00    +0.009 A 
ATOM     38  C   UNL     1      -6.911 -10.209  18.175  0.00  0.00    +0.167 A 
ATOM     39  C   UNL     1      -9.237 -10.673  18.586  0.00  0.00    +0.050 A 
ATOM     40  C   UNL     1      -7.910 -10.740  18.958  0.00  0.00    +0.166 A 
ATOM     41  C   UNL     1      -6.013 -11.084  19.938  0.00  0.00    +0.466 C 
ENDBRANCH  28  35
ENDBRANCH   9  28
ENDBRANCH  24  25
ENDBRANCH  14  24
TORSDOF 8
ENDMDL
MODEL 8
REMARK VINA RESULT:      -6.9     25.222     28.565
REMARK  Name = 11882967
REMARK  10 active torsions:
REMARK  status: ('A' for Active; 'I' for Inactive)
REMARK    1  A    between atoms: O_2  and  C_16
REMARK    2  A    between atoms: O_3  and  C_21
REMARK    3  A    between atoms: N_9  and  C_28
REMARK    4  A    between atoms: C_11  and  C_19
REMARK    5  A    between atoms: C_13  and  C_21
REMARK    6  A    between atoms: C_13  and  C_22
REMARK    7  A    between atoms: C_14  and  C_24
REMARK    8  A    between atoms: C_24  and  C_25
REMARK    9  A    between atoms: C_27  and  C_29
REMARK   10  A    between atoms: C_28  and  C_35
REMARK                            x       y       z     vdW  Elec       q    Type
REMARK                         _______ _______ _______ _____ _____    ______ ____
ROOT
ATOM      1  S   UNL     1      17.103  -2.635  30.435  0.00  0.00    -0.057 S 
ATOM      5  O   UNL     1      19.578  -3.639  26.606  0.00  0.00    -0.275 OA
ATOM      8  N   UNL     1      17.450  -4.373  28.550  0.00  0.00    -0.229 NA
ATOM     10  N   UNL     1      18.862  -2.421  28.501  0.00  0.00    -0.264 N 
ATOM     11  C   UNL     1      14.930  -6.655  30.371  0.00  0.00    -0.019 C 
ATOM     12  C   UNL     1      14.116  -5.420  30.958  0.00  0.00    +0.011 C 
ATOM     13  C   UNL     1      12.942  -5.748  31.959  0.00  0.00    +0.021 C 
ATOM     14  C   UNL     1      15.739  -6.148  29.089  0.00  0.00    +0.054 C 
ATOM     15  C   UNL     1      13.939  -7.758  29.917  0.00  0.00    +0.010 C 
ATOM     16  C   UNL     1      12.076  -6.900  31.373  0.00  0.00    +0.123 C 
ATOM     17  C   UNL     1      15.070  -4.296  31.457  0.00  0.00    +0.049 C 
ATOM     18  C   UNL     1      12.896  -8.119  30.964  0.00  0.00    +0.032 C 
ATOM     19  C   UNL     1      15.918  -7.267  31.395  0.00  0.00    +0.012 C 
ATOM     20  C   UNL     1      16.447  -4.848  29.376  0.00  0.00    +0.058 A 
ATOM     22  C   UNL     1      12.023  -4.501  32.089  0.00  0.00    +0.016 C 
ATOM     23  C   UNL     1      16.118  -4.024  30.432  0.00  0.00    +0.015 A 
ATOM     26  C   UNL     1      17.874  -3.219  29.016  0.00  0.00    +0.165 A 
ATOM     27  C   UNL     1      19.637  -2.670  27.356  0.00  0.00    +0.222 C 
ATOM     45  H   UNL     1      19.049  -1.585  29.047  0.00  0.00    +0.157 HD
ENDROOT
BRANCH  27  29
ATOM     29  C   UNL     1      20.619  -1.567  27.100  0.00  0.00    +0.075 C 
ATOM     30  C   UNL     1      20.379  -0.964  25.713  0.00  0.00    +0.013 C 
ATOM     31  C   UNL     1      22.048  -2.098  27.239  0.00  0.00    +0.013 C 
ATOM     32  C   UNL     1      21.418   0.101  25.373  0.00  0.00    +0.001 C 
ATOM     33  C   UNL     1      23.083  -1.030  26.896  0.00  0.00    +0.001 C 
ATOM     34  C   UNL     1      22.840  -0.435  25.512  0.00  0.00    +0.000 C 
ENDBRANCH  27  29
BRANCH  16   2
ATOM      2  O   UNL     1      11.082  -7.309  32.312  0.00  0.00    -0.391 OA
ATOM     42  H   UNL     1      10.238  -6.905  32.052  0.00  0.00    +0.210 HD
ENDBRANCH  16   2
BRANCH  13  21
ATOM     21  C   UNL     1      13.398  -6.078  33.397  0.00  0.00    +0.165 C 
BRANCH  21   3
ATOM      3  O   UNL     1      12.470  -5.502  34.288  0.00  0.00    -0.394 OA
ATOM     43  H   UNL     1      11.595  -5.882  34.098  0.00  0.00    +0.209 HD
ENDBRANCH  21   3
ENDBRANCH  13  21
BRANCH  14  24
ATOM     24  C   UNL     1      16.695  -7.186  28.486  0.00  0.00    +0.106 C 
BRANCH  24  25
ATOM      4  O   UNL     1      15.636  -8.208  26.566  0.00  0.00    -0.276 OA
ATOM      9  N   UNL     1      17.245  -6.562  26.247  0.00  0.00    -0.311 N 
ATOM     25  C   UNL     1      16.444  -7.397  27.011  0.00  0.00    +0.214 C 
ATOM     44  H   UNL     1      17.840  -5.878  26.706  0.00  0.00    +0.149 HD
BRANCH   9  28
ATOM     28  C   UNL     1      17.222  -6.549  24.802  0.00  0.00    +0.139 C 
BRANCH  28  35
ATOM      6  O   UNL     1      16.543  -1.672  25.168  0.00  0.00    -0.453 OA
ATOM      7  O   UNL     1      17.666  -1.242  23.080  0.00  0.00    -0.453 OA
ATOM     35  C   UNL     1      17.359  -5.140  24.311  0.00  0.00    -0.027 A 
ATOM     36  C   UNL     1      16.835  -4.094  25.068  0.00  0.00    +0.054 A 
ATOM     37  C   UNL     1      18.014  -4.895  23.094  0.00  0.00    +0.009 A 
ATOM     38  C   UNL     1      16.986  -2.814  24.575  0.00  0.00    +0.167 A 
ATOM     39  C   UNL     1      18.153  -3.589  22.617  0.00  0.00    +0.050 A 
ATOM     40  C   UNL     1      17.628  -2.568  23.383  0.00  0.00    +0.166 A 
ATOM     41  C   UNL     1      16.978  -0.680  24.215  0.00  0.00    +0.466 C 
ENDBRANCH  28  35
ENDBRANCH   9  28
ENDBRANCH  24  25
ENDBRANCH  14  24
TORSDOF 8
ENDMDL
MODEL 9
REMARK VINA RESULT:      -6.8     28.237     31.282
REMARK  Name = 11882967
REMARK  10 active torsions:
REMARK  status: ('A' for Active; 'I' for Inactive)
REMARK    1  A    between atoms: O_2  and  C_16
REMARK    2  A    between atoms: O_3  and  C_21
REMARK    3  A    between atoms: N_9  and  C_28
REMARK    4  A    between atoms: C_11  and  C_19
REMARK    5  A    between atoms: C_13  and  C_21
REMARK    6  A    between atoms: C_13  and  C_22
REMARK    7  A    between atoms: C_14  and  C_24
REMARK    8  A    between atoms: C_24  and  C_25
REMARK    9  A    between atoms: C_27  and  C_29
REMARK   10  A    between atoms: C_28  and  C_35
REMARK                            x       y       z     vdW  Elec       q    Type
REMARK                         _______ _______ _______ _____ _____    ______ ____
ROOT
ATOM      1  S   UNL     1      -5.226 -10.886  12.586  0.00  0.00    -0.057 S 
ATOM      5  O   UNL     1      -8.294  -8.439  10.059  0.00  0.00    -0.275 OA
ATOM      8  N   UNL     1      -7.470  -9.600  12.670  0.00  0.00    -0.229 NA
ATOM     10  N   UNL     1      -6.352  -9.699  10.537  0.00  0.00    -0.264 N 
ATOM     11  C   UNL     1      -7.867 -10.792  16.315  0.00  0.00    -0.019 C 
ATOM     12  C   UNL     1      -6.295 -10.815  16.562  0.00  0.00    +0.011 C 
ATOM     13  C   UNL     1      -5.796 -11.376  17.949  0.00  0.00    +0.021 C 
ATOM     14  C   UNL     1      -8.160  -9.812  15.087  0.00  0.00    +0.054 C 
ATOM     15  C   UNL     1      -8.579 -10.226  17.571  0.00  0.00    +0.010 C 
ATOM     16  C   UNL     1      -6.642 -10.742  19.092  0.00  0.00    +0.123 C 
ATOM     17  C   UNL     1      -5.535 -11.405  15.338  0.00  0.00    +0.049 C 
ATOM     18  C   UNL     1      -8.144 -10.882  18.874  0.00  0.00    +0.032 C 
ATOM     19  C   UNL     1      -8.448 -12.194  16.005  0.00  0.00    +0.012 C 
ATOM     20  C   UNL     1      -7.221 -10.088  13.940  0.00  0.00    +0.058 A 
ATOM     22  C   UNL     1      -4.321 -10.940  18.172  0.00  0.00    +0.016 C 
ATOM     23  C   UNL     1      -6.041 -10.788  14.078  0.00  0.00    +0.015 A 
ATOM     26  C   UNL     1      -6.489  -9.966  11.874  0.00  0.00    +0.165 A 
ATOM     27  C   UNL     1      -7.240  -8.970   9.727  0.00  0.00    +0.222 C 
ATOM     45  H   UNL     1      -5.528 -10.112  10.112  0.00  0.00    +0.157 HD
ENDROOT
BRANCH  27  29
ATOM     29  C   UNL     1      -6.754  -8.882   8.311  0.00  0.00    +0.075 C 
ATOM     30  C   UNL     1      -7.908  -8.490   7.385  0.00  0.00    +0.013 C 
ATOM     31  C   UNL     1      -6.126 -10.214   7.892  0.00  0.00    +0.013 C 
ATOM     32  C   UNL     1      -7.479  -8.482   5.921  0.00  0.00    +0.001 C 
ATOM     33  C   UNL     1      -5.701 -10.200   6.426  0.00  0.00    +0.001 C 
ATOM     34  C   UNL     1      -6.857  -9.812   5.508  0.00  0.00    +0.000 C 
ENDBRANCH  27  29
BRANCH  16   2
ATOM      2  O   UNL     1      -6.303 -11.325  20.350  0.00  0.00    -0.391 OA
ATOM     42  H   UNL     1      -5.519 -11.884  20.221  0.00  0.00    +0.210 HD
ENDBRANCH  16   2
BRANCH  13  21
ATOM     21  C   UNL     1      -5.794 -12.916  18.055  0.00  0.00    +0.165 C 
BRANCH  21   3
ATOM      3  O   UNL     1      -4.535 -13.314  18.551  0.00  0.00    -0.394 OA
ATOM     43  H   UNL     1      -4.523 -13.148  19.509  0.00  0.00    +0.209 HD
ENDBRANCH  21   3
ENDBRANCH  13  21
BRANCH  14  24
ATOM     24  C   UNL     1      -9.622  -9.789  14.624  0.00  0.00    +0.106 C 
BRANCH  24  25
ATOM      4  O   UNL     1      -9.764  -7.577  15.595  0.00  0.00    -0.276 OA
ATOM      9  N   UNL     1     -11.605  -8.464  14.487  0.00  0.00    -0.311 N 
ATOM     25  C   UNL     1     -10.305  -8.485  14.968  0.00  0.00    +0.214 C 
ATOM     44  H   UNL     1     -11.945  -9.238  13.924  0.00  0.00    +0.149 HD
BRANCH   9  28
ATOM     28  C   UNL     1     -12.497  -7.343  14.672  0.00  0.00    +0.139 C 
BRANCH  28  35
ATOM      6  O   UNL     1     -12.347  -6.436   9.821  0.00  0.00    -0.453 OA
ATOM      7  O   UNL     1     -12.187  -4.055  10.153  0.00  0.00    -0.453 OA
ATOM     35  C   UNL     1     -12.413  -6.433  13.484  0.00  0.00    -0.027 A 
ATOM     36  C   UNL     1     -12.428  -6.975  12.201  0.00  0.00    +0.054 A 
ATOM     37  C   UNL     1     -12.320  -5.047  13.684  0.00  0.00    +0.009 A 
ATOM     38  C   UNL     1     -12.348  -6.097  11.138  0.00  0.00    +0.167 A 
ATOM     39  C   UNL     1     -12.240  -4.180  12.590  0.00  0.00    +0.050 A 
ATOM     40  C   UNL     1     -12.257  -4.737  11.328  0.00  0.00    +0.166 A 
ATOM     41  C   UNL     1     -12.246  -5.137   9.202  0.00  0.00    +0.466 C 
ENDBRANCH  28  35
ENDBRANCH   9  28
ENDBRANCH  24  25
ENDBRANCH  14  24
TORSDOF 8
ENDMDL
MODEL 10
REMARK VINA RESULT:      -6.8     30.711     34.831
REMARK  Name = 11882967
REMARK  10 active torsions:
REMARK  status: ('A' for Active; 'I' for Inactive)
REMARK    1  A    between atoms: O_2  and  C_16
REMARK    2  A    between atoms: O_3  and  C_21
REMARK    3  A    between atoms: N_9  and  C_28
REMARK    4  A    between atoms: C_11  and  C_19
REMARK    5  A    between atoms: C_13  and  C_21
REMARK    6  A    between atoms: C_13  and  C_22
REMARK    7  A    between atoms: C_14  and  C_24
REMARK    8  A    between atoms: C_24  and  C_25
REMARK    9  A    between atoms: C_27  and  C_29
REMARK   10  A    between atoms: C_28  and  C_35
REMARK                            x       y       z     vdW  Elec       q    Type
REMARK                         _______ _______ _______ _____ _____    ______ ____
ROOT
ATOM      1  S   UNL     1     -10.296 -12.948  20.040  0.00  0.00    -0.057 S 
ATOM      5  O   UNL     1     -13.593  -9.709  19.388  0.00  0.00    -0.275 OA
ATOM      8  N   UNL     1     -10.843 -10.712  18.859  0.00  0.00    -0.229 NA
ATOM     10  N   UNL     1     -12.586 -11.682  20.212  0.00  0.00    -0.264 N 
ATOM     11  C   UNL     1      -7.164 -10.567  17.714  0.00  0.00    -0.019 C 
ATOM     12  C   UNL     1      -7.040 -12.152  17.648  0.00  0.00    +0.011 C 
ATOM     13  C   UNL     1      -5.615 -12.746  17.324  0.00  0.00    +0.021 C 
ATOM     14  C   UNL     1      -8.714 -10.189  17.611  0.00  0.00    +0.054 C 
ATOM     15  C   UNL     1      -6.429  -9.941  16.501  0.00  0.00    +0.010 C 
ATOM     16  C   UNL     1      -5.003 -11.978  16.116  0.00  0.00    +0.123 C 
ATOM     17  C   UNL     1      -7.738 -12.828  18.864  0.00  0.00    +0.049 C 
ATOM     18  C   UNL     1      -5.014 -10.464  16.300  0.00  0.00    +0.032 C 
ATOM     19  C   UNL     1      -6.573  -9.969  19.015  0.00  0.00    +0.012 C 
ATOM     20  C   UNL     1      -9.542 -11.048  18.533  0.00  0.00    +0.058 A 
ATOM     22  C   UNL     1      -5.770 -14.232  16.894  0.00  0.00    +0.016 C 
ATOM     23  C   UNL     1      -9.091 -12.236  19.069  0.00  0.00    +0.015 A 
ATOM     26  C   UNL     1     -11.336 -11.637  19.653  0.00  0.00    +0.165 A 
ATOM     27  C   UNL     1     -13.617 -10.740  20.051  0.00  0.00    +0.222 C 
ATOM     45  H   UNL     1     -12.740 -12.477  20.825  0.00  0.00    +0.157 HD
ENDROOT
BRANCH  27  29
ATOM     29  C   UNL     1     -14.847 -11.128  20.814  0.00  0.00    +0.075 C 
ATOM     30  C   UNL     1     -15.616  -9.875  21.241  0.00  0.00    +0.013 C 
ATOM     31  C   UNL     1     -14.462 -11.987  22.022  0.00  0.00    +0.013 C 
ATOM     32  C   UNL     1     -16.827 -10.221  22.102  0.00  0.00    +0.001 C 
ATOM     33  C   UNL     1     -15.676 -12.328  22.882  0.00  0.00    +0.001 C 
ATOM     34  C   UNL     1     -16.437 -11.074  23.305  0.00  0.00    +0.000 C 
ENDBRANCH  27  29
BRANCH  16   2
ATOM      2  O   UNL     1      -3.662 -12.403  15.878  0.00  0.00    -0.391 OA
ATOM     42  H   UNL     1      -3.069 -11.827  16.388  0.00  0.00    +0.210 HD
ENDBRANCH  16   2
BRANCH  13  21
ATOM     21  C   UNL     1      -4.638 -12.759  18.520  0.00  0.00    +0.165 C 
BRANCH  21   3
ATOM      3  O   UNL     1      -4.009 -14.020  18.549  0.00  0.00    -0.394 OA
ATOM     43  H   UNL     1      -4.507 -14.619  17.967  0.00  0.00    +0.209 HD
ENDBRANCH  21   3
ENDBRANCH  13  21
BRANCH  14  24
ATOM     24  C   UNL     1      -9.021  -8.698  17.806  0.00  0.00    +0.106 C 
BRANCH  24  25
ATOM      4  O   UNL     1      -9.387  -8.496  15.422  0.00  0.00    -0.276 OA
ATOM      9  N   UNL     1     -10.370  -6.964  16.867  0.00  0.00    -0.311 N 
ATOM     25  C   UNL     1      -9.595  -8.070  16.556  0.00  0.00    +0.214 C 
ATOM     44  H   UNL     1     -10.536  -6.724  17.840  0.00  0.00    +0.149 HD
BRANCH   9  28
ATOM     28  C   UNL     1     -11.041  -6.164  15.869  0.00  0.00    +0.139 C 
BRANCH  28  35
ATOM      6  O   UNL     1     -15.516  -6.049  13.786  0.00  0.00    -0.453 OA
ATOM      7  O   UNL     1     -16.273  -7.967  15.032  0.00  0.00    -0.453 OA
ATOM     35  C   UNL     1     -12.436  -6.674  15.670  0.00  0.00    -0.027 A 
ATOM     36  C   UNL     1     -13.279  -6.032  14.765  0.00  0.00    +0.054 A 
ATOM     37  C   UNL     1     -12.871  -7.792  16.398  0.00  0.00    +0.009 A 
ATOM     38  C   UNL     1     -14.555  -6.538  14.615  0.00  0.00    +0.167 A 
ATOM     39  C   UNL     1     -14.168  -8.284  16.228  0.00  0.00    +0.050 A 
ATOM     40  C   UNL     1     -14.987  -7.634  15.327  0.00  0.00    +0.166 A 
ATOM     41  C   UNL     1     -16.601  -6.960  14.055  0.00  0.00    +0.466 C 
ENDBRANCH  28  35
ENDBRANCH   9  28
ENDBRANCH  24  25
ENDBRANCH  14  24
TORSDOF 8
ENDMDL
