REMARK  Name = 38026421
REMARK  13 active torsions:
REMARK  status: ('A' for Active; 'I' for Inactive)
REMARK    1  A    between atoms: O_2  and  C_16
REMARK    2  A    between atoms: O_4  and  C_26
REMARK    3  A    between atoms: O_4  and  C_27
REMARK    4  A    between atoms: N_6  and  C_14
REMARK    5  A    between atoms: N_6  and  C_17
REMARK    6  A    between atoms: N_6  and  C_18
REMARK    7  A    between atoms: C_7  and  C_11
REMARK    8  A    between atoms: C_8  and  C_13
REMARK    9  A    between atoms: C_11  and  C_14
REMARK   10  A    between atoms: C_13  and  C_16
REMARK   11  A    between atoms: C_15  and  C_19
REMARK   12  A    between atoms: C_17  and  C_20
REMARK   13  A    between atoms: C_18  and  C_21
REMARK                            x       y       z     vdW  Elec       q    Type
REMARK                         _______ _______ _______ _____ _____    ______ ____
ROOT
ATOM      1  O   UNL     1       0.481  -3.257   1.775  0.00  0.00    -0.270 OA
ATOM      5  N   UNL     1      -0.668  -2.157   0.059  0.00  0.00    -0.297 N 
ATOM      7  C   UNL     1      -1.645  -0.075  -0.884  0.00  0.00    +0.011 C 
ATOM      8  C   UNL     1      -3.048  -0.602  -0.489  0.00  0.00    +0.006 C 
ATOM      9  C   UNL     1      -2.974  -1.573   0.701  0.00  0.00    +0.023 C 
ATOM     10  C   UNL     1      -0.684  -1.258  -1.104  0.00  0.00    +0.112 C 
ATOM     12  C   UNL     1      -1.973  -2.695   0.437  0.00  0.00    +0.108 C 
ATOM     15  C   UNL     1       0.464  -2.510   0.798  0.00  0.00    +0.247 C 
ENDROOT
BRANCH  15  19
ATOM     19  C   UNL     1       1.757  -1.950   0.389  0.00  0.00    +0.037 A 
ATOM     22  C   UNL     1       2.191  -0.736   0.922  0.00  0.00    +0.016 A 
ATOM     23  C   UNL     1       2.551  -2.630  -0.535  0.00  0.00    +0.016 A 
ATOM     24  C   UNL     1       3.419  -0.203   0.532  0.00  0.00    +0.046 A 
ATOM     25  C   UNL     1       3.779  -2.096  -0.925  0.00  0.00    +0.046 A 
ATOM     26  C   UNL     1       4.213  -0.883  -0.392  0.00  0.00    +0.120 A 
BRANCH  26   4
ATOM      4  O   UNL     1       5.412  -0.362  -0.772  0.00  0.00    -0.495 OA
ATOM     27  C   UNL     1       5.795   0.881  -0.187  0.00  0.00    +0.277 C 
ENDBRANCH  26   4
ENDBRANCH  15  19
BRANCH   7  11
ATOM     11  C   UNL     1      -1.046   0.917   0.121  0.00  0.00    +0.020 C 
BRANCH  11  14
ATOM     14  C   UNL     1      -0.050   1.845  -0.560  0.00  0.00    +0.084 C 
BRANCH  14   6
ATOM      6  N   UNL     1       0.517   2.766   0.418  0.00  0.00    -0.303 NA
BRANCH   6  17
ATOM     17  C   UNL     1      -0.407   3.871   0.682  0.00  0.00    +0.081 C 
ATOM     20  C   UNL     1       0.143   4.803   1.748  0.00  0.00    +0.020 C 
ENDBRANCH   6  17
BRANCH   6  18
ATOM     18  C   UNL     1       1.806   3.282  -0.047  0.00  0.00    +0.081 C 
ATOM     21  C   UNL     1       1.646   4.083  -1.328  0.00  0.00    +0.020 C 
ENDBRANCH   6  18
ENDBRANCH  14   6
ENDBRANCH  11  14
ENDBRANCH   7  11
BRANCH   8  13
ATOM     13  C   UNL     1      -4.052   0.517  -0.209  0.00  0.00    +0.124 C 
BRANCH  13  16
ATOM      3  O   UNL     1      -5.830  -1.085  -0.672  0.00  0.00    -0.251 OA
ATOM     16  C   UNL     1      -5.470   0.041  -0.366  0.00  0.00    +0.305 C 
BRANCH  16   2
ATOM      2  O   UNL     1      -6.327   1.065  -0.115  0.00  0.00    -0.481 OA
ATOM     28  H   UNL     1      -7.263   0.789  -0.208  0.00  0.00    +0.295 HD
ENDBRANCH  16   2
ENDBRANCH  13  16
ENDBRANCH   8  13
TORSDOF 10
