MODEL 1
REMARK VINA RESULT:      -6.5      0.000      0.000
REMARK  Name = 44716170
REMARK  8 active torsions:
REMARK  status: ('A' for Active; 'I' for Inactive)
REMARK    1  A    between atoms: N_4  and  C_15
REMARK    2  A    between atoms: N_7  and  C_23
REMARK    3  A    between atoms: N_7  and  C_24
REMARK    4  A    between atoms: N_7  and  C_25
REMARK    5  A    between atoms: C_9  and  C_16
REMARK    6  A    between atoms: C_10  and  C_15
REMARK    7  A    between atoms: C_22  and  C_23
REMARK    8  A    between atoms: C_24  and  C_26
REMARK                            x       y       z     vdW  Elec       q    Type
REMARK                         _______ _______ _______ _____ _____    ______ ____
ROOT
ATOM     15  C   UNL     1      15.138   6.972  18.992  0.00  0.00    +0.164 C 
ENDROOT
BRANCH  15  10
ATOM      2  N   UNL     1      13.045   7.136  20.361  0.00  0.00    -0.297 NA
ATOM      8  C   UNL     1      13.168   9.725  20.597  0.00  0.00    +0.005 C 
ATOM      9  C   UNL     1      12.780   9.058  21.931  0.00  0.00    +0.092 C 
ATOM     10  C   UNL     1      14.451   7.601  20.208  0.00  0.00    +0.078 C 
ATOM     11  C   UNL     1      14.531   9.145  20.175  0.00  0.00    +0.025 C 
ATOM     12  C   UNL     1      12.162   9.312  19.507  0.00  0.00    +0.020 C 
ATOM     13  C   UNL     1      12.561   7.550  21.703  0.00  0.00    +0.097 C 
ATOM     14  C   UNL     1      12.172   7.783  19.355  0.00  0.00    +0.085 C 
BRANCH   9  16
ATOM      1  O   UNL     1      10.438   9.243  22.323  0.00  0.00    -0.275 OA
ATOM      3  N   UNL     1      11.802  10.816  23.323  0.00  0.00    -0.301 N 
ATOM     16  C   UNL     1      11.560   9.703  22.540  0.00  0.00    +0.220 C 
ATOM     17  C   UNL     1      10.731  11.556  23.975  0.00  0.00    +0.108 C 
ATOM     18  C   UNL     1      13.103  11.408  23.620  0.00  0.00    +0.108 C 
ATOM     19  C   UNL     1      11.444  12.463  24.966  0.00  0.00    +0.020 C 
ATOM     20  C   UNL     1      12.772  12.742  24.274  0.00  0.00    +0.020 C 
ENDBRANCH   9  16
ENDBRANCH  15  10
BRANCH  15   4
ATOM      4  N   UNL     1      16.512   6.469  19.334  0.00  0.00    -0.250 N 
ATOM      5  N   UNL     1      17.087   5.498  18.607  0.00  0.00    -0.065 NA
ATOM      6  N   UNL     1      18.280   5.261  19.141  0.00  0.00    -0.133 NA
ATOM     21  C   UNL     1      17.318   6.880  20.351  0.00  0.00    +0.135 A 
ATOM     22  C   UNL     1      18.437   6.099  20.210  0.00  0.00    +0.097 A 
BRANCH  22  23
ATOM     23  C   UNL     1      19.662   6.081  21.020  0.00  0.00    +0.143 C 
BRANCH  23   7
ATOM      7  N   UNL     1      20.586   7.183  20.699  0.00  0.00    -0.295 NA
ATOM     25  C   UNL     1      21.914   6.654  20.411  0.00  0.00    +0.105 C 
BRANCH   7  24
ATOM     24  C   UNL     1      20.633   8.135  21.804  0.00  0.00    +0.119 C 
BRANCH  24  26
ATOM     26  C   UNL     1      19.965   9.437  21.450  0.00  0.00    -0.033 A 
ATOM     27  C   UNL     1      20.662  10.405  20.727  0.00  0.00    +0.005 A 
ATOM     28  C   UNL     1      18.648   9.675  21.845  0.00  0.00    +0.005 A 
ATOM     29  C   UNL     1      20.043  11.612  20.401  0.00  0.00    +0.000 A 
ATOM     30  C   UNL     1      18.029  10.881  21.518  0.00  0.00    +0.000 A 
ATOM     31  C   UNL     1      18.726  11.849  20.795  0.00  0.00    +0.000 A 
ENDBRANCH  24  26
ENDBRANCH   7  24
ENDBRANCH  23   7
ENDBRANCH  22  23
ENDBRANCH  15   4
TORSDOF 7
ENDMDL
MODEL 2
REMARK VINA RESULT:      -6.4     27.679     31.709
REMARK  Name = 44716170
REMARK  8 active torsions:
REMARK  status: ('A' for Active; 'I' for Inactive)
REMARK    1  A    between atoms: N_4  and  C_15
REMARK    2  A    between atoms: N_7  and  C_23
REMARK    3  A    between atoms: N_7  and  C_24
REMARK    4  A    between atoms: N_7  and  C_25
REMARK    5  A    between atoms: C_9  and  C_16
REMARK    6  A    between atoms: C_10  and  C_15
REMARK    7  A    between atoms: C_22  and  C_23
REMARK    8  A    between atoms: C_24  and  C_26
REMARK                            x       y       z     vdW  Elec       q    Type
REMARK                         _______ _______ _______ _____ _____    ______ ____
ROOT
ATOM     15  C   UNL     1      -7.832  -9.742   8.733  0.00  0.00    +0.164 C 
ENDROOT
BRANCH  15  10
ATOM      2  N   UNL     1      -5.534  -9.095   9.496  0.00  0.00    -0.297 NA
ATOM      8  C   UNL     1      -5.164 -11.274  10.871  0.00  0.00    +0.005 C 
ATOM      9  C   UNL     1      -4.667 -10.033  11.640  0.00  0.00    +0.092 C 
ATOM     10  C   UNL     1      -6.843  -9.677   9.900  0.00  0.00    +0.078 C 
ATOM     11  C   UNL     1      -6.659 -11.058  10.572  0.00  0.00    +0.025 C 
ATOM     12  C   UNL     1      -4.453 -11.348   9.507  0.00  0.00    +0.020 C 
ATOM     13  C   UNL     1      -4.756  -8.796  10.726  0.00  0.00    +0.097 C 
ATOM     14  C   UNL     1      -4.754 -10.073   8.704  0.00  0.00    +0.085 C 
BRANCH   9  16
ATOM      1  O   UNL     1      -2.300 -10.141  11.404  0.00  0.00    -0.275 OA
ATOM      3  N   UNL     1      -3.168 -10.511  13.513  0.00  0.00    -0.301 N 
ATOM     16  C   UNL     1      -3.266 -10.228  12.163  0.00  0.00    +0.220 C 
ATOM     17  C   UNL     1      -1.888 -10.733  14.169  0.00  0.00    +0.108 C 
ATOM     18  C   UNL     1      -4.270 -10.624  14.464  0.00  0.00    +0.108 C 
ATOM     19  C   UNL     1      -2.207 -10.678  15.655  0.00  0.00    +0.020 C 
ATOM     20  C   UNL     1      -3.632 -11.212  15.714  0.00  0.00    +0.020 C 
ENDBRANCH   9  16
ENDBRANCH  15  10
BRANCH  15   4
ATOM      4  N   UNL     1      -8.286  -8.371   8.318  0.00  0.00    -0.250 N 
ATOM      5  N   UNL     1      -8.185  -7.972   7.040  0.00  0.00    -0.065 NA
ATOM      6  N   UNL     1      -8.654  -6.730   6.978  0.00  0.00    -0.133 NA
ATOM     21  C   UNL     1      -8.822  -7.400   9.107  0.00  0.00    +0.135 A 
ATOM     22  C   UNL     1      -9.049  -6.366   8.235  0.00  0.00    +0.097 A 
BRANCH  22  23
ATOM     23  C   UNL     1      -9.617  -5.038   8.500  0.00  0.00    +0.143 C 
BRANCH  23   7
ATOM      7  N   UNL     1     -10.892  -5.088   9.236  0.00  0.00    -0.295 NA
ATOM     25  C   UNL     1     -11.883  -5.834   8.469  0.00  0.00    +0.105 C 
BRANCH   7  24
ATOM     24  C   UNL     1     -11.362  -3.736   9.518  0.00  0.00    +0.119 C 
BRANCH  24  26
ATOM     26  C   UNL     1     -12.381  -3.717  10.626  0.00  0.00    -0.033 A 
ATOM     27  C   UNL     1     -13.700  -3.351  10.355  0.00  0.00    +0.005 A 
ATOM     28  C   UNL     1     -12.008  -4.065  11.924  0.00  0.00    +0.005 A 
ATOM     29  C   UNL     1     -14.644  -3.332  11.382  0.00  0.00    +0.000 A 
ATOM     30  C   UNL     1     -12.951  -4.047  12.950  0.00  0.00    +0.000 A 
ATOM     31  C   UNL     1     -14.269  -3.681  12.680  0.00  0.00    +0.000 A 
ENDBRANCH  24  26
ENDBRANCH   7  24
ENDBRANCH  23   7
ENDBRANCH  22  23
ENDBRANCH  15   4
TORSDOF 7
ENDMDL
MODEL 3
REMARK VINA RESULT:      -6.4      4.881      8.252
REMARK  Name = 44716170
REMARK  8 active torsions:
REMARK  status: ('A' for Active; 'I' for Inactive)
REMARK    1  A    between atoms: N_4  and  C_15
REMARK    2  A    between atoms: N_7  and  C_23
REMARK    3  A    between atoms: N_7  and  C_24
REMARK    4  A    between atoms: N_7  and  C_25
REMARK    5  A    between atoms: C_9  and  C_16
REMARK    6  A    between atoms: C_10  and  C_15
REMARK    7  A    between atoms: C_22  and  C_23
REMARK    8  A    between atoms: C_24  and  C_26
REMARK                            x       y       z     vdW  Elec       q    Type
REMARK                         _______ _______ _______ _____ _____    ______ ____
ROOT
ATOM     15  C   UNL     1      13.018   9.927  15.516  0.00  0.00    +0.164 C 
ENDROOT
BRANCH  15  10
ATOM      2  N   UNL     1      14.231  12.082  15.920  0.00  0.00    -0.297 NA
ATOM      8  C   UNL     1      16.159  11.536  14.258  0.00  0.00    +0.005 C 
ATOM      9  C   UNL     1      16.700  12.161  15.559  0.00  0.00    +0.092 C 
ATOM     10  C   UNL     1      14.367  10.609  15.757  0.00  0.00    +0.078 C 
ATOM     11  C   UNL     1      15.390  10.260  14.650  0.00  0.00    +0.025 C 
ATOM     12  C   UNL     1      15.128  12.487  13.623  0.00  0.00    +0.020 C 
ATOM     13  C   UNL     1      15.518  12.615  16.438  0.00  0.00    +0.097 C 
ATOM     14  C   UNL     1      13.977  12.728  14.613  0.00  0.00    +0.085 C 
BRANCH   9  16
ATOM      1  O   UNL     1      17.243  14.468  15.326  0.00  0.00    -0.275 OA
ATOM      3  N   UNL     1      18.939  12.943  14.958  0.00  0.00    -0.301 N 
ATOM     16  C   UNL     1      17.642  13.304  15.275  0.00  0.00    +0.220 C 
ATOM     17  C   UNL     1      19.966  13.926  14.651  0.00  0.00    +0.108 C 
ATOM     18  C   UNL     1      19.474  11.586  14.885  0.00  0.00    +0.108 C 
ATOM     19  C   UNL     1      21.268  13.142  14.690  0.00  0.00    +0.020 C 
ATOM     20  C   UNL     1      20.840  11.753  14.234  0.00  0.00    +0.020 C 
ENDBRANCH   9  16
ENDBRANCH  15  10
BRANCH  15   4
ATOM      4  N   UNL     1      12.457   9.352  16.786  0.00  0.00    -0.250 N 
ATOM      5  N   UNL     1      11.480   8.432  16.750  0.00  0.00    -0.065 NA
ATOM      6  N   UNL     1      11.188   8.117  18.007  0.00  0.00    -0.133 NA
ATOM     21  C   UNL     1      12.818   9.651  18.064  0.00  0.00    +0.135 A 
ATOM     22  C   UNL     1      11.999   8.855  18.825  0.00  0.00    +0.097 A 
BRANCH  22  23
ATOM     23  C   UNL     1      11.920   8.736  20.286  0.00  0.00    +0.143 C 
BRANCH  23   7
ATOM      7  N   UNL     1      12.422   7.447  20.791  0.00  0.00    -0.295 NA
ATOM     25  C   UNL     1      11.336   6.694  21.409  0.00  0.00    +0.105 C 
BRANCH   7  24
ATOM     24  C   UNL     1      13.507   7.669  21.742  0.00  0.00    +0.119 C 
BRANCH  24  26
ATOM     26  C   UNL     1      14.855   7.407  21.125  0.00  0.00    -0.033 A 
ATOM     27  C   UNL     1      15.987   8.056  21.619  0.00  0.00    +0.005 A 
ATOM     28  C   UNL     1      14.973   6.514  20.060  0.00  0.00    +0.005 A 
ATOM     29  C   UNL     1      17.236   7.814  21.047  0.00  0.00    +0.000 A 
ATOM     30  C   UNL     1      16.221   6.272  19.488  0.00  0.00    +0.000 A 
ATOM     31  C   UNL     1      17.353   6.920  19.982  0.00  0.00    +0.000 A 
ENDBRANCH  24  26
ENDBRANCH   7  24
ENDBRANCH  23   7
ENDBRANCH  22  23
ENDBRANCH  15   4
TORSDOF 7
ENDMDL
MODEL 4
REMARK VINA RESULT:      -6.3     28.007     32.189
REMARK  Name = 44716170
REMARK  8 active torsions:
REMARK  status: ('A' for Active; 'I' for Inactive)
REMARK    1  A    between atoms: N_4  and  C_15
REMARK    2  A    between atoms: N_7  and  C_23
REMARK    3  A    between atoms: N_7  and  C_24
REMARK    4  A    between atoms: N_7  and  C_25
REMARK    5  A    between atoms: C_9  and  C_16
REMARK    6  A    between atoms: C_10  and  C_15
REMARK    7  A    between atoms: C_22  and  C_23
REMARK    8  A    between atoms: C_24  and  C_26
REMARK                            x       y       z     vdW  Elec       q    Type
REMARK                         _______ _______ _______ _____ _____    ______ ____
ROOT
ATOM     15  C   UNL     1      -8.068 -12.435  19.721  0.00  0.00    +0.164 C 
ENDROOT
BRANCH  15  10
ATOM      2  N   UNL     1      -7.739 -11.406  17.460  0.00  0.00    -0.297 NA
ATOM      8  C   UNL     1      -5.411 -12.507  17.081  0.00  0.00    +0.005 C 
ATOM      9  C   UNL     1      -5.413 -11.032  16.633  0.00  0.00    +0.092 C 
ATOM     10  C   UNL     1      -7.102 -11.727  18.767  0.00  0.00    +0.078 C 
ATOM     11  C   UNL     1      -5.797 -12.532  18.572  0.00  0.00    +0.025 C 
ATOM     12  C   UNL     1      -6.517 -13.271  16.332  0.00  0.00    +0.020 C 
ATOM     13  C   UNL     1      -6.847 -10.474  16.723  0.00  0.00    +0.097 C 
ATOM     14  C   UNL     1      -7.879 -12.629  16.637  0.00  0.00    +0.085 C 
BRANCH   9  16
ATOM      1  O   UNL     1      -5.592 -10.912  14.261  0.00  0.00    -0.275 OA
ATOM      3  N   UNL     1      -3.480 -10.697  15.172  0.00  0.00    -0.301 N 
ATOM     16  C   UNL     1      -4.850 -10.874  15.243  0.00  0.00    +0.220 C 
ATOM     17  C   UNL     1      -2.782 -10.536  13.905  0.00  0.00    +0.108 C 
ATOM     18  C   UNL     1      -2.548 -10.638  16.294  0.00  0.00    +0.108 C 
ATOM     19  C   UNL     1      -1.394 -10.052  14.293  0.00  0.00    +0.020 C 
ATOM     20  C   UNL     1      -1.172 -10.713  15.648  0.00  0.00    +0.020 C 
ENDBRANCH   9  16
ENDBRANCH  15  10
BRANCH  15   4
ATOM      4  N   UNL     1      -9.419 -11.775  19.727  0.00  0.00    -0.250 N 
ATOM      5  N   UNL     1      -9.588 -10.565  20.284  0.00  0.00    -0.065 NA
ATOM      6  N   UNL     1     -10.870 -10.245  20.145  0.00  0.00    -0.133 NA
ATOM     21  C   UNL     1     -10.583 -12.261  19.217  0.00  0.00    +0.135 A 
ATOM     22  C   UNL     1     -11.493 -11.273  19.493  0.00  0.00    +0.097 A 
BRANCH  22  23
ATOM     23  C   UNL     1     -12.928 -11.223  19.186  0.00  0.00    +0.143 C 
BRANCH  23   7
ATOM      7  N   UNL     1     -13.364  -9.918  18.660  0.00  0.00    -0.295 NA
ATOM     25  C   UNL     1     -14.774  -9.701  18.966  0.00  0.00    +0.105 C 
BRANCH   7  24
ATOM     24  C   UNL     1     -13.128  -9.854  17.221  0.00  0.00    +0.119 C 
BRANCH  24  26
ATOM     26  C   UNL     1     -12.475  -8.559  16.818  0.00  0.00    -0.033 A 
ATOM     27  C   UNL     1     -11.124  -8.344  17.093  0.00  0.00    +0.005 A 
ATOM     28  C   UNL     1     -13.219  -7.575  16.169  0.00  0.00    +0.005 A 
ATOM     29  C   UNL     1     -10.519  -7.143  16.720  0.00  0.00    +0.000 A 
ATOM     30  C   UNL     1     -12.615  -6.375  15.796  0.00  0.00    +0.000 A 
ATOM     31  C   UNL     1     -11.265  -6.159  16.070  0.00  0.00    +0.000 A 
ENDBRANCH  24  26
ENDBRANCH   7  24
ENDBRANCH  23   7
ENDBRANCH  22  23
ENDBRANCH  15   4
TORSDOF 7
ENDMDL
MODEL 5
REMARK VINA RESULT:      -6.3     27.599     30.509
REMARK  Name = 44716170
REMARK  8 active torsions:
REMARK  status: ('A' for Active; 'I' for Inactive)
REMARK    1  A    between atoms: N_4  and  C_15
REMARK    2  A    between atoms: N_7  and  C_23
REMARK    3  A    between atoms: N_7  and  C_24
REMARK    4  A    between atoms: N_7  and  C_25
REMARK    5  A    between atoms: C_9  and  C_16
REMARK    6  A    between atoms: C_10  and  C_15
REMARK    7  A    between atoms: C_22  and  C_23
REMARK    8  A    between atoms: C_24  and  C_26
REMARK                            x       y       z     vdW  Elec       q    Type
REMARK                         _______ _______ _______ _____ _____    ______ ____
ROOT
ATOM     15  C   UNL     1      -2.602 -11.097  11.386  0.00  0.00    +0.164 C 
ENDROOT
BRANCH  15  10
ATOM      2  N   UNL     1      -2.007 -11.141  13.820  0.00  0.00    -0.297 NA
ATOM      8  C   UNL     1      -4.420 -11.728  14.601  0.00  0.00    +0.005 C 
ATOM      9  C   UNL     1      -3.783 -10.653  15.504  0.00  0.00    +0.092 C 
ATOM     10  C   UNL     1      -3.000 -10.689  12.807  0.00  0.00    +0.078 C 
ATOM     11  C   UNL     1      -4.425 -11.172  13.164  0.00  0.00    +0.025 C 
ATOM     12  C   UNL     1      -3.521 -12.978  14.581  0.00  0.00    +0.020 C 
ATOM     13  C   UNL     1      -2.308 -10.459  15.105  0.00  0.00    +0.097 C 
ATOM     14  C   UNL     1      -2.129 -12.599  14.051  0.00  0.00    +0.085 C 
BRANCH   9  16
ATOM      1  O   UNL     1      -2.976 -11.533  17.565  0.00  0.00    -0.275 OA
ATOM      3  N   UNL     1      -5.135 -10.710  17.543  0.00  0.00    -0.301 N 
ATOM     16  C   UNL     1      -3.914 -11.007  16.964  0.00  0.00    +0.220 C 
ATOM     17  C   UNL     1      -5.422 -10.995  18.940  0.00  0.00    +0.108 C 
ATOM     18  C   UNL     1      -6.281 -10.086  16.889  0.00  0.00    +0.108 C 
ATOM     19  C   UNL     1      -6.704 -10.230  19.229  0.00  0.00    +0.020 C 
ATOM     20  C   UNL     1      -7.420 -10.250  17.885  0.00  0.00    +0.020 C 
ENDBRANCH   9  16
ENDBRANCH  15  10
BRANCH  15   4
ATOM      4  N   UNL     1      -3.425 -10.377  10.355  0.00  0.00    -0.250 N 
ATOM      5  N   UNL     1      -3.406  -9.036  10.277  0.00  0.00    -0.065 NA
ATOM      6  N   UNL     1      -4.223  -8.688   9.289  0.00  0.00    -0.133 NA
ATOM     21  C   UNL     1      -4.251 -10.922   9.422  0.00  0.00    +0.135 A 
ATOM     22  C   UNL     1      -4.748  -9.832   8.755  0.00  0.00    +0.097 A 
BRANCH  22  23
ATOM     23  C   UNL     1      -5.698  -9.785   7.635  0.00  0.00    +0.143 C 
BRANCH  23   7
ATOM      7  N   UNL     1      -7.001  -9.205   8.003  0.00  0.00    -0.295 NA
ATOM     25  C   UNL     1      -7.877 -10.243   8.536  0.00  0.00    +0.105 C 
BRANCH   7  24
ATOM     24  C   UNL     1      -7.606  -8.558   6.844  0.00  0.00    +0.119 C 
BRANCH  24  26
ATOM     26  C   UNL     1      -8.628  -7.529   7.248  0.00  0.00    -0.033 A 
ATOM     27  C   UNL     1      -9.953  -7.658   6.829  0.00  0.00    +0.005 A 
ATOM     28  C   UNL     1      -8.251  -6.446   8.041  0.00  0.00    +0.005 A 
ATOM     29  C   UNL     1     -10.899  -6.704   7.202  0.00  0.00    +0.000 A 
ATOM     30  C   UNL     1      -9.197  -5.492   8.415  0.00  0.00    +0.000 A 
ATOM     31  C   UNL     1     -10.521  -5.621   7.996  0.00  0.00    +0.000 A 
ENDBRANCH  24  26
ENDBRANCH   7  24
ENDBRANCH  23   7
ENDBRANCH  22  23
ENDBRANCH  15   4
TORSDOF 7
ENDMDL
MODEL 6
REMARK VINA RESULT:      -6.2      4.886      8.425
REMARK  Name = 44716170
REMARK  8 active torsions:
REMARK  status: ('A' for Active; 'I' for Inactive)
REMARK    1  A    between atoms: N_4  and  C_15
REMARK    2  A    between atoms: N_7  and  C_23
REMARK    3  A    between atoms: N_7  and  C_24
REMARK    4  A    between atoms: N_7  and  C_25
REMARK    5  A    between atoms: C_9  and  C_16
REMARK    6  A    between atoms: C_10  and  C_15
REMARK    7  A    between atoms: C_22  and  C_23
REMARK    8  A    between atoms: C_24  and  C_26
REMARK                            x       y       z     vdW  Elec       q    Type
REMARK                         _______ _______ _______ _____ _____    ______ ____
ROOT
ATOM     15  C   UNL     1      13.110  10.266  15.521  0.00  0.00    +0.164 C 
ENDROOT
BRANCH  15  10
ATOM      2  N   UNL     1      14.539  12.208  16.203  0.00  0.00    -0.297 NA
ATOM      8  C   UNL     1      16.308  11.816  14.335  0.00  0.00    +0.005 C 
ATOM      9  C   UNL     1      16.979  12.152  15.681  0.00  0.00    +0.092 C 
ATOM     10  C   UNL     1      14.529  10.782  15.776  0.00  0.00    +0.078 C 
ATOM     11  C   UNL     1      15.449  10.556  14.554  0.00  0.00    +0.025 C 
ATOM     12  C   UNL     1      15.335  12.946  13.952  0.00  0.00    +0.020 C 
ATOM     13  C   UNL     1      15.897  12.534  16.710  0.00  0.00    +0.097 C 
ATOM     14  C   UNL     1      14.270  13.097  15.049  0.00  0.00    +0.085 C 
BRANCH   9  16
ATOM      1  O   UNL     1      17.707  14.417  15.776  0.00  0.00    -0.275 OA
ATOM      3  N   UNL     1      19.255  12.839  15.106  0.00  0.00    -0.301 N 
ATOM     16  C   UNL     1      18.005  13.247  15.532  0.00  0.00    +0.220 C 
ATOM     17  C   UNL     1      20.352  13.775  14.906  0.00  0.00    +0.108 C 
ATOM     18  C   UNL     1      19.671  11.473  14.804  0.00  0.00    +0.108 C 
ATOM     19  C   UNL     1      21.584  12.894  14.767  0.00  0.00    +0.020 C 
ATOM     20  C   UNL     1      21.025  11.630  14.126  0.00  0.00    +0.020 C 
ENDBRANCH   9  16
ENDBRANCH  15  10
BRANCH  15   4
ATOM      4  N   UNL     1      12.740   9.173  16.484  0.00  0.00    -0.250 N 
ATOM      5  N   UNL     1      11.568   8.527  16.371  0.00  0.00    -0.065 NA
ATOM      6  N   UNL     1      11.517   7.631  17.350  0.00  0.00    -0.133 NA
ATOM     21  C   UNL     1      13.469   8.709  17.535  0.00  0.00    +0.135 A 
ATOM     22  C   UNL     1      12.674   7.730  18.072  0.00  0.00    +0.097 A 
BRANCH  22  23
ATOM     23  C   UNL     1      12.924   6.866  19.233  0.00  0.00    +0.143 C 
BRANCH  23   7
ATOM      7  N   UNL     1      13.947   7.403  20.146  0.00  0.00    -0.295 NA
ATOM     25  C   UNL     1      15.144   6.569  20.104  0.00  0.00    +0.105 C 
BRANCH   7  24
ATOM     24  C   UNL     1      13.417   7.483  21.503  0.00  0.00    +0.119 C 
BRANCH  24  26
ATOM     26  C   UNL     1      12.663   8.765  21.735  0.00  0.00    -0.033 A 
ATOM     27  C   UNL     1      11.441   8.744  22.408  0.00  0.00    +0.005 A 
ATOM     28  C   UNL     1      13.187   9.975  21.280  0.00  0.00    +0.005 A 
ATOM     29  C   UNL     1      10.742   9.933  22.622  0.00  0.00    +0.000 A 
ATOM     30  C   UNL     1      12.489  11.162  21.494  0.00  0.00    +0.000 A 
ATOM     31  C   UNL     1      11.267  11.142  22.166  0.00  0.00    +0.000 A 
ENDBRANCH  24  26
ENDBRANCH   7  24
ENDBRANCH  23   7
ENDBRANCH  22  23
ENDBRANCH  15   4
TORSDOF 7
ENDMDL
MODEL 7
REMARK VINA RESULT:      -6.2     28.334     31.093
REMARK  Name = 44716170
REMARK  8 active torsions:
REMARK  status: ('A' for Active; 'I' for Inactive)
REMARK    1  A    between atoms: N_4  and  C_15
REMARK    2  A    between atoms: N_7  and  C_23
REMARK    3  A    between atoms: N_7  and  C_24
REMARK    4  A    between atoms: N_7  and  C_25
REMARK    5  A    between atoms: C_9  and  C_16
REMARK    6  A    between atoms: C_10  and  C_15
REMARK    7  A    between atoms: C_22  and  C_23
REMARK    8  A    between atoms: C_24  and  C_26
REMARK                            x       y       z     vdW  Elec       q    Type
REMARK                         _______ _______ _______ _____ _____    ______ ____
ROOT
ATOM     15  C   UNL     1      -4.791 -12.538  17.305  0.00  0.00    +0.164 C 
ENDROOT
BRANCH  15  10
ATOM      2  N   UNL     1      -4.537 -12.711  14.818  0.00  0.00    -0.297 NA
ATOM      8  C   UNL     1      -2.803 -10.776  14.664  0.00  0.00    +0.005 C 
ATOM      9  C   UNL     1      -3.847 -10.685  13.534  0.00  0.00    +0.092 C 
ATOM     10  C   UNL     1      -4.693 -11.787  15.975  0.00  0.00    +0.078 C 
ATOM     11  C   UNL     1      -3.569 -10.725  15.999  0.00  0.00    +0.025 C 
ATOM     12  C   UNL     1      -2.111 -12.150  14.611  0.00  0.00    +0.020 C 
ATOM     13  C   UNL     1      -4.748 -11.934  13.569  0.00  0.00    +0.097 C 
ATOM     14  C   UNL     1      -3.162 -13.259  14.773  0.00  0.00    +0.085 C 
BRANCH   9  16
ATOM      1  O   UNL     1      -2.093 -11.027  11.959  0.00  0.00    -0.275 OA
ATOM      3  N   UNL     1      -3.903  -9.770  11.265  0.00  0.00    -0.301 N 
ATOM     16  C   UNL     1      -3.192 -10.519  12.185  0.00  0.00    +0.220 C 
ATOM     17  C   UNL     1      -3.405  -9.513   9.923  0.00  0.00    +0.108 C 
ATOM     18  C   UNL     1      -5.207  -9.146  11.469  0.00  0.00    +0.108 C 
ATOM     19  C   UNL     1      -4.605  -8.958   9.171  0.00  0.00    +0.020 C 
ATOM     20  C   UNL     1      -5.383  -8.235  10.263  0.00  0.00    +0.020 C 
ENDBRANCH   9  16
ENDBRANCH  15  10
BRANCH  15   4
ATOM      4  N   UNL     1      -5.904 -12.001  18.161  0.00  0.00    -0.250 N 
ATOM      5  N   UNL     1      -5.694 -10.961  18.984  0.00  0.00    -0.065 NA
ATOM      6  N   UNL     1      -6.842 -10.715  19.607  0.00  0.00    -0.133 NA
ATOM     21  C   UNL     1      -7.187 -12.448  18.233  0.00  0.00    +0.135 A 
ATOM     22  C   UNL     1      -7.766 -11.617  19.157  0.00  0.00    +0.097 A 
BRANCH  22  23
ATOM     23  C   UNL     1      -9.146 -11.608  19.660  0.00  0.00    +0.143 C 
BRANCH  23   7
ATOM      7  N   UNL     1      -9.911 -10.424  19.235  0.00  0.00    -0.295 NA
ATOM     25  C   UNL     1     -11.058 -10.226  20.116  0.00  0.00    +0.105 C 
BRANCH   7  24
ATOM     24  C   UNL     1     -10.340 -10.574  17.849  0.00  0.00    +0.119 C 
BRANCH  24  26
ATOM     26  C   UNL     1     -10.878  -9.285  17.286  0.00  0.00    -0.033 A 
ATOM     27  C   UNL     1     -10.050  -8.168  17.184  0.00  0.00    +0.005 A 
ATOM     28  C   UNL     1     -12.206  -9.209  16.865  0.00  0.00    +0.005 A 
ATOM     29  C   UNL     1     -10.549  -6.974  16.664  0.00  0.00    +0.000 A 
ATOM     30  C   UNL     1     -12.705  -8.016  16.344  0.00  0.00    +0.000 A 
ATOM     31  C   UNL     1     -11.877  -6.899  16.243  0.00  0.00    +0.000 A 
ENDBRANCH  24  26
ENDBRANCH   7  24
ENDBRANCH  23   7
ENDBRANCH  22  23
ENDBRANCH  15   4
TORSDOF 7
ENDMDL
MODEL 8
REMARK VINA RESULT:      -6.0      2.271      3.884
REMARK  Name = 44716170
REMARK  8 active torsions:
REMARK  status: ('A' for Active; 'I' for Inactive)
REMARK    1  A    between atoms: N_4  and  C_15
REMARK    2  A    between atoms: N_7  and  C_23
REMARK    3  A    between atoms: N_7  and  C_24
REMARK    4  A    between atoms: N_7  and  C_25
REMARK    5  A    between atoms: C_9  and  C_16
REMARK    6  A    between atoms: C_10  and  C_15
REMARK    7  A    between atoms: C_22  and  C_23
REMARK    8  A    between atoms: C_24  and  C_26
REMARK                            x       y       z     vdW  Elec       q    Type
REMARK                         _______ _______ _______ _____ _____    ______ ____
ROOT
ATOM     15  C   UNL     1      15.792   6.729  19.546  0.00  0.00    +0.164 C 
ENDROOT
BRANCH  15  10
ATOM      2  N   UNL     1      13.528   6.904  20.607  0.00  0.00    -0.297 NA
ATOM      8  C   UNL     1      13.504   9.507  20.588  0.00  0.00    +0.005 C 
ATOM      9  C   UNL     1      12.969   8.950  21.922  0.00  0.00    +0.092 C 
ATOM     10  C   UNL     1      14.921   7.431  20.591  0.00  0.00    +0.078 C 
ATOM     11  C   UNL     1      14.936   8.967  20.409  0.00  0.00    +0.025 C 
ATOM     12  C   UNL     1      12.674   8.933  19.424  0.00  0.00    +0.020 C 
ATOM     13  C   UNL     1      12.849   7.417  21.825  0.00  0.00    +0.097 C 
ATOM     14  C   UNL     1      12.772   7.399  19.435  0.00  0.00    +0.085 C 
BRANCH   9  16
ATOM      1  O   UNL     1      10.591   9.086  21.908  0.00  0.00    -0.275 OA
ATOM      3  N   UNL     1      11.734  10.719  23.075  0.00  0.00    -0.301 N 
ATOM     16  C   UNL     1      11.651   9.580  22.296  0.00  0.00    +0.220 C 
ATOM     17  C   UNL     1      10.554  11.448  23.515  0.00  0.00    +0.108 C 
ATOM     18  C   UNL     1      12.954  11.351  23.570  0.00  0.00    +0.108 C 
ATOM     19  C   UNL     1      11.070  12.399  24.584  0.00  0.00    +0.020 C 
ATOM     20  C   UNL     1      12.490  12.693  24.118  0.00  0.00    +0.020 C 
ENDBRANCH   9  16
ENDBRANCH  15  10
BRANCH  15   4
ATOM      4  N   UNL     1      17.152   6.400  20.095  0.00  0.00    -0.250 N 
ATOM      5  N   UNL     1      17.492   6.756  21.344  0.00  0.00    -0.065 NA
ATOM      6  N   UNL     1      18.738   6.342  21.546  0.00  0.00    -0.133 NA
ATOM     21  C   UNL     1      18.167   5.749  19.464  0.00  0.00    +0.135 A 
ATOM     22  C   UNL     1      19.166   5.722  20.404  0.00  0.00    +0.097 A 
BRANCH  22  23
ATOM     23  C   UNL     1      20.515   5.151  20.306  0.00  0.00    +0.143 C 
BRANCH  23   7
ATOM      7  N   UNL     1      21.524   5.910  21.064  0.00  0.00    -0.295 NA
ATOM     25  C   UNL     1      21.821   7.166  20.383  0.00  0.00    +0.105 C 
BRANCH   7  24
ATOM     24  C   UNL     1      22.732   5.110  21.232  0.00  0.00    +0.119 C 
BRANCH  24  26
ATOM     26  C   UNL     1      22.778   4.439  22.578  0.00  0.00    -0.033 A 
ATOM     27  C   UNL     1      23.016   5.194  23.727  0.00  0.00    +0.005 A 
ATOM     28  C   UNL     1      22.581   3.062  22.678  0.00  0.00    +0.005 A 
ATOM     29  C   UNL     1      23.059   4.572  24.975  0.00  0.00    +0.000 A 
ATOM     30  C   UNL     1      22.625   2.440  23.925  0.00  0.00    +0.000 A 
ATOM     31  C   UNL     1      22.862   3.194  25.074  0.00  0.00    +0.000 A 
ENDBRANCH  24  26
ENDBRANCH   7  24
ENDBRANCH  23   7
ENDBRANCH  22  23
ENDBRANCH  15   4
TORSDOF 7
ENDMDL
MODEL 9
REMARK VINA RESULT:      -6.0     28.512     30.374
REMARK  Name = 44716170
REMARK  8 active torsions:
REMARK  status: ('A' for Active; 'I' for Inactive)
REMARK    1  A    between atoms: N_4  and  C_15
REMARK    2  A    between atoms: N_7  and  C_23
REMARK    3  A    between atoms: N_7  and  C_24
REMARK    4  A    between atoms: N_7  and  C_25
REMARK    5  A    between atoms: C_9  and  C_16
REMARK    6  A    between atoms: C_10  and  C_15
REMARK    7  A    between atoms: C_22  and  C_23
REMARK    8  A    between atoms: C_24  and  C_26
REMARK                            x       y       z     vdW  Elec       q    Type
REMARK                         _______ _______ _______ _____ _____    ______ ____
ROOT
ATOM     15  C   UNL     1      -6.000 -12.266  17.776  0.00  0.00    +0.164 C 
ENDROOT
BRANCH  15  10
ATOM      2  N   UNL     1      -8.356 -11.680  18.398  0.00  0.00    -0.297 NA
ATOM      8  C   UNL     1      -8.907 -10.611  16.090  0.00  0.00    +0.005 C 
ATOM      9  C   UNL     1      -9.464  -9.761  17.249  0.00  0.00    +0.092 C 
ATOM     10  C   UNL     1      -7.108 -11.210  17.737  0.00  0.00    +0.078 C 
ATOM     11  C   UNL     1      -7.385 -10.724  16.296  0.00  0.00    +0.025 C 
ATOM     12  C   UNL     1      -9.468 -12.042  16.189  0.00  0.00    +0.020 C 
ATOM     13  C   UNL     1      -9.257 -10.513  18.578  0.00  0.00    +0.097 C 
ATOM     14  C   UNL     1      -9.062 -12.657  17.538  0.00  0.00    +0.085 C 
BRANCH   9  16
ATOM      1  O   UNL     1     -11.799 -10.219  17.336  0.00  0.00    -0.275 OA
ATOM      3  N   UNL     1     -11.157  -8.168  16.488  0.00  0.00    -0.301 N 
ATOM     16  C   UNL     1     -10.916  -9.415  17.036  0.00  0.00    +0.220 C 
ATOM     17  C   UNL     1     -12.503  -7.687  16.214  0.00  0.00    +0.108 C 
ATOM     18  C   UNL     1     -10.159  -7.171  16.115  0.00  0.00    +0.108 C 
ATOM     19  C   UNL     1     -12.328  -6.201  15.942  0.00  0.00    +0.020 C 
ATOM     20  C   UNL     1     -10.939  -6.132  15.321  0.00  0.00    +0.020 C 
ENDBRANCH   9  16
ENDBRANCH  15  10
BRANCH  15   4
ATOM      4  N   UNL     1      -4.828 -11.867  16.925  0.00  0.00    -0.250 N 
ATOM      5  N   UNL     1      -4.187 -10.707  17.140  0.00  0.00    -0.065 NA
ATOM      6  N   UNL     1      -3.211 -10.624  16.243  0.00  0.00    -0.133 NA
ATOM     21  C   UNL     1      -4.281 -12.557  15.887  0.00  0.00    +0.135 A 
ATOM     22  C   UNL     1      -3.255 -11.750  15.468  0.00  0.00    +0.097 A 
BRANCH  22  23
ATOM     23  C   UNL     1      -2.297 -11.961  14.375  0.00  0.00    +0.143 C 
BRANCH  23   7
ATOM      7  N   UNL     1      -2.910 -11.861  13.039  0.00  0.00    -0.295 NA
ATOM     25  C   UNL     1      -2.695 -13.098  12.296  0.00  0.00    +0.105 C 
BRANCH   7  24
ATOM     24  C   UNL     1      -2.360 -10.719  12.319  0.00  0.00    +0.119 C 
BRANCH  24  26
ATOM     26  C   UNL     1      -3.409 -10.012  11.502  0.00  0.00    -0.033 A 
ATOM     27  C   UNL     1      -3.082  -9.482  10.254  0.00  0.00    +0.005 A 
ATOM     28  C   UNL     1      -4.708  -9.888  11.994  0.00  0.00    +0.005 A 
ATOM     29  C   UNL     1      -4.055  -8.826   9.498  0.00  0.00    +0.000 A 
ATOM     30  C   UNL     1      -5.680  -9.232  11.239  0.00  0.00    +0.000 A 
ATOM     31  C   UNL     1      -5.354  -8.703   9.991  0.00  0.00    +0.000 A 
ENDBRANCH  24  26
ENDBRANCH   7  24
ENDBRANCH  23   7
ENDBRANCH  22  23
ENDBRANCH  15   4
TORSDOF 7
ENDMDL
MODEL 10
REMARK VINA RESULT:      -6.0     17.531     20.829
REMARK  Name = 44716170
REMARK  8 active torsions:
REMARK  status: ('A' for Active; 'I' for Inactive)
REMARK    1  A    between atoms: N_4  and  C_15
REMARK    2  A    between atoms: N_7  and  C_23
REMARK    3  A    between atoms: N_7  and  C_24
REMARK    4  A    between atoms: N_7  and  C_25
REMARK    5  A    between atoms: C_9  and  C_16
REMARK    6  A    between atoms: C_10  and  C_15
REMARK    7  A    between atoms: C_22  and  C_23
REMARK    8  A    between atoms: C_24  and  C_26
REMARK                            x       y       z     vdW  Elec       q    Type
REMARK                         _______ _______ _______ _____ _____    ______ ____
ROOT
ATOM     15  C   UNL     1      13.872   6.797   2.862  0.00  0.00    +0.164 C 
ENDROOT
BRANCH  15  10
ATOM      2  N   UNL     1      13.080   4.600   1.952  0.00  0.00    -0.297 NA
ATOM      8  C   UNL     1      13.335   5.315  -0.537  0.00  0.00    +0.005 C 
ATOM      9  C   UNL     1      12.021   4.542  -0.307  0.00  0.00    +0.092 C 
ATOM     10  C   UNL     1      12.994   6.081   1.831  0.00  0.00    +0.078 C 
ATOM     11  C   UNL     1      13.309   6.545   0.390  0.00  0.00    +0.025 C 
ATOM     12  C   UNL     1      14.524   4.450  -0.081  0.00  0.00    +0.020 C 
ATOM     13  C   UNL     1      11.993   4.001   1.136  0.00  0.00    +0.097 C 
ATOM     14  C   UNL     1      14.366   4.108   1.408  0.00  0.00    +0.085 C 
BRANCH   9  16
ATOM      1  O   UNL     1      12.563   2.429  -1.264  0.00  0.00    -0.275 OA
ATOM      3  N   UNL     1      10.861   3.633  -2.260  0.00  0.00    -0.301 N 
ATOM     16  C   UNL     1      11.848   3.431  -1.312  0.00  0.00    +0.220 C 
ATOM     17  C   UNL     1      10.574   2.659  -3.302  0.00  0.00    +0.108 C 
ATOM     18  C   UNL     1       9.980   4.792  -2.369  0.00  0.00    +0.108 C 
ATOM     19  C   UNL     1       9.248   3.112  -3.892  0.00  0.00    +0.020 C 
ATOM     20  C   UNL     1       9.301   4.625  -3.721  0.00  0.00    +0.020 C 
ENDBRANCH   9  16
ENDBRANCH  15  10
BRANCH  15   4
ATOM      4  N   UNL     1      13.066   7.737   3.714  0.00  0.00    -0.250 N 
ATOM      5  N   UNL     1      13.612   8.866   4.194  0.00  0.00    -0.065 NA
ATOM      6  N   UNL     1      12.676   9.484   4.906  0.00  0.00    -0.133 NA
ATOM     21  C   UNL     1      11.769   7.601   4.103  0.00  0.00    +0.135 A 
ATOM     22  C   UNL     1      11.541   8.722   4.859  0.00  0.00    +0.097 A 
BRANCH  22  23
ATOM     23  C   UNL     1      10.316   9.137   5.555  0.00  0.00    +0.143 C 
BRANCH  23   7
ATOM      7  N   UNL     1       9.243   8.131   5.490  0.00  0.00    -0.295 NA
ATOM     25  C   UNL     1       8.220   8.551   4.538  0.00  0.00    +0.105 C 
BRANCH   7  24
ATOM     24  C   UNL     1       8.667   7.925   6.814  0.00  0.00    +0.119 C 
BRANCH  24  26
ATOM     26  C   UNL     1       9.053   6.589   7.391  0.00  0.00    -0.033 A 
ATOM     27  C   UNL     1       9.431   5.546   6.545  0.00  0.00    +0.005 A 
ATOM     28  C   UNL     1       9.033   6.394   8.772  0.00  0.00    +0.005 A 
ATOM     29  C   UNL     1       9.788   4.308   7.080  0.00  0.00    +0.000 A 
ATOM     30  C   UNL     1       9.390   5.156   9.307  0.00  0.00    +0.000 A 
ATOM     31  C   UNL     1       9.768   4.114   8.462  0.00  0.00    +0.000 A 
ENDBRANCH  24  26
ENDBRANCH   7  24
ENDBRANCH  23   7
ENDBRANCH  22  23
ENDBRANCH  15   4
TORSDOF 7
ENDMDL
