MODEL 1
REMARK VINA RESULT:      -8.4      0.000      0.000
REMARK  Name = 26744624
REMARK  8 active torsions:
REMARK  status: ('A' for Active; 'I' for Inactive)
REMARK    1  A    between atoms: S_2  and  C_23
REMARK    2  A    between atoms: S_2  and  C_26
REMARK    3  A    between atoms: O_4  and  C_13
REMARK    4  A    between atoms: N_8  and  C_15
REMARK    5  A    between atoms: C_11  and  C_16
REMARK    6  A    between atoms: C_15  and  C_17
REMARK    7  A    between atoms: C_20  and  C_24
REMARK    8  A    between atoms: C_24  and  C_25
REMARK                            x       y       z     vdW  Elec       q    Type
REMARK                         _______ _______ _______ _____ _____    ______ ____
ROOT
ATOM      8  N   UNL     1      12.546   8.562  18.714  0.00  0.00    -0.285 NA
ATOM     11  C   UNL     1      13.505   7.462  18.487  0.00  0.00    +0.149 C 
ATOM     12  C   UNL     1      14.070   7.718  17.078  0.00  0.00    +0.061 C 
ATOM     13  C   UNL     1      13.337   8.955  16.577  0.00  0.00    +0.130 C 
ATOM     14  C   UNL     1      12.060   8.967  17.397  0.00  0.00    +0.116 C 
ENDROOT
BRANCH  11  16
ATOM      5  O   UNL     1      14.348   6.578  20.604  0.00  0.00    -0.336 OA
ATOM      9  N   UNL     1      15.729   8.031  19.605  0.00  0.00    -0.194 NA
ATOM     10  N   UNL     1      15.467   6.689  21.439  0.00  0.00    -0.061 NA
ATOM     16  C   UNL     1      14.584   7.400  19.548  0.00  0.00    +0.245 A 
ATOM     20  C   UNL     1      16.235   7.563  20.783  0.00  0.00    +0.176 A 
BRANCH  20  24
ATOM     24  C   UNL     1      17.540   7.992  21.298  0.00  0.00    +0.116 C 
BRANCH  24  25
ATOM      1 CL   UNL     1      19.927   8.119  23.269  0.00  0.00    -0.083 Cl
ATOM      3  F   UNL     1      21.616   4.124  20.671  0.00  0.00    -0.205 F 
ATOM     25  C   UNL     1      18.656   6.961  21.153  0.00  0.00    -0.021 A 
ATOM     27  C   UNL     1      19.762   6.957  22.003  0.00  0.00    +0.047 A 
ATOM     28  C   UNL     1      18.549   6.008  20.141  0.00  0.00    +0.008 A 
ATOM     29  C   UNL     1      20.762   5.998  21.840  0.00  0.00    +0.058 A 
ATOM     30  C   UNL     1      19.549   5.050  19.978  0.00  0.00    +0.039 A 
ATOM     31  C   UNL     1      20.655   5.044  20.828  0.00  0.00    +0.125 A 
ENDBRANCH  24  25
ENDBRANCH  20  24
ENDBRANCH  11  16
BRANCH  13   4
ATOM      4  O   UNL     1      13.070   8.854  15.191  0.00  0.00    -0.390 OA
ATOM     32  H   UNL     1      12.278   9.387  15.006  0.00  0.00    +0.210 HD
ENDBRANCH  13   4
BRANCH   8  15
ATOM     15  C   UNL     1      11.458   8.198  19.612  0.00  0.00    +0.120 C 
BRANCH  15  17
ATOM     17  C   UNL     1      11.375   9.124  20.796  0.00  0.00    -0.033 A 
ATOM     18  C   UNL     1      10.729   8.710  21.961  0.00  0.00    +0.007 A 
ATOM     19  C   UNL     1      11.944  10.397  20.730  0.00  0.00    +0.007 A 
ATOM     21  C   UNL     1      10.651   9.567  23.058  0.00  0.00    +0.027 A 
ATOM     22  C   UNL     1      11.866  11.254  21.827  0.00  0.00    +0.027 A 
ATOM     23  C   UNL     1      11.220  10.839  22.991  0.00  0.00    +0.088 A 
BRANCH  23   2
ATOM      2  S   UNL     1      11.123  11.912  24.365  0.00  0.00    -0.006 S 
ATOM      6  O   UNL     1       9.954  12.768  24.215  0.00  0.00    -0.170 OA
ATOM      7  O   UNL     1      11.281  11.111  25.571  0.00  0.00    -0.170 OA
ATOM     26  C   UNL     1      12.554  12.957  24.212  0.00  0.00    +0.200 C 
ENDBRANCH  23   2
ENDBRANCH  15  17
ENDBRANCH   8  15
TORSDOF 7
ENDMDL
MODEL 2
REMARK VINA RESULT:      -7.6      1.734      2.089
REMARK  Name = 26744624
REMARK  8 active torsions:
REMARK  status: ('A' for Active; 'I' for Inactive)
REMARK    1  A    between atoms: S_2  and  C_23
REMARK    2  A    between atoms: S_2  and  C_26
REMARK    3  A    between atoms: O_4  and  C_13
REMARK    4  A    between atoms: N_8  and  C_15
REMARK    5  A    between atoms: C_11  and  C_16
REMARK    6  A    between atoms: C_15  and  C_17
REMARK    7  A    between atoms: C_20  and  C_24
REMARK    8  A    between atoms: C_24  and  C_25
REMARK                            x       y       z     vdW  Elec       q    Type
REMARK                         _______ _______ _______ _____ _____    ______ ____
ROOT
ATOM      8  N   UNL     1      12.960   8.751  18.514  0.00  0.00    -0.285 NA
ATOM     11  C   UNL     1      13.657   7.639  17.837  0.00  0.00    +0.149 C 
ATOM     12  C   UNL     1      14.091   8.218  16.477  0.00  0.00    +0.061 C 
ATOM     13  C   UNL     1      13.554   9.644  16.466  0.00  0.00    +0.130 C 
ATOM     14  C   UNL     1      12.409   9.599  17.459  0.00  0.00    +0.116 C 
ENDROOT
BRANCH  11  16
ATOM      5  O   UNL     1      15.631   6.210  18.016  0.00  0.00    -0.336 OA
ATOM      9  N   UNL     1      15.171   7.371  19.875  0.00  0.00    -0.194 NA
ATOM     10  N   UNL     1      16.617   5.861  18.947  0.00  0.00    -0.061 NA
ATOM     16  C   UNL     1      14.821   7.103  18.643  0.00  0.00    +0.245 A 
ATOM     20  C   UNL     1      16.278   6.586  20.016  0.00  0.00    +0.176 A 
BRANCH  20  24
ATOM     24  C   UNL     1      17.047   6.538  21.265  0.00  0.00    +0.116 C 
BRANCH  24  25
ATOM      1 CL   UNL     1      19.747   5.266  20.431  0.00  0.00    -0.083 Cl
ATOM      3  F   UNL     1      21.612   9.874  21.358  0.00  0.00    -0.205 F 
ATOM     25  C   UNL     1      18.298   7.413  21.280  0.00  0.00    -0.021 A 
ATOM     27  C   UNL     1      19.547   6.911  20.919  0.00  0.00    +0.047 A 
ATOM     28  C   UNL     1      18.166   8.747  21.667  0.00  0.00    +0.008 A 
ATOM     29  C   UNL     1      20.667   7.742  20.944  0.00  0.00    +0.058 A 
ATOM     30  C   UNL     1      19.287   9.578  21.693  0.00  0.00    +0.039 A 
ATOM     31  C   UNL     1      20.537   9.076  21.331  0.00  0.00    +0.125 A 
ENDBRANCH  24  25
ENDBRANCH  20  24
ENDBRANCH  11  16
BRANCH  13   4
ATOM      4  O   UNL     1      13.111  10.003  15.170  0.00  0.00    -0.390 OA
ATOM     32  H   UNL     1      12.361   9.427  14.948  0.00  0.00    +0.210 HD
ENDBRANCH  13   4
BRANCH   8  15
ATOM     15  C   UNL     1      11.934   8.302  19.447  0.00  0.00    +0.120 C 
BRANCH  15  17
ATOM     17  C   UNL     1      11.819   9.218  20.636  0.00  0.00    -0.033 A 
ATOM     18  C   UNL     1      10.852   8.974  21.612  0.00  0.00    +0.007 A 
ATOM     19  C   UNL     1      12.678  10.310  20.764  0.00  0.00    +0.007 A 
ATOM     21  C   UNL     1      10.745   9.823  22.714  0.00  0.00    +0.027 A 
ATOM     22  C   UNL     1      12.570  11.159  21.865  0.00  0.00    +0.027 A 
ATOM     23  C   UNL     1      11.604  10.914  22.841  0.00  0.00    +0.088 A 
BRANCH  23   2
ATOM      2  S   UNL     1      11.468  11.977  24.220  0.00  0.00    -0.006 S 
ATOM      6  O   UNL     1      10.072  12.359  24.387  0.00  0.00    -0.170 OA
ATOM      7  O   UNL     1      12.187  11.365  25.329  0.00  0.00    -0.170 OA
ATOM     26  C   UNL     1      12.353  13.442  23.738  0.00  0.00    +0.200 C 
ENDBRANCH  23   2
ENDBRANCH  15  17
ENDBRANCH   8  15
TORSDOF 7
ENDMDL
MODEL 3
REMARK VINA RESULT:      -7.3      1.879      2.404
REMARK  Name = 26744624
REMARK  8 active torsions:
REMARK  status: ('A' for Active; 'I' for Inactive)
REMARK    1  A    between atoms: S_2  and  C_23
REMARK    2  A    between atoms: S_2  and  C_26
REMARK    3  A    between atoms: O_4  and  C_13
REMARK    4  A    between atoms: N_8  and  C_15
REMARK    5  A    between atoms: C_11  and  C_16
REMARK    6  A    between atoms: C_15  and  C_17
REMARK    7  A    between atoms: C_20  and  C_24
REMARK    8  A    between atoms: C_24  and  C_25
REMARK                            x       y       z     vdW  Elec       q    Type
REMARK                         _______ _______ _______ _____ _____    ______ ____
ROOT
ATOM      8  N   UNL     1      12.063   8.349  19.564  0.00  0.00    -0.285 NA
ATOM     11  C   UNL     1      12.707   7.137  19.017  0.00  0.00    +0.149 C 
ATOM     12  C   UNL     1      12.698   7.342  17.491  0.00  0.00    +0.061 C 
ATOM     13  C   UNL     1      11.989   8.673  17.276  0.00  0.00    +0.130 C 
ATOM     14  C   UNL     1      11.153   8.837  18.530  0.00  0.00    +0.116 C 
ENDROOT
BRANCH  11  16
ATOM      5  O   UNL     1      14.185   6.611  20.891  0.00  0.00    -0.336 OA
ATOM      9  N   UNL     1      15.255   6.978  18.958  0.00  0.00    -0.194 NA
ATOM     10  N   UNL     1      15.550   6.458  21.166  0.00  0.00    -0.061 NA
ATOM     16  C   UNL     1      14.099   6.916  19.570  0.00  0.00    +0.245 A 
ATOM     20  C   UNL     1      16.114   6.690  19.978  0.00  0.00    +0.176 A 
BRANCH  20  24
ATOM     24  C   UNL     1      17.568   6.639  19.784  0.00  0.00    +0.116 C 
BRANCH  24  25
ATOM      1 CL   UNL     1      17.185   9.623  20.526  0.00  0.00    -0.083 Cl
ATOM      3  F   UNL     1      20.657   8.651  24.072  0.00  0.00    -0.205 F 
ATOM     25  C   UNL     1      18.388   7.211  20.937  0.00  0.00    -0.021 A 
ATOM     27  C   UNL     1      18.270   8.544  21.327  0.00  0.00    +0.047 A 
ATOM     28  C   UNL     1      19.271   6.363  21.605  0.00  0.00    +0.008 A 
ATOM     29  C   UNL     1      19.036   9.031  22.386  0.00  0.00    +0.058 A 
ATOM     30  C   UNL     1      20.038   6.850  22.664  0.00  0.00    +0.039 A 
ATOM     31  C   UNL     1      19.920   8.183  23.055  0.00  0.00    +0.125 A 
ENDBRANCH  24  25
ENDBRANCH  20  24
ENDBRANCH  11  16
BRANCH  13   4
ATOM      4  O   UNL     1      11.187   8.632  16.111  0.00  0.00    -0.390 OA
ATOM     32  H   UNL     1      10.337   9.053  16.327  0.00  0.00    +0.210 HD
ENDBRANCH  13   4
BRANCH   8  15
ATOM     15  C   UNL     1      11.381   8.114  20.830  0.00  0.00    +0.120 C 
BRANCH  15  17
ATOM     17  C   UNL     1      11.651   9.212  21.824  0.00  0.00    -0.033 A 
ATOM     18  C   UNL     1      12.916   9.798  21.888  0.00  0.00    +0.007 A 
ATOM     19  C   UNL     1      10.639   9.645  22.681  0.00  0.00    +0.007 A 
ATOM     21  C   UNL     1      13.167  10.814  22.810  0.00  0.00    +0.027 A 
ATOM     22  C   UNL     1      10.890  10.661  23.602  0.00  0.00    +0.027 A 
ATOM     23  C   UNL     1      12.155  11.246  23.666  0.00  0.00    +0.088 A 
BRANCH  23   2
ATOM      2  S   UNL     1      12.470  12.519  24.819  0.00  0.00    -0.006 S 
ATOM      6  O   UNL     1      13.162  11.954  25.969  0.00  0.00    -0.170 OA
ATOM      7  O   UNL     1      13.061  13.639  24.099  0.00  0.00    -0.170 OA
ATOM     26  C   UNL     1      10.858  13.019  25.378  0.00  0.00    +0.200 C 
ENDBRANCH  23   2
ENDBRANCH  15  17
ENDBRANCH   8  15
TORSDOF 7
ENDMDL
MODEL 4
REMARK VINA RESULT:      -7.1      3.690      6.772
REMARK  Name = 26744624
REMARK  8 active torsions:
REMARK  status: ('A' for Active; 'I' for Inactive)
REMARK    1  A    between atoms: S_2  and  C_23
REMARK    2  A    between atoms: S_2  and  C_26
REMARK    3  A    between atoms: O_4  and  C_13
REMARK    4  A    between atoms: N_8  and  C_15
REMARK    5  A    between atoms: C_11  and  C_16
REMARK    6  A    between atoms: C_15  and  C_17
REMARK    7  A    between atoms: C_20  and  C_24
REMARK    8  A    between atoms: C_24  and  C_25
REMARK                            x       y       z     vdW  Elec       q    Type
REMARK                         _______ _______ _______ _____ _____    ______ ____
ROOT
ATOM      8  N   UNL     1      12.437  12.469  21.033  0.00  0.00    -0.285 NA
ATOM     11  C   UNL     1      12.140  11.856  22.343  0.00  0.00    +0.149 C 
ATOM     12  C   UNL     1      10.896  12.606  22.855  0.00  0.00    +0.061 C 
ATOM     13  C   UNL     1      10.597  13.649  21.786  0.00  0.00    +0.130 C 
ATOM     14  C   UNL     1      11.932  13.839  21.091  0.00  0.00    +0.116 C 
ENDROOT
BRANCH  11  16
ATOM      5  O   UNL     1      10.851   9.861  22.920  0.00  0.00    -0.336 OA
ATOM      9  N   UNL     1      12.628   9.457  21.619  0.00  0.00    -0.194 NA
ATOM     10  N   UNL     1      10.861   8.479  22.694  0.00  0.00    -0.061 NA
ATOM     16  C   UNL     1      11.924  10.360  22.253  0.00  0.00    +0.245 A 
ATOM     20  C   UNL     1      11.938   8.319  21.919  0.00  0.00    +0.176 A 
BRANCH  20  24
ATOM     24  C   UNL     1      12.351   7.001  21.425  0.00  0.00    +0.116 C 
BRANCH  24  25
ATOM      1 CL   UNL     1      12.694   7.137  18.348  0.00  0.00    -0.083 Cl
ATOM      3  F   UNL     1      17.627   6.793  19.403  0.00  0.00    -0.205 F 
ATOM     25  C   UNL     1      13.763   6.946  20.849  0.00  0.00    -0.021 A 
ATOM     27  C   UNL     1      13.996   7.002  19.475  0.00  0.00    +0.047 A 
ATOM     28  C   UNL     1      14.835   6.840  21.736  0.00  0.00    +0.008 A 
ATOM     29  C   UNL     1      15.301   6.950  18.987  0.00  0.00    +0.058 A 
ATOM     30  C   UNL     1      16.140   6.788  21.246  0.00  0.00    +0.039 A 
ATOM     31  C   UNL     1      16.373   6.843  19.872  0.00  0.00    +0.125 A 
ENDBRANCH  24  25
ENDBRANCH  20  24
ENDBRANCH  11  16
BRANCH  13   4
ATOM      4  O   UNL     1      10.135  14.851  22.372  0.00  0.00    -0.390 OA
ATOM     32  H   UNL     1       9.552  15.286  21.727  0.00  0.00    +0.210 HD
ENDBRANCH  13   4
BRANCH   8  15
ATOM     15  C   UNL     1      13.851  12.420  20.684  0.00  0.00    +0.120 C 
BRANCH  15  17
ATOM     17  C   UNL     1      14.060  12.017  19.249  0.00  0.00    -0.033 A 
ATOM     18  C   UNL     1      14.146  12.994  18.256  0.00  0.00    +0.007 A 
ATOM     19  C   UNL     1      14.169  10.668  18.909  0.00  0.00    +0.007 A 
ATOM     21  C   UNL     1      14.340  12.622  16.926  0.00  0.00    +0.027 A 
ATOM     22  C   UNL     1      14.362  10.296  17.579  0.00  0.00    +0.027 A 
ATOM     23  C   UNL     1      14.448  11.273  16.588  0.00  0.00    +0.088 A 
BRANCH  23   2
ATOM      2  S   UNL     1      14.690  10.808  14.922  0.00  0.00    -0.006 S 
ATOM      6  O   UNL     1      14.786   9.357  14.846  0.00  0.00    -0.170 OA
ATOM      7  O   UNL     1      13.704  11.510  14.113  0.00  0.00    -0.170 OA
ATOM     26  C   UNL     1      16.294  11.456  14.511  0.00  0.00    +0.200 C 
ENDBRANCH  23   2
ENDBRANCH  15  17
ENDBRANCH   8  15
TORSDOF 7
ENDMDL
MODEL 5
REMARK VINA RESULT:      -7.1      4.246      5.777
REMARK  Name = 26744624
REMARK  8 active torsions:
REMARK  status: ('A' for Active; 'I' for Inactive)
REMARK    1  A    between atoms: S_2  and  C_23
REMARK    2  A    between atoms: S_2  and  C_26
REMARK    3  A    between atoms: O_4  and  C_13
REMARK    4  A    between atoms: N_8  and  C_15
REMARK    5  A    between atoms: C_11  and  C_16
REMARK    6  A    between atoms: C_15  and  C_17
REMARK    7  A    between atoms: C_20  and  C_24
REMARK    8  A    between atoms: C_24  and  C_25
REMARK                            x       y       z     vdW  Elec       q    Type
REMARK                         _______ _______ _______ _____ _____    ______ ____
ROOT
ATOM      8  N   UNL     1      14.736  12.799  17.888  0.00  0.00    -0.285 NA
ATOM     11  C   UNL     1      14.860  12.180  16.553  0.00  0.00    +0.149 C 
ATOM     12  C   UNL     1      16.366  12.229  16.235  0.00  0.00    +0.061 C 
ATOM     13  C   UNL     1      16.998  12.932  17.429  0.00  0.00    +0.130 C 
ATOM     14  C   UNL     1      15.853  13.733  18.017  0.00  0.00    +0.116 C 
ENDROOT
BRANCH  11  16
ATOM      5  O   UNL     1      13.748  10.381  15.327  0.00  0.00    -0.336 OA
ATOM      9  N   UNL     1      14.256   9.866  17.446  0.00  0.00    -0.194 NA
ATOM     10  N   UNL     1      13.301   9.069  15.526  0.00  0.00    -0.061 NA
ATOM     16  C   UNL     1      14.297  10.775  16.506  0.00  0.00    +0.245 A 
ATOM     20  C   UNL     1      13.636   8.837  16.799  0.00  0.00    +0.176 A 
BRANCH  20  24
ATOM     24  C   UNL     1      13.353   7.557  17.456  0.00  0.00    +0.116 C 
BRANCH  24  25
ATOM      1 CL   UNL     1      15.086   6.477  19.787  0.00  0.00    -0.083 Cl
ATOM      3  F   UNL     1      11.246   8.042  22.681  0.00  0.00    -0.205 F 
ATOM     25  C   UNL     1      12.811   7.673  18.878  0.00  0.00    -0.021 A 
ATOM     27  C   UNL     1      13.533   7.209  19.977  0.00  0.00    +0.047 A 
ATOM     28  C   UNL     1      11.560   8.263  19.063  0.00  0.00    +0.008 A 
ATOM     29  C   UNL     1      13.005   7.334  21.261  0.00  0.00    +0.058 A 
ATOM     30  C   UNL     1      11.032   8.387  20.348  0.00  0.00    +0.039 A 
ATOM     31  C   UNL     1      11.754   7.923  21.447  0.00  0.00    +0.125 A 
ENDBRANCH  24  25
ENDBRANCH  20  24
ENDBRANCH  11  16
BRANCH  13   4
ATOM      4  O   UNL     1      18.064  13.766  17.015  0.00  0.00    -0.390 OA
ATOM     32  H   UNL     1      17.781  14.687  17.143  0.00  0.00    +0.210 HD
ENDBRANCH  13   4
BRANCH   8  15
ATOM     15  C   UNL     1      13.450  13.449  18.102  0.00  0.00    +0.120 C 
BRANCH  15  17
ATOM     17  C   UNL     1      12.874  13.121  19.454  0.00  0.00    -0.033 A 
ATOM     18  C   UNL     1      12.028  14.029  20.090  0.00  0.00    +0.007 A 
ATOM     19  C   UNL     1      13.186  11.909  20.071  0.00  0.00    +0.007 A 
ATOM     21  C   UNL     1      11.494  13.725  21.343  0.00  0.00    +0.027 A 
ATOM     22  C   UNL     1      12.652  11.605  21.323  0.00  0.00    +0.027 A 
ATOM     23  C   UNL     1      11.806  12.514  21.959  0.00  0.00    +0.088 A 
BRANCH  23   2
ATOM      2  S   UNL     1      11.138  12.134  23.527  0.00  0.00    -0.006 S 
ATOM      6  O   UNL     1      10.237  13.205  23.929  0.00  0.00    -0.170 OA
ATOM      7  O   UNL     1      10.656  10.761  23.488  0.00  0.00    -0.170 OA
ATOM     26  C   UNL     1      12.534  12.191  24.627  0.00  0.00    +0.200 C 
ENDBRANCH  23   2
ENDBRANCH  15  17
ENDBRANCH   8  15
TORSDOF 7
ENDMDL
MODEL 6
REMARK VINA RESULT:      -7.1      3.881      7.073
REMARK  Name = 26744624
REMARK  8 active torsions:
REMARK  status: ('A' for Active; 'I' for Inactive)
REMARK    1  A    between atoms: S_2  and  C_23
REMARK    2  A    between atoms: S_2  and  C_26
REMARK    3  A    between atoms: O_4  and  C_13
REMARK    4  A    between atoms: N_8  and  C_15
REMARK    5  A    between atoms: C_11  and  C_16
REMARK    6  A    between atoms: C_15  and  C_17
REMARK    7  A    between atoms: C_20  and  C_24
REMARK    8  A    between atoms: C_24  and  C_25
REMARK                            x       y       z     vdW  Elec       q    Type
REMARK                         _______ _______ _______ _____ _____    ______ ____
ROOT
ATOM      8  N   UNL     1      17.951   7.021  20.876  0.00  0.00    -0.285 NA
ATOM     11  C   UNL     1      18.574   8.034  21.752  0.00  0.00    +0.149 C 
ATOM     12  C   UNL     1      20.082   7.935  21.455  0.00  0.00    +0.061 C 
ATOM     13  C   UNL     1      20.210   6.811  20.435  0.00  0.00    +0.130 C 
ATOM     14  C   UNL     1      18.957   5.985  20.657  0.00  0.00    +0.116 C 
ENDROOT
BRANCH  11  16
ATOM      5  O   UNL     1      18.723  10.221  20.672  0.00  0.00    -0.336 OA
ATOM      9  N   UNL     1      16.955   9.989  22.026  0.00  0.00    -0.194 NA
ATOM     10  N   UNL     1      18.031  11.437  20.620  0.00  0.00    -0.061 NA
ATOM     16  C   UNL     1      18.022   9.424  21.521  0.00  0.00    +0.245 A 
ATOM     20  C   UNL     1      17.002  11.222  21.445  0.00  0.00    +0.176 A 
BRANCH  20  24
ATOM     24  C   UNL     1      15.989  12.250  21.708  0.00  0.00    +0.116 C 
BRANCH  24  25
ATOM      1 CL   UNL     1      14.882  11.601  24.529  0.00  0.00    -0.083 Cl
ATOM      3  F   UNL     1      10.685  10.314  22.021  0.00  0.00    -0.205 F 
ATOM     25  C   UNL     1      14.560  11.725  21.825  0.00  0.00    -0.021 A 
ATOM     27  C   UNL     1      13.995  11.411  23.060  0.00  0.00    +0.047 A 
ATOM     28  C   UNL     1      13.817  11.564  20.655  0.00  0.00    +0.008 A 
ATOM     29  C   UNL     1      12.686  10.935  23.126  0.00  0.00    +0.058 A 
ATOM     30  C   UNL     1      12.508  11.087  20.722  0.00  0.00    +0.039 A 
ATOM     31  C   UNL     1      11.942  10.773  21.958  0.00  0.00    +0.125 A 
ENDBRANCH  24  25
ENDBRANCH  20  24
ENDBRANCH  11  16
BRANCH  13   4
ATOM      4  O   UNL     1      21.385   6.055  20.665  0.00  0.00    -0.390 OA
ATOM     32  H   UNL     1      21.633   6.178  21.597  0.00  0.00    +0.210 HD
ENDBRANCH  13   4
BRANCH   8  15
ATOM     15  C   UNL     1      16.713   6.477  21.419  0.00  0.00    +0.120 C 
BRANCH  15  17
ATOM     17  C   UNL     1      15.513   6.904  20.616  0.00  0.00    -0.033 A 
ATOM     18  C   UNL     1      14.302   7.166  21.259  0.00  0.00    +0.007 A 
ATOM     19  C   UNL     1      15.610   7.039  19.231  0.00  0.00    +0.007 A 
ATOM     21  C   UNL     1      13.190   7.562  20.516  0.00  0.00    +0.027 A 
ATOM     22  C   UNL     1      14.498   7.435  18.488  0.00  0.00    +0.027 A 
ATOM     23  C   UNL     1      13.288   7.697  19.131  0.00  0.00    +0.088 A 
BRANCH  23   2
ATOM      2  S   UNL     1      11.895   8.192  18.201  0.00  0.00    -0.006 S 
ATOM      6  O   UNL     1      11.603   7.169  17.206  0.00  0.00    -0.170 OA
ATOM      7  O   UNL     1      10.859   8.608  19.135  0.00  0.00    -0.170 OA
ATOM     26  C   UNL     1      12.444   9.634  17.317  0.00  0.00    +0.200 C 
ENDBRANCH  23   2
ENDBRANCH  15  17
ENDBRANCH   8  15
TORSDOF 7
ENDMDL
MODEL 7
REMARK VINA RESULT:      -7.0     27.238     29.174
REMARK  Name = 26744624
REMARK  8 active torsions:
REMARK  status: ('A' for Active; 'I' for Inactive)
REMARK    1  A    between atoms: S_2  and  C_23
REMARK    2  A    between atoms: S_2  and  C_26
REMARK    3  A    between atoms: O_4  and  C_13
REMARK    4  A    between atoms: N_8  and  C_15
REMARK    5  A    between atoms: C_11  and  C_16
REMARK    6  A    between atoms: C_15  and  C_17
REMARK    7  A    between atoms: C_20  and  C_24
REMARK    8  A    between atoms: C_24  and  C_25
REMARK                            x       y       z     vdW  Elec       q    Type
REMARK                         _______ _______ _______ _____ _____    ______ ____
ROOT
ATOM      8  N   UNL     1      -5.802 -10.864  16.717  0.00  0.00    -0.285 NA
ATOM     11  C   UNL     1      -4.447 -10.816  17.302  0.00  0.00    +0.149 C 
ATOM     12  C   UNL     1      -4.487 -11.822  18.467  0.00  0.00    +0.061 C 
ATOM     13  C   UNL     1      -5.916 -12.348  18.485  0.00  0.00    +0.130 C 
ATOM     14  C   UNL     1      -6.707 -11.253  17.796  0.00  0.00    +0.116 C 
ENDROOT
BRANCH  11  16
ATOM      5  O   UNL     1      -2.105 -10.732  16.609  0.00  0.00    -0.336 OA
ATOM      9  N   UNL     1      -3.457 -11.742  15.138  0.00  0.00    -0.194 NA
ATOM     10  N   UNL     1      -1.291 -11.127  15.541  0.00  0.00    -0.061 NA
ATOM     16  C   UNL     1      -3.364 -11.132  16.293  0.00  0.00    +0.245 A 
ATOM     20  C   UNL     1      -2.161 -11.715  14.714  0.00  0.00    +0.176 A 
BRANCH  20  24
ATOM     24  C   UNL     1      -1.746 -12.294  13.432  0.00  0.00    +0.116 C 
BRANCH  24  25
ATOM      1 CL   UNL     1      -3.644 -13.992  11.668  0.00  0.00    -0.083 Cl
ATOM      3  F   UNL     1      -4.010  -9.774   8.904  0.00  0.00    -0.205 F 
ATOM     25  C   UNL     1      -2.372 -11.641  12.202  0.00  0.00    -0.021 A 
ATOM     27  C   UNL     1      -3.235 -12.343  11.361  0.00  0.00    +0.047 A 
ATOM     28  C   UNL     1      -2.062 -10.308  11.931  0.00  0.00    +0.008 A 
ATOM     29  C   UNL     1      -3.789 -11.712  10.248  0.00  0.00    +0.058 A 
ATOM     30  C   UNL     1      -2.616  -9.678  10.816  0.00  0.00    +0.039 A 
ATOM     31  C   UNL     1      -3.480 -10.380   9.975  0.00  0.00    +0.125 A 
ENDBRANCH  24  25
ENDBRANCH  20  24
ENDBRANCH  11  16
BRANCH  13   4
ATOM      4  O   UNL     1      -6.357 -12.558  19.813  0.00  0.00    -0.390 OA
ATOM     32  H   UNL     1      -6.167 -13.484  20.041  0.00  0.00    +0.210 HD
ENDBRANCH  13   4
BRANCH   8  15
ATOM     15  C   UNL     1      -6.202  -9.609  16.092  0.00  0.00    +0.120 C 
BRANCH  15  17
ATOM     17  C   UNL     1      -6.708  -9.818  14.690  0.00  0.00    -0.033 A 
ATOM     18  C   UNL     1      -8.080  -9.902  14.450  0.00  0.00    +0.007 A 
ATOM     19  C   UNL     1      -5.807  -9.927  13.630  0.00  0.00    +0.007 A 
ATOM     21  C   UNL     1      -8.550 -10.096  13.151  0.00  0.00    +0.027 A 
ATOM     22  C   UNL     1      -6.277 -10.121  12.331  0.00  0.00    +0.027 A 
ATOM     23  C   UNL     1      -7.649 -10.205  12.092  0.00  0.00    +0.088 A 
BRANCH  23   2
ATOM      2  S   UNL     1      -8.238 -10.448  10.466  0.00  0.00    -0.006 S 
ATOM      6  O   UNL     1      -7.146 -10.223   9.529  0.00  0.00    -0.170 OA
ATOM      7  O   UNL     1      -8.965 -11.710  10.437  0.00  0.00    -0.170 OA
ATOM     26  C   UNL     1      -9.412  -9.135  10.220  0.00  0.00    +0.200 C 
ENDBRANCH  23   2
ENDBRANCH  15  17
ENDBRANCH   8  15
TORSDOF 7
ENDMDL
MODEL 8
REMARK VINA RESULT:      -7.0      4.139      6.960
REMARK  Name = 26744624
REMARK  8 active torsions:
REMARK  status: ('A' for Active; 'I' for Inactive)
REMARK    1  A    between atoms: S_2  and  C_23
REMARK    2  A    between atoms: S_2  and  C_26
REMARK    3  A    between atoms: O_4  and  C_13
REMARK    4  A    between atoms: N_8  and  C_15
REMARK    5  A    between atoms: C_11  and  C_16
REMARK    6  A    between atoms: C_15  and  C_17
REMARK    7  A    between atoms: C_20  and  C_24
REMARK    8  A    between atoms: C_24  and  C_25
REMARK                            x       y       z     vdW  Elec       q    Type
REMARK                         _______ _______ _______ _____ _____    ______ ____
ROOT
ATOM      8  N   UNL     1      12.353  12.256  22.368  0.00  0.00    -0.285 NA
ATOM     11  C   UNL     1      12.069  11.242  23.404  0.00  0.00    +0.149 C 
ATOM     12  C   UNL     1      10.847  11.790  24.165  0.00  0.00    +0.061 C 
ATOM     13  C   UNL     1      10.547  13.133  23.514  0.00  0.00    +0.130 C 
ATOM     14  C   UNL     1      11.872  13.532  22.893  0.00  0.00    +0.116 C 
ENDROOT
BRANCH  11  16
ATOM      5  O   UNL     1      10.601   9.322  23.042  0.00  0.00    -0.336 OA
ATOM      9  N   UNL     1      12.634   9.103  22.130  0.00  0.00    -0.194 NA
ATOM     10  N   UNL     1      10.616   8.067  22.421  0.00  0.00    -0.061 NA
ATOM     16  C   UNL     1      11.827   9.865  22.823  0.00  0.00    +0.245 A 
ATOM     20  C   UNL     1      11.847   8.011  21.907  0.00  0.00    +0.176 A 
BRANCH  20  24
ATOM     24  C   UNL     1      12.322   6.847  21.151  0.00  0.00    +0.116 C 
BRANCH  24  25
ATOM      1 CL   UNL     1      15.365   6.404  20.765  0.00  0.00    -0.083 Cl
ATOM      3  F   UNL     1      14.491   8.085  16.077  0.00  0.00    -0.205 F 
ATOM     25  C   UNL     1      12.937   7.172  19.792  0.00  0.00    -0.021 A 
ATOM     27  C   UNL     1      14.298   7.000  19.545  0.00  0.00    +0.047 A 
ATOM     28  C   UNL     1      12.099   7.653  18.786  0.00  0.00    +0.008 A 
ATOM     29  C   UNL     1      14.823   7.307  18.290  0.00  0.00    +0.058 A 
ATOM     30  C   UNL     1      12.625   7.961  17.531  0.00  0.00    +0.039 A 
ATOM     31  C   UNL     1      13.986   7.788  17.283  0.00  0.00    +0.125 A 
ENDBRANCH  24  25
ENDBRANCH  20  24
ENDBRANCH  11  16
BRANCH  13   4
ATOM      4  O   UNL     1      10.115  14.074  24.479  0.00  0.00    -0.390 OA
ATOM     32  H   UNL     1      10.802  14.758  24.549  0.00  0.00    +0.210 HD
ENDBRANCH  13   4
BRANCH   8  15
ATOM     15  C   UNL     1      13.759  12.313  21.992  0.00  0.00    +0.120 C 
BRANCH  15  17
ATOM     17  C   UNL     1      13.940  12.307  20.497  0.00  0.00    -0.033 A 
ATOM     18  C   UNL     1      13.283  11.354  19.719  0.00  0.00    +0.007 A 
ATOM     19  C   UNL     1      14.764  13.255  19.889  0.00  0.00    +0.007 A 
ATOM     21  C   UNL     1      13.450  11.348  18.334  0.00  0.00    +0.027 A 
ATOM     22  C   UNL     1      14.931  13.249  18.504  0.00  0.00    +0.027 A 
ATOM     23  C   UNL     1      14.273  12.295  17.727  0.00  0.00    +0.088 A 
BRANCH  23   2
ATOM      2  S   UNL     1      14.483  12.287  15.993  0.00  0.00    -0.006 S 
ATOM      6  O   UNL     1      13.891  11.072  15.451  0.00  0.00    -0.170 OA
ATOM      7  O   UNL     1      14.060  13.585  15.486  0.00  0.00    -0.170 OA
ATOM     26  C   UNL     1      16.241  12.156  15.761  0.00  0.00    +0.200 C 
ENDBRANCH  23   2
ENDBRANCH  15  17
ENDBRANCH   8  15
TORSDOF 7
ENDMDL
MODEL 9
REMARK VINA RESULT:      -6.9     15.258     18.620
REMARK  Name = 26744624
REMARK  8 active torsions:
REMARK  status: ('A' for Active; 'I' for Inactive)
REMARK    1  A    between atoms: S_2  and  C_23
REMARK    2  A    between atoms: S_2  and  C_26
REMARK    3  A    between atoms: O_4  and  C_13
REMARK    4  A    between atoms: N_8  and  C_15
REMARK    5  A    between atoms: C_11  and  C_16
REMARK    6  A    between atoms: C_15  and  C_17
REMARK    7  A    between atoms: C_20  and  C_24
REMARK    8  A    between atoms: C_24  and  C_25
REMARK                            x       y       z     vdW  Elec       q    Type
REMARK                         _______ _______ _______ _____ _____    ______ ____
ROOT
ATOM      8  N   UNL     1       9.475   7.144   7.035  0.00  0.00    -0.285 NA
ATOM     11  C   UNL     1      10.711   6.354   6.858  0.00  0.00    +0.149 C 
ATOM     12  C   UNL     1      10.570   5.179   7.843  0.00  0.00    +0.061 C 
ATOM     13  C   UNL     1       9.247   5.420   8.558  0.00  0.00    +0.130 C 
ATOM     14  C   UNL     1       9.028   6.913   8.407  0.00  0.00    +0.116 C 
ENDROOT
BRANCH  11  16
ATOM      5  O   UNL     1      11.668   6.703   4.636  0.00  0.00    -0.336 OA
ATOM      9  N   UNL     1      10.459   4.828   4.826  0.00  0.00    -0.194 NA
ATOM     10  N   UNL     1      11.710   6.085   3.381  0.00  0.00    -0.061 NA
ATOM     16  C   UNL     1      10.912   5.898   5.428  0.00  0.00    +0.245 A 
ATOM     20  C   UNL     1      10.974   4.987   3.573  0.00  0.00    +0.176 A 
BRANCH  20  24
ATOM     24  C   UNL     1      10.734   4.014   2.501  0.00  0.00    +0.116 C 
BRANCH  24  25
ATOM      1 CL   UNL     1      10.019   5.182  -0.278  0.00  0.00    -0.083 Cl
ATOM      3  F   UNL     1      14.755   3.876  -1.472  0.00  0.00    -0.205 F 
ATOM     25  C   UNL     1      11.799   3.990   1.408  0.00  0.00    -0.021 A 
ATOM     27  C   UNL     1      11.550   4.497   0.133  0.00  0.00    +0.047 A 
ATOM     28  C   UNL     1      13.047   3.445   1.711  0.00  0.00    +0.008 A 
ATOM     29  C   UNL     1      12.548   4.459  -0.840  0.00  0.00    +0.058 A 
ATOM     30  C   UNL     1      14.045   3.407   0.738  0.00  0.00    +0.039 A 
ATOM     31  C   UNL     1      13.796   3.914  -0.538  0.00  0.00    +0.125 A 
ENDBRANCH  24  25
ENDBRANCH  20  24
ENDBRANCH  11  16
BRANCH  13   4
ATOM      4  O   UNL     1       9.335   5.038   9.918  0.00  0.00    -0.390 OA
ATOM     32  H   UNL     1      10.278   4.953  10.138  0.00  0.00    +0.210 HD
ENDBRANCH  13   4
BRANCH   8  15
ATOM     15  C   UNL     1       9.654   8.561   6.747  0.00  0.00    +0.120 C 
BRANCH  15  17
ATOM     17  C   UNL     1       8.714   9.038   5.672  0.00  0.00    -0.033 A 
ATOM     18  C   UNL     1       8.310  10.373   5.642  0.00  0.00    +0.007 A 
ATOM     19  C   UNL     1       8.246   8.146   4.707  0.00  0.00    +0.007 A 
ATOM     21  C   UNL     1       7.439  10.815   4.646  0.00  0.00    +0.027 A 
ATOM     22  C   UNL     1       7.375   8.588   3.711  0.00  0.00    +0.027 A 
ATOM     23  C   UNL     1       6.972   9.923   3.681  0.00  0.00    +0.088 A 
BRANCH  23   2
ATOM      2  S   UNL     1       5.881  10.478   2.436  0.00  0.00    -0.006 S 
ATOM      6  O   UNL     1       4.556   9.926   2.687  0.00  0.00    -0.170 OA
ATOM      7  O   UNL     1       6.050  11.918   2.301  0.00  0.00    -0.170 OA
ATOM     26  C   UNL     1       6.485   9.715   0.947  0.00  0.00    +0.200 C 
ENDBRANCH  23   2
ENDBRANCH  15  17
ENDBRANCH   8  15
TORSDOF 7
ENDMDL
MODEL 10
REMARK VINA RESULT:      -6.9     12.901     17.040
REMARK  Name = 26744624
REMARK  8 active torsions:
REMARK  status: ('A' for Active; 'I' for Inactive)
REMARK    1  A    between atoms: S_2  and  C_23
REMARK    2  A    between atoms: S_2  and  C_26
REMARK    3  A    between atoms: O_4  and  C_13
REMARK    4  A    between atoms: N_8  and  C_15
REMARK    5  A    between atoms: C_11  and  C_16
REMARK    6  A    between atoms: C_15  and  C_17
REMARK    7  A    between atoms: C_20  and  C_24
REMARK    8  A    between atoms: C_24  and  C_25
REMARK                            x       y       z     vdW  Elec       q    Type
REMARK                         _______ _______ _______ _____ _____    ______ ____
ROOT
ATOM      8  N   UNL     1      10.070   5.981   6.308  0.00  0.00    -0.285 NA
ATOM     11  C   UNL     1       9.284   6.774   7.275  0.00  0.00    +0.149 C 
ATOM     12  C   UNL     1       9.267   5.922   8.559  0.00  0.00    +0.061 C 
ATOM     13  C   UNL     1      10.030   4.653   8.200  0.00  0.00    +0.130 C 
ATOM     14  C   UNL     1       9.908   4.580   6.690  0.00  0.00    +0.116 C 
ENDROOT
BRANCH  11  16
ATOM      5  O   UNL     1      11.196   8.294   7.318  0.00  0.00    -0.336 OA
ATOM      9  N   UNL     1       9.247   9.262   7.848  0.00  0.00    -0.194 NA
ATOM     10  N   UNL     1      11.488   9.639   7.580  0.00  0.00    -0.061 NA
ATOM     16  C   UNL     1       9.856   8.157   7.499  0.00  0.00    +0.245 A 
ATOM     20  C   UNL     1      10.288  10.143   7.885  0.00  0.00    +0.176 A 
BRANCH  20  24
ATOM     24  C   UNL     1      10.105  11.555   8.239  0.00  0.00    +0.116 C 
BRANCH  24  25
ATOM      1 CL   UNL     1      12.558  11.868  10.107  0.00  0.00    -0.083 Cl
ATOM      3  F   UNL     1       9.076  12.523  13.714  0.00  0.00    -0.205 F 
ATOM     25  C   UNL     1       9.859  11.816   9.723  0.00  0.00    -0.021 A 
ATOM     27  C   UNL     1      10.913  11.967  10.623  0.00  0.00    +0.047 A 
ATOM     28  C   UNL     1       8.541  11.904  10.169  0.00  0.00    +0.008 A 
ATOM     29  C   UNL     1      10.649  12.206  11.971  0.00  0.00    +0.058 A 
ATOM     30  C   UNL     1       8.277  12.143  11.517  0.00  0.00    +0.039 A 
ATOM     31  C   UNL     1       9.330  12.295  12.419  0.00  0.00    +0.125 A 
ENDBRANCH  24  25
ENDBRANCH  20  24
ENDBRANCH  11  16
BRANCH  13   4
ATOM      4  O   UNL     1       9.451   3.525   8.829  0.00  0.00    -0.390 OA
ATOM     32  H   UNL     1       8.935   3.048   8.157  0.00  0.00    +0.210 HD
ENDBRANCH  13   4
BRANCH   8  15
ATOM     15  C   UNL     1       9.685   6.220   4.923  0.00  0.00    +0.120 C 
BRANCH  15  17
ATOM     17  C   UNL     1      10.720   5.708   3.958  0.00  0.00    -0.033 A 
ATOM     18  C   UNL     1      11.850   6.475   3.675  0.00  0.00    +0.007 A 
ATOM     19  C   UNL     1      10.550   4.466   3.345  0.00  0.00    +0.007 A 
ATOM     21  C   UNL     1      12.809   6.001   2.780  0.00  0.00    +0.027 A 
ATOM     22  C   UNL     1      11.509   3.992   2.450  0.00  0.00    +0.027 A 
ATOM     23  C   UNL     1      12.639   4.760   2.168  0.00  0.00    +0.088 A 
BRANCH  23   2
ATOM      2  S   UNL     1      13.840   4.167   1.047  0.00  0.00    -0.006 S 
ATOM      6  O   UNL     1      14.498   5.302   0.415  0.00  0.00    -0.170 OA
ATOM      7  O   UNL     1      14.637   3.161   1.736  0.00  0.00    -0.170 OA
ATOM     26  C   UNL     1      12.897   3.345  -0.217  0.00  0.00    +0.200 C 
ENDBRANCH  23   2
ENDBRANCH  15  17
ENDBRANCH   8  15
TORSDOF 7
ENDMDL
