MODEL 1
REMARK VINA RESULT:      -7.6      0.000      0.000
REMARK  Name = 75367065
REMARK  6 active torsions:
REMARK  status: ('A' for Active; 'I' for Inactive)
REMARK    1  A    between atoms: O_2  and  C_8
REMARK    2  A    between atoms: N_4  and  C_6
REMARK    3  A    between atoms: N_4  and  C_7
REMARK    4  A    between atoms: N_5  and  C_18
REMARK    5  A    between atoms: C_9  and  C_18
REMARK    6  A    between atoms: C_10  and  C_20
REMARK                            x       y       z     vdW  Elec       q    Type
REMARK                         _______ _______ _______ _____ _____    ______ ____
ROOT
ATOM      1  O   UNL     1      -1.035   0.947  22.814  0.00  0.00    -0.371 OA
ATOM      6  C   UNL     1      -1.021   2.829  24.262  0.00  0.00    +0.111 C 
ATOM      8  C   UNL     1      -0.447   1.634  24.998  0.00  0.00    +0.164 C 
ATOM      9  C   UNL     1      -0.046   0.737  23.835  0.00  0.00    +0.165 C 
ATOM     15  C   UNL     1      -1.758   2.152  23.118  0.00  0.00    +0.181 C 
ENDROOT
BRANCH   8   2
ATOM      2  O   UNL     1       0.663   1.972  25.809  0.00  0.00    -0.388 OA
ATOM     23  H   UNL     1       0.674   1.375  26.576  0.00  0.00    +0.210 HD
ENDBRANCH   8   2
BRANCH   6   4
ATOM      4  N   UNL     1      -1.888   3.659  25.082  0.00  0.00    -0.306 NA
ATOM     21  H   UNL     1      -1.723   4.644  24.884  0.00  0.00    +0.123 HD
BRANCH   4   7
ATOM      7  C   UNL     1      -3.293   3.332  24.843  0.00  0.00    +0.054 C 
ATOM     11  C   UNL     1      -3.543   1.852  25.150  0.00  0.00    +0.019 C 
ATOM     12  C   UNL     1      -4.189   4.233  25.698  0.00  0.00    +0.019 C 
ATOM     16  C   UNL     1      -5.018   1.490  24.985  0.00  0.00    +0.002 C 
ATOM     17  C   UNL     1      -5.664   3.870  25.532  0.00  0.00    +0.002 C 
ATOM     19  C   UNL     1      -5.916   2.394  25.826  0.00  0.00    +0.000 C 
ENDBRANCH   4   7
ENDBRANCH   6   4
BRANCH   9  18
ATOM     18  C   UNL     1       0.008  -0.736  24.202  0.00  0.00    +0.138 C 
BRANCH  18   5
ATOM      3  O   UNL     1      -1.764  -0.913  26.500  0.00  0.00    -0.276 OA
ATOM      5  N   UNL     1      -1.306  -1.309  24.251  0.00  0.00    -0.313 N 
ATOM     20  C   UNL     1      -2.083  -1.348  25.400  0.00  0.00    +0.216 C 
ATOM     22  H   UNL     1      -1.687  -1.692  23.390  0.00  0.00    +0.149 HD
BRANCH  20  10
ATOM     10  C   UNL     1      -3.418  -1.989  25.221  0.00  0.00    +0.075 C 
ATOM     13  C   UNL     1      -3.548  -3.098  24.231  0.00  0.00    +0.013 C 
ATOM     14  C   UNL     1      -4.154  -1.757  23.943  0.00  0.00    +0.013 C 
ENDBRANCH  20  10
ENDBRANCH  18   5
ENDBRANCH   9  18
TORSDOF 6
ENDMDL
MODEL 2
REMARK VINA RESULT:      -7.3     16.233     19.146
REMARK  Name = 75367065
REMARK  6 active torsions:
REMARK  status: ('A' for Active; 'I' for Inactive)
REMARK    1  A    between atoms: O_2  and  C_8
REMARK    2  A    between atoms: N_4  and  C_6
REMARK    3  A    between atoms: N_4  and  C_7
REMARK    4  A    between atoms: N_5  and  C_18
REMARK    5  A    between atoms: C_9  and  C_18
REMARK    6  A    between atoms: C_10  and  C_20
REMARK                            x       y       z     vdW  Elec       q    Type
REMARK                         _______ _______ _______ _____ _____    ______ ____
ROOT
ATOM      1  O   UNL     1      11.278   6.905  20.671  0.00  0.00    -0.371 OA
ATOM      6  C   UNL     1      13.651   6.995  20.631  0.00  0.00    +0.111 C 
ATOM      8  C   UNL     1      13.124   8.180  21.418  0.00  0.00    +0.164 C 
ATOM      9  C   UNL     1      11.729   7.691  21.786  0.00  0.00    +0.165 C 
ATOM     15  C   UNL     1      12.415   6.577  19.853  0.00  0.00    +0.181 C 
ENDROOT
BRANCH   8   2
ATOM      2  O   UNL     1      13.902   8.464  22.565  0.00  0.00    -0.388 OA
ATOM     23  H   UNL     1      14.464   9.233  22.371  0.00  0.00    +0.210 HD
ENDBRANCH   8   2
BRANCH   6   4
ATOM      4  N   UNL     1      14.778   7.320  19.772  0.00  0.00    -0.306 NA
ATOM     21  H   UNL     1      14.957   8.323  19.792  0.00  0.00    +0.123 HD
BRANCH   4   7
ATOM      7  C   UNL     1      15.975   6.593  20.192  0.00  0.00    +0.054 C 
ATOM     11  C   UNL     1      16.731   6.080  18.961  0.00  0.00    +0.019 C 
ATOM     12  C   UNL     1      16.864   7.503  21.046  0.00  0.00    +0.019 C 
ATOM     16  C   UNL     1      18.030   5.380  19.357  0.00  0.00    +0.002 C 
ATOM     17  C   UNL     1      18.162   6.802  21.440  0.00  0.00    +0.002 C 
ATOM     19  C   UNL     1      18.912   6.279  20.219  0.00  0.00    +0.000 C 
ENDBRANCH   4   7
ENDBRANCH   6   4
BRANCH   9  18
ATOM     18  C   UNL     1      10.747   8.819  22.050  0.00  0.00    +0.138 C 
BRANCH  18   5
ATOM      3  O   UNL     1      11.137  11.695  21.870  0.00  0.00    -0.276 OA
ATOM      5  N   UNL     1      11.230   9.701  23.072  0.00  0.00    -0.313 N 
ATOM     20  C   UNL     1      11.384  11.069  22.895  0.00  0.00    +0.216 C 
ATOM     22  H   UNL     1      11.455   9.298  23.977  0.00  0.00    +0.149 HD
BRANCH  20  10
ATOM     10  C   UNL     1      11.898  11.793  24.093  0.00  0.00    +0.075 C 
ATOM     13  C   UNL     1      11.014  11.906  25.290  0.00  0.00    +0.013 C 
ATOM     14  C   UNL     1      11.294  13.112  24.443  0.00  0.00    +0.013 C 
ENDBRANCH  20  10
ENDBRANCH  18   5
ENDBRANCH   9  18
TORSDOF 6
ENDMDL
MODEL 3
REMARK VINA RESULT:      -7.0     15.726     18.544
REMARK  Name = 75367065
REMARK  6 active torsions:
REMARK  status: ('A' for Active; 'I' for Inactive)
REMARK    1  A    between atoms: O_2  and  C_8
REMARK    2  A    between atoms: N_4  and  C_6
REMARK    3  A    between atoms: N_4  and  C_7
REMARK    4  A    between atoms: N_5  and  C_18
REMARK    5  A    between atoms: C_9  and  C_18
REMARK    6  A    between atoms: C_10  and  C_20
REMARK                            x       y       z     vdW  Elec       q    Type
REMARK                         _______ _______ _______ _____ _____    ______ ____
ROOT
ATOM      1  O   UNL     1      10.563   8.511  20.066  0.00  0.00    -0.371 OA
ATOM      6  C   UNL     1      12.359   7.111  19.390  0.00  0.00    +0.111 C 
ATOM      8  C   UNL     1      12.270   7.106  20.905  0.00  0.00    +0.164 C 
ATOM      9  C   UNL     1      10.835   7.568  21.116  0.00  0.00    +0.165 C 
ATOM     15  C   UNL     1      11.568   8.362  19.047  0.00  0.00    +0.181 C 
ENDROOT
BRANCH   8   2
ATOM      2  O   UNL     1      12.498   5.825  21.461  0.00  0.00    -0.388 OA
ATOM     23  H   UNL     1      12.733   5.216  20.741  0.00  0.00    +0.210 HD
ENDBRANCH   8   2
BRANCH   6   4
ATOM      4  N   UNL     1      13.723   7.148  18.887  0.00  0.00    -0.306 NA
ATOM     21  H   UNL     1      13.792   7.801  18.108  0.00  0.00    +0.123 HD
BRANCH   4   7
ATOM      7  C   UNL     1      14.654   7.535  19.945  0.00  0.00    +0.054 C 
ATOM     11  C   UNL     1      15.733   6.459  20.108  0.00  0.00    +0.019 C 
ATOM     12  C   UNL     1      15.276   8.896  19.617  0.00  0.00    +0.019 C 
ATOM     16  C   UNL     1      16.771   6.865  21.153  0.00  0.00    +0.002 C 
ATOM     17  C   UNL     1      16.314   9.300  20.663  0.00  0.00    +0.002 C 
ATOM     19  C   UNL     1      17.384   8.226  20.838  0.00  0.00    +0.000 C 
ENDBRANCH   4   7
ENDBRANCH   6   4
BRANCH   9  18
ATOM     18  C   UNL     1      10.607   8.225  22.467  0.00  0.00    +0.138 C 
BRANCH  18   5
ATOM      3  O   UNL     1      12.737  10.198  22.618  0.00  0.00    -0.276 OA
ATOM      5  N   UNL     1      10.490   9.649  22.341  0.00  0.00    -0.313 N 
ATOM     20  C   UNL     1      11.569  10.517  22.427  0.00  0.00    +0.216 C 
ATOM     22  H   UNL     1       9.566  10.033  22.164  0.00  0.00    +0.149 HD
BRANCH  20  10
ATOM     10  C   UNL     1      11.216  11.958  22.263  0.00  0.00    +0.075 C 
ATOM     13  C   UNL     1      12.119  12.984  22.863  0.00  0.00    +0.013 C 
ATOM     14  C   UNL     1      10.770  12.723  23.465  0.00  0.00    +0.013 C 
ENDBRANCH  20  10
ENDBRANCH  18   5
ENDBRANCH   9  18
TORSDOF 6
ENDMDL
MODEL 4
REMARK VINA RESULT:      -6.9     15.740     17.595
REMARK  Name = 75367065
REMARK  6 active torsions:
REMARK  status: ('A' for Active; 'I' for Inactive)
REMARK    1  A    between atoms: O_2  and  C_8
REMARK    2  A    between atoms: N_4  and  C_6
REMARK    3  A    between atoms: N_4  and  C_7
REMARK    4  A    between atoms: N_5  and  C_18
REMARK    5  A    between atoms: C_9  and  C_18
REMARK    6  A    between atoms: C_10  and  C_20
REMARK                            x       y       z     vdW  Elec       q    Type
REMARK                         _______ _______ _______ _____ _____    ______ ____
ROOT
ATOM      1  O   UNL     1      13.386   8.064  21.380  0.00  0.00    -0.371 OA
ATOM      6  C   UNL     1      11.396   8.802  22.447  0.00  0.00    +0.111 C 
ATOM      8  C   UNL     1      11.028   7.963  21.237  0.00  0.00    +0.164 C 
ATOM      9  C   UNL     1      12.314   7.177  21.023  0.00  0.00    +0.165 C 
ATOM     15  C   UNL     1      12.840   9.159  22.136  0.00  0.00    +0.181 C 
ENDROOT
BRANCH   8   2
ATOM      2  O   UNL     1       9.923   7.113  21.478  0.00  0.00    -0.388 OA
ATOM     23  H   UNL     1      10.206   6.409  22.086  0.00  0.00    +0.210 HD
ENDBRANCH   8   2
BRANCH   6   4
ATOM      4  N   UNL     1      10.550   9.970  22.626  0.00  0.00    -0.306 NA
ATOM     21  H   UNL     1       9.782   9.755  23.260  0.00  0.00    +0.123 HD
BRANCH   4   7
ATOM      7  C   UNL     1      11.325  11.095  23.148  0.00  0.00    +0.054 C 
ATOM     11  C   UNL     1      10.998  12.365  22.354  0.00  0.00    +0.019 C 
ATOM     12  C   UNL     1      11.029  11.284  24.639  0.00  0.00    +0.019 C 
ATOM     16  C   UNL     1      11.732  13.580  22.920  0.00  0.00    +0.002 C 
ATOM     17  C   UNL     1      11.763  12.499  25.203  0.00  0.00    +0.002 C 
ATOM     19  C   UNL     1      11.450  13.764  24.408  0.00  0.00    +0.000 C 
ENDBRANCH   4   7
ENDBRANCH   6   4
BRANCH   9  18
ATOM     18  C   UNL     1      12.495   6.701  19.592  0.00  0.00    +0.138 C 
BRANCH  18   5
ATOM      3  O   UNL     1      14.025   8.606  18.015  0.00  0.00    -0.276 OA
ATOM      5  N   UNL     1      11.992   7.663  18.655  0.00  0.00    -0.313 N 
ATOM     20  C   UNL     1      12.803   8.537  17.944  0.00  0.00    +0.216 C 
ATOM     22  H   UNL     1      10.989   7.691  18.498  0.00  0.00    +0.149 HD
BRANCH  20  10
ATOM     10  C   UNL     1      12.067   9.450  17.022  0.00  0.00    +0.075 C 
ATOM     13  C   UNL     1      10.941   8.893  16.217  0.00  0.00    +0.013 C 
ATOM     14  C   UNL     1      12.232   9.263  15.551  0.00  0.00    +0.013 C 
ENDBRANCH  20  10
ENDBRANCH  18   5
ENDBRANCH   9  18
TORSDOF 6
ENDMDL
MODEL 5
REMARK VINA RESULT:      -6.9     18.308     20.963
REMARK  Name = 75367065
REMARK  6 active torsions:
REMARK  status: ('A' for Active; 'I' for Inactive)
REMARK    1  A    between atoms: O_2  and  C_8
REMARK    2  A    between atoms: N_4  and  C_6
REMARK    3  A    between atoms: N_4  and  C_7
REMARK    4  A    between atoms: N_5  and  C_18
REMARK    5  A    between atoms: C_9  and  C_18
REMARK    6  A    between atoms: C_10  and  C_20
REMARK                            x       y       z     vdW  Elec       q    Type
REMARK                         _______ _______ _______ _____ _____    ______ ____
ROOT
ATOM      1  O   UNL     1      16.230   6.272  18.981  0.00  0.00    -0.371 OA
ATOM      6  C   UNL     1      17.204   6.409  21.142  0.00  0.00    +0.111 C 
ATOM      8  C   UNL     1      15.918   7.213  21.127  0.00  0.00    +0.164 C 
ATOM      9  C   UNL     1      15.203   6.600  19.930  0.00  0.00    +0.165 C 
ATOM     15  C   UNL     1      17.499   6.287  19.656  0.00  0.00    +0.181 C 
ENDROOT
BRANCH   8   2
ATOM      2  O   UNL     1      15.169   7.068  22.319  0.00  0.00    -0.388 OA
ATOM     23  H   UNL     1      14.946   7.954  22.650  0.00  0.00    +0.210 HD
ENDBRANCH   8   2
BRANCH   6   4
ATOM      4  N   UNL     1      18.281   7.046  21.883  0.00  0.00    -0.306 NA
ATOM     21  H   UNL     1      18.433   6.564  22.767  0.00  0.00    +0.123 HD
BRANCH   4   7
ATOM      7  C   UNL     1      19.516   7.050  21.099  0.00  0.00    +0.054 C 
ATOM     11  C   UNL     1      20.255   8.377  21.299  0.00  0.00    +0.019 C 
ATOM     12  C   UNL     1      20.393   5.861  21.506  0.00  0.00    +0.019 C 
ATOM     16  C   UNL     1      21.590   8.388  20.556  0.00  0.00    +0.002 C 
ATOM     17  C   UNL     1      21.727   5.874  20.762  0.00  0.00    +0.002 C 
ATOM     19  C   UNL     1      22.462   7.199  20.949  0.00  0.00    +0.000 C 
ENDBRANCH   4   7
ENDBRANCH   6   4
BRANCH   9  18
ATOM     18  C   UNL     1      14.192   7.536  19.291  0.00  0.00    +0.138 C 
BRANCH  18   5
ATOM      3  O   UNL     1      11.396   7.981  18.628  0.00  0.00    -0.276 OA
ATOM      5  N   UNL     1      13.117   7.836  20.192  0.00  0.00    -0.313 N 
ATOM     20  C   UNL     1      11.806   8.033  19.782  0.00  0.00    +0.216 C 
ATOM     22  H   UNL     1      13.332   7.890  21.183  0.00  0.00    +0.149 HD
BRANCH  20  10
ATOM     10  C   UNL     1      10.852   8.332  20.890  0.00  0.00    +0.075 C 
ATOM     13  C   UNL     1      11.384   8.434  22.280  0.00  0.00    +0.013 C 
ATOM     14  C   UNL     1      10.548   7.255  21.878  0.00  0.00    +0.013 C 
ENDBRANCH  20  10
ENDBRANCH  18   5
ENDBRANCH   9  18
TORSDOF 6
ENDMDL
MODEL 6
REMARK VINA RESULT:      -6.7     14.141     16.248
REMARK  Name = 75367065
REMARK  6 active torsions:
REMARK  status: ('A' for Active; 'I' for Inactive)
REMARK    1  A    between atoms: O_2  and  C_8
REMARK    2  A    between atoms: N_4  and  C_6
REMARK    3  A    between atoms: N_4  and  C_7
REMARK    4  A    between atoms: N_5  and  C_18
REMARK    5  A    between atoms: C_9  and  C_18
REMARK    6  A    between atoms: C_10  and  C_20
REMARK                            x       y       z     vdW  Elec       q    Type
REMARK                         _______ _______ _______ _____ _____    ______ ____
ROOT
ATOM      1  O   UNL     1      -3.949 -10.270  13.980  0.00  0.00    -0.371 OA
ATOM      6  C   UNL     1      -3.369 -10.958  16.178  0.00  0.00    +0.111 C 
ATOM      8  C   UNL     1      -2.319 -11.465  15.207  0.00  0.00    +0.164 C 
ATOM      9  C   UNL     1      -2.537 -10.531  14.025  0.00  0.00    +0.165 C 
ATOM     15  C   UNL     1      -4.526 -10.657  15.239  0.00  0.00    +0.181 C 
ENDROOT
BRANCH   8   2
ATOM      2  O   UNL     1      -1.005 -11.366  15.722  0.00  0.00    -0.388 OA
ATOM     23  H   UNL     1      -1.062 -11.256  16.686  0.00  0.00    +0.210 HD
ENDBRANCH   8   2
BRANCH   6   4
ATOM      4  N   UNL     1      -3.715 -11.916  17.215  0.00  0.00    -0.306 NA
ATOM     21  H   UNL     1      -3.080 -11.823  18.006  0.00  0.00    +0.123 HD
BRANCH   4   7
ATOM      7  C   UNL     1      -5.095 -11.722  17.658  0.00  0.00    +0.054 C 
ATOM     11  C   UNL     1      -5.794 -13.079  17.795  0.00  0.00    +0.019 C 
ATOM     12  C   UNL     1      -5.112 -10.956  18.985  0.00  0.00    +0.019 C 
ATOM     16  C   UNL     1      -7.216 -12.921  18.331  0.00  0.00    +0.002 C 
ATOM     17  C   UNL     1      -6.534 -10.800  19.519  0.00  0.00    +0.002 C 
ATOM     19  C   UNL     1      -7.238 -12.148  19.646  0.00  0.00    +0.000 C 
ENDBRANCH   4   7
ENDBRANCH   6   4
BRANCH   9  18
ATOM     18  C   UNL     1      -2.081 -11.119  12.701  0.00  0.00    +0.138 C 
BRANCH  18   5
ATOM      3  O   UNL     1      -1.415  -8.982  10.846  0.00  0.00    -0.276 OA
ATOM      5  N   UNL     1      -2.874 -10.629  11.612  0.00  0.00    -0.313 N 
ATOM     20  C   UNL     1      -2.472  -9.598  10.773  0.00  0.00    +0.216 C 
ATOM     22  H   UNL     1      -3.771 -11.075  11.442  0.00  0.00    +0.149 HD
BRANCH  20  10
ATOM     10  C   UNL     1      -3.454  -9.253   9.705  0.00  0.00    +0.075 C 
ATOM     13  C   UNL     1      -4.708  -8.543  10.094  0.00  0.00    +0.013 C 
ATOM     14  C   UNL     1      -4.756  -9.982   9.671  0.00  0.00    +0.013 C 
ENDBRANCH  20  10
ENDBRANCH  18   5
ENDBRANCH   9  18
TORSDOF 6
ENDMDL
MODEL 7
REMARK VINA RESULT:      -6.7     23.070     25.226
REMARK  Name = 75367065
REMARK  6 active torsions:
REMARK  status: ('A' for Active; 'I' for Inactive)
REMARK    1  A    between atoms: O_2  and  C_8
REMARK    2  A    between atoms: N_4  and  C_6
REMARK    3  A    between atoms: N_4  and  C_7
REMARK    4  A    between atoms: N_5  and  C_18
REMARK    5  A    between atoms: C_9  and  C_18
REMARK    6  A    between atoms: C_10  and  C_20
REMARK                            x       y       z     vdW  Elec       q    Type
REMARK                         _______ _______ _______ _____ _____    ______ ____
ROOT
ATOM      1  O   UNL     1      11.648   7.587   4.386  0.00  0.00    -0.371 OA
ATOM      6  C   UNL     1      11.074   5.514   3.379  0.00  0.00    +0.111 C 
ATOM      8  C   UNL     1      10.714   5.465   4.852  0.00  0.00    +0.164 C 
ATOM      9  C   UNL     1      10.638   6.949   5.185  0.00  0.00    +0.165 C 
ATOM     15  C   UNL     1      12.051   6.678   3.347  0.00  0.00    +0.181 C 
ENDROOT
BRANCH   8   2
ATOM      2  O   UNL     1       9.484   4.807   5.092  0.00  0.00    -0.388 OA
ATOM     23  H   UNL     1       9.573   4.280   5.904  0.00  0.00    +0.210 HD
ENDBRANCH   8   2
BRANCH   6   4
ATOM      4  N   UNL     1      11.652   4.277   2.879  0.00  0.00    -0.306 NA
ATOM     21  H   UNL     1      10.999   3.506   3.009  0.00  0.00    +0.123 HD
BRANCH   4   7
ATOM      7  C   UNL     1      11.996   4.402   1.463  0.00  0.00    +0.054 C 
ATOM     11  C   UNL     1      13.048   3.352   1.089  0.00  0.00    +0.019 C 
ATOM     12  C   UNL     1      10.736   4.252   0.606  0.00  0.00    +0.019 C 
ATOM     16  C   UNL     1      13.378   3.402  -0.402  0.00  0.00    +0.002 C 
ATOM     17  C   UNL     1      11.068   4.302  -0.884  0.00  0.00    +0.002 C 
ATOM     19  C   UNL     1      12.124   3.265  -1.260  0.00  0.00    +0.000 C 
ENDBRANCH   4   7
ENDBRANCH   6   4
BRANCH   9  18
ATOM     18  C   UNL     1      10.879   7.249   6.654  0.00  0.00    +0.138 C 
BRANCH  18   5
ATOM      3  O   UNL     1       8.626   6.933   8.465  0.00  0.00    -0.276 OA
ATOM      5  N   UNL     1      10.570   6.114   7.475  0.00  0.00    -0.313 N 
ATOM     20  C   UNL     1       9.465   6.052   8.313  0.00  0.00    +0.216 C 
ATOM     22  H   UNL     1      11.189   5.310   7.423  0.00  0.00    +0.149 HD
BRANCH  20  10
ATOM     10  C   UNL     1       9.337   4.774   9.072  0.00  0.00    +0.075 C 
ATOM     13  C   UNL     1       8.541   4.773  10.334  0.00  0.00    +0.013 C 
ATOM     14  C   UNL     1      10.036   4.653  10.386  0.00  0.00    +0.013 C 
ENDBRANCH  20  10
ENDBRANCH  18   5
ENDBRANCH   9  18
TORSDOF 6
ENDMDL
MODEL 8
REMARK VINA RESULT:      -6.6     19.206     21.453
REMARK  Name = 75367065
REMARK  6 active torsions:
REMARK  status: ('A' for Active; 'I' for Inactive)
REMARK    1  A    between atoms: O_2  and  C_8
REMARK    2  A    between atoms: N_4  and  C_6
REMARK    3  A    between atoms: N_4  and  C_7
REMARK    4  A    between atoms: N_5  and  C_18
REMARK    5  A    between atoms: C_9  and  C_18
REMARK    6  A    between atoms: C_10  and  C_20
REMARK                            x       y       z     vdW  Elec       q    Type
REMARK                         _______ _______ _______ _____ _____    ______ ____
ROOT
ATOM      1  O   UNL     1      17.688   7.006  21.613  0.00  0.00    -0.371 OA
ATOM      6  C   UNL     1      16.191   6.382  19.878  0.00  0.00    +0.111 C 
ATOM      8  C   UNL     1      17.616   6.235  19.379  0.00  0.00    +0.164 C 
ATOM      9  C   UNL     1      18.380   6.146  20.693  0.00  0.00    +0.165 C 
ATOM     15  C   UNL     1      16.385   7.295  21.077  0.00  0.00    +0.181 C 
ENDROOT
BRANCH   8   2
ATOM      2  O   UNL     1      17.800   5.080  18.582  0.00  0.00    -0.388 OA
ATOM     23  H   UNL     1      18.752   4.892  18.532  0.00  0.00    +0.210 HD
ENDBRANCH   8   2
BRANCH   6   4
ATOM      4  N   UNL     1      15.280   6.933  18.888  0.00  0.00    -0.306 NA
ATOM     21  H   UNL     1      14.895   6.187  18.310  0.00  0.00    +0.123 HD
BRANCH   4   7
ATOM      7  C   UNL     1      14.196   7.669  19.536  0.00  0.00    +0.054 C 
ATOM     11  C   UNL     1      13.809   8.884  18.685  0.00  0.00    +0.019 C 
ATOM     12  C   UNL     1      12.996   6.743  19.755  0.00  0.00    +0.019 C 
ATOM     16  C   UNL     1      12.626   9.636  19.292  0.00  0.00    +0.002 C 
ATOM     17  C   UNL     1      11.814   7.497  20.362  0.00  0.00    +0.002 C 
ATOM     19  C   UNL     1      11.433   8.714  19.523  0.00  0.00    +0.000 C 
ENDBRANCH   4   7
ENDBRANCH   6   4
BRANCH   9  18
ATOM     18  C   UNL     1      19.830   6.579  20.576  0.00  0.00    +0.138 C 
BRANCH  18   5
ATOM      3  O   UNL     1      21.135   5.033  22.664  0.00  0.00    -0.276 OA
ATOM      5  N   UNL     1      20.700   5.450  20.413  0.00  0.00    -0.313 N 
ATOM     20  C   UNL     1      21.280   4.771  21.476  0.00  0.00    +0.216 C 
ATOM     22  H   UNL     1      20.885   5.128  19.468  0.00  0.00    +0.149 HD
BRANCH  20  10
ATOM     10  C   UNL     1      22.148   3.625  21.075  0.00  0.00    +0.075 C 
ATOM     13  C   UNL     1      23.241   3.203  21.999  0.00  0.00    +0.013 C 
ATOM     14  C   UNL     1      23.569   3.900  20.712  0.00  0.00    +0.013 C 
ENDBRANCH  20  10
ENDBRANCH  18   5
ENDBRANCH   9  18
TORSDOF 6
ENDMDL
MODEL 9
REMARK VINA RESULT:      -6.3     12.907     14.154
REMARK  Name = 75367065
REMARK  6 active torsions:
REMARK  status: ('A' for Active; 'I' for Inactive)
REMARK    1  A    between atoms: O_2  and  C_8
REMARK    2  A    between atoms: N_4  and  C_6
REMARK    3  A    between atoms: N_4  and  C_7
REMARK    4  A    between atoms: N_5  and  C_18
REMARK    5  A    between atoms: C_9  and  C_18
REMARK    6  A    between atoms: C_10  and  C_20
REMARK                            x       y       z     vdW  Elec       q    Type
REMARK                         _______ _______ _______ _____ _____    ______ ____
ROOT
ATOM      1  O   UNL     1     -16.950   1.395  24.887  0.00  0.00    -0.371 OA
ATOM      6  C   UNL     1     -15.941   3.543  24.966  0.00  0.00    +0.111 C 
ATOM      8  C   UNL     1     -16.277   3.102  26.378  0.00  0.00    +0.164 C 
ATOM      9  C   UNL     1     -16.390   1.595  26.196  0.00  0.00    +0.165 C 
ATOM     15  C   UNL     1     -16.825   2.619  24.144  0.00  0.00    +0.181 C 
ENDROOT
BRANCH   8   2
ATOM      2  O   UNL     1     -15.271   3.447  27.312  0.00  0.00    -0.388 OA
ATOM     23  H   UNL     1     -14.575   2.769  27.274  0.00  0.00    +0.210 HD
ENDBRANCH   8   2
BRANCH   6   4
ATOM      4  N   UNL     1     -16.206   4.951  24.715  0.00  0.00    -0.306 NA
ATOM     21  H   UNL     1     -15.793   5.523  25.451  0.00  0.00    +0.123 HD
BRANCH   4   7
ATOM      7  C   UNL     1     -15.675   5.354  23.414  0.00  0.00    +0.054 C 
ATOM     11  C   UNL     1     -15.888   6.858  23.209  0.00  0.00    +0.019 C 
ATOM     12  C   UNL     1     -14.190   4.988  23.323  0.00  0.00    +0.019 C 
ATOM     16  C   UNL     1     -15.276   7.331  21.891  0.00  0.00    +0.002 C 
ATOM     17  C   UNL     1     -13.581   5.463  22.005  0.00  0.00    +0.002 C 
ATOM     19  C   UNL     1     -13.800   6.958  21.790  0.00  0.00    +0.000 C 
ENDBRANCH   4   7
ENDBRANCH   6   4
BRANCH   9  18
ATOM     18  C   UNL     1     -17.270   0.928  27.238  0.00  0.00    +0.138 C 
BRANCH  18   5
ATOM      3  O   UNL     1     -16.819   2.320  29.751  0.00  0.00    -0.276 OA
ATOM      5  N   UNL     1     -16.498   0.478  28.360  0.00  0.00    -0.313 N 
ATOM     20  C   UNL     1     -16.338   1.215  29.525  0.00  0.00    +0.216 C 
ATOM     22  H   UNL     1     -16.060  -0.437  28.297  0.00  0.00    +0.149 HD
BRANCH  20  10
ATOM     10  C   UNL     1     -15.496   0.553  30.564  0.00  0.00    +0.075 C 
ATOM     13  C   UNL     1     -14.071   0.975  30.700  0.00  0.00    +0.013 C 
ATOM     14  C   UNL     1     -14.407  -0.367  30.119  0.00  0.00    +0.013 C 
ENDBRANCH  20  10
ENDBRANCH  18   5
ENDBRANCH   9  18
TORSDOF 6
ENDMDL
MODEL 10
REMARK VINA RESULT:      -6.2     14.830     17.170
REMARK  Name = 75367065
REMARK  6 active torsions:
REMARK  status: ('A' for Active; 'I' for Inactive)
REMARK    1  A    between atoms: O_2  and  C_8
REMARK    2  A    between atoms: N_4  and  C_6
REMARK    3  A    between atoms: N_4  and  C_7
REMARK    4  A    between atoms: N_5  and  C_18
REMARK    5  A    between atoms: C_9  and  C_18
REMARK    6  A    between atoms: C_10  and  C_20
REMARK                            x       y       z     vdW  Elec       q    Type
REMARK                         _______ _______ _______ _____ _____    ______ ____
ROOT
ATOM      1  O   UNL     1      -3.287 -13.967  12.943  0.00  0.00    -0.371 OA
ATOM      6  C   UNL     1      -2.173 -11.872  13.044  0.00  0.00    +0.111 C 
ATOM      8  C   UNL     1      -2.788 -12.171  14.398  0.00  0.00    +0.164 C 
ATOM      9  C   UNL     1      -2.963 -13.681  14.313  0.00  0.00    +0.165 C 
ATOM     15  C   UNL     1      -2.951 -12.819  12.145  0.00  0.00    +0.181 C 
ENDROOT
BRANCH   8   2
ATOM      2  O   UNL     1      -1.949 -11.797  15.474  0.00  0.00    -0.388 OA
ATOM     23  H   UNL     1      -1.975 -12.503  16.142  0.00  0.00    +0.210 HD
ENDBRANCH   8   2
BRANCH   6   4
ATOM      4  N   UNL     1      -2.297 -10.480  12.642  0.00  0.00    -0.306 NA
ATOM     21  H   UNL     1      -1.399 -10.127  12.316  0.00  0.00    +0.123 HD
BRANCH   4   7
ATOM      7  C   UNL     1      -3.301 -10.333  11.589  0.00  0.00    +0.054 C 
ATOM     11  C   UNL     1      -4.615  -9.822  12.190  0.00  0.00    +0.019 C 
ATOM     12  C   UNL     1      -2.783  -9.383  10.504  0.00  0.00    +0.019 C 
ATOM     16  C   UNL     1      -5.666  -9.583  11.107  0.00  0.00    +0.002 C 
ATOM     17  C   UNL     1      -3.835  -9.145   9.424  0.00  0.00    +0.002 C 
ATOM     19  C   UNL     1      -5.150  -8.647  10.019  0.00  0.00    +0.000 C 
ENDBRANCH   4   7
ENDBRANCH   6   4
BRANCH   9  18
ATOM     18  C   UNL     1      -4.059 -14.211  15.222  0.00  0.00    +0.138 C 
BRANCH  18   5
ATOM      3  O   UNL     1      -6.298 -14.206  17.077  0.00  0.00    -0.276 OA
ATOM      5  N   UNL     1      -4.248 -13.361  16.361  0.00  0.00    -0.313 N 
ATOM     20  C   UNL     1      -5.355 -13.431  17.195  0.00  0.00    +0.216 C 
ATOM     22  H   UNL     1      -3.521 -12.683  16.571  0.00  0.00    +0.149 HD
BRANCH  20  10
ATOM     10  C   UNL     1      -5.343 -12.453  18.321  0.00  0.00    +0.075 C 
ATOM     13  C   UNL     1      -4.640 -11.151  18.125  0.00  0.00    +0.013 C 
ATOM     14  C   UNL     1      -4.053 -12.195  19.027  0.00  0.00    +0.013 C 
ENDBRANCH  20  10
ENDBRANCH  18   5
ENDBRANCH   9  18
TORSDOF 6
ENDMDL
