REMARK  Name = 75536078
REMARK  7 active torsions:
REMARK  status: ('A' for Active; 'I' for Inactive)
REMARK    1  A    between atoms: O_1  and  C_10
REMARK    2  A    between atoms: O_2  and  C_12
REMARK    3  A    between atoms: N_4  and  C_9
REMARK    4  A    between atoms: N_6  and  C_22
REMARK    5  A    between atoms: C_8  and  C_13
REMARK    6  A    between atoms: C_15  and  C_17
REMARK    7  A    between atoms: C_21  and  C_23
REMARK                            x       y       z     vdW  Elec       q    Type
REMARK                         _______ _______ _______ _____ _____    ______ ____
ROOT
ATOM      8  C   UNL     1       1.865   0.485   0.974  0.00  0.00    +0.046 C 
ATOM      9  C   UNL     1       0.989   1.231  -0.059  0.00  0.00    +0.112 C 
ATOM     10  C   UNL     1       1.395   2.693   0.119  0.00  0.00    +0.164 C 
ATOM     11  C   UNL     1       3.083   1.407   1.238  0.00  0.00    +0.044 C 
ATOM     12  C   UNL     1       2.905   2.611   0.316  0.00  0.00    +0.145 C 
ENDROOT
BRANCH   8  13
ATOM      5  N   UNL     1       2.154  -3.297   0.969  0.00  0.00    -0.263 NA
ATOM     13  C   UNL     1       2.227  -0.919   0.539  0.00  0.00    -0.024 A 
ATOM     14  C   UNL     1       2.938  -1.145  -0.634  0.00  0.00    +0.007 A 
ATOM     16  C   UNL     1       1.862  -2.019   1.298  0.00  0.00    +0.114 A 
ATOM     18  C   UNL     1       3.258  -2.446  -1.007  0.00  0.00    +0.020 A 
ATOM     19  C   UNL     1       2.847  -3.478  -0.178  0.00  0.00    +0.111 A 
ENDBRANCH   8  13
BRANCH   9   4
ATOM      3  O   UNL     1      -0.682  -0.780  -1.247  0.00  0.00    -0.269 OA
ATOM      4  N   UNL     1      -0.417   1.030   0.179  0.00  0.00    -0.304 N 
ATOM     15  C   UNL     1      -1.146   0.026  -0.444  0.00  0.00    +0.262 C 
ATOM     24  H   UNL     1      -0.879   1.638   0.850  0.00  0.00    +0.149 HD
BRANCH  15  17
ATOM      6  N   UNL     1      -3.579  -0.475  -0.943  0.00  0.00    -0.262 N 
ATOM      7  N   UNL     1      -4.808  -0.426  -0.403  0.00  0.00    -0.176 NA
ATOM     17  C   UNL     1      -2.593  -0.032  -0.112  0.00  0.00    +0.123 A 
ATOM     20  C   UNL     1      -3.221   0.333   1.054  0.00  0.00    +0.057 A 
ATOM     21  C   UNL     1      -4.583   0.068   0.818  0.00  0.00    +0.061 A 
ATOM     22  C   UNL     1      -3.419  -0.970  -2.291  0.00  0.00    +0.173 C 
ATOM     23  C   UNL     1      -5.711   0.277   1.741  0.00  0.00    +0.067 C 
ENDBRANCH  15  17
ENDBRANCH   9   4
BRANCH  10   1
ATOM      1  O   UNL     1       1.069   3.482  -1.009  0.00  0.00    -0.387 OA
ATOM     25  H   UNL     1       1.440   4.369  -0.862  0.00  0.00    +0.210 HD
ENDBRANCH  10   1
BRANCH  12   2
ATOM      2  O   UNL     1       3.566   2.344  -0.917  0.00  0.00    -0.389 OA
ATOM     26  H   UNL     1       4.516   2.263  -0.727  0.00  0.00    +0.210 HD
ENDBRANCH  12   2
TORSDOF 5
