REMARK  Name = 40779879
REMARK  7 active torsions:
REMARK  status: ('A' for Active; 'I' for Inactive)
REMARK    1  A    between atoms: O_2  and  C_24
REMARK    2  A    between atoms: O_2  and  C_25
REMARK    3  A    between atoms: N_4  and  C_13
REMARK    4  A    between atoms: N_5  and  C_14
REMARK    5  A    between atoms: C_7  and  C_13
REMARK    6  A    between atoms: C_8  and  C_14
REMARK    7  A    between atoms: C_20  and  C_24
REMARK                            x       y       z     vdW  Elec       q    Type
REMARK                         _______ _______ _______ _____ _____    ______ ____
ROOT
ATOM      3  N   UNL     1      -0.945  -1.396   1.421  0.00  0.00    -0.298 NA
ATOM      6  C   UNL     1      -0.187  -1.780  -1.038  0.00  0.00    -0.002 C 
ATOM      7  C   UNL     1       0.911  -1.052  -0.229  0.00  0.00    +0.023 C 
ATOM      8  C   UNL     1      -1.979  -0.882   0.483  0.00  0.00    +0.074 C 
ATOM      9  C   UNL     1      -1.490  -0.961  -0.980  0.00  0.00    +0.024 C 
ATOM     10  C   UNL     1       0.353  -0.723   1.175  0.00  0.00    +0.090 C 
ATOM     11  C   UNL     1      -0.457  -3.117  -0.322  0.00  0.00    +0.019 C 
ATOM     12  C   UNL     1      -0.772  -2.845   1.159  0.00  0.00    +0.085 C 
ENDROOT
BRANCH   7  13
ATOM     13  C   UNL     1       1.447   0.195  -0.928  0.00  0.00    +0.110 C 
BRANCH  13   4
ATOM      4  N   UNL     1       2.519   0.766  -0.151  0.00  0.00    -0.329 N 
ATOM     15  C   UNL     1       2.482   2.139   0.348  0.00  0.00    +0.110 C 
ATOM     16  C   UNL     1       3.856   0.423  -0.299  0.00  0.00    +0.033 A 
ATOM     17  C   UNL     1       3.866   2.420   0.968  0.00  0.00    +0.056 C 
ATOM     18  C   UNL     1       4.695   1.357   0.322  0.00  0.00    -0.025 A 
ATOM     19  C   UNL     1       4.405  -0.676  -0.940  0.00  0.00    +0.023 A 
ATOM     21  C   UNL     1       6.073   1.219   0.326  0.00  0.00    +0.005 A 
ATOM     22  C   UNL     1       5.795  -0.826  -0.953  0.00  0.00    +0.002 A 
ATOM     23  C   UNL     1       6.624   0.116  -0.324  0.00  0.00    +0.000 A 
ENDBRANCH  13   4
ENDBRANCH   7  13
BRANCH   8  14
ATOM     14  C   UNL     1      -2.451   0.528   0.849  0.00  0.00    +0.123 C 
BRANCH  14   5
ATOM      1  O   UNL     1      -5.269   0.095   1.337  0.00  0.00    -0.273 OA
ATOM      5  N   UNL     1      -3.547   0.906  -0.001  0.00  0.00    -0.312 N 
ATOM     20  C   UNL     1      -4.877   0.656   0.317  0.00  0.00    +0.239 C 
ATOM     26  H   UNL     1      -3.330   1.378  -0.874  0.00  0.00    +0.149 HD
BRANCH  20  24
ATOM     24  C   UNL     1      -5.819   1.161  -0.754  0.00  0.00    +0.255 C 
BRANCH  24   2
ATOM      2  O   UNL     1      -7.162   0.905  -0.398  0.00  0.00    -0.374 OA
ATOM     25  C   UNL     1      -8.072   1.372  -1.389  0.00  0.00    +0.194 C 
ENDBRANCH  24   2
ENDBRANCH  20  24
ENDBRANCH  14   5
ENDBRANCH   8  14
TORSDOF 6
