MODEL 1
REMARK VINA RESULT:      -7.7      0.000      0.000
REMARK  Name = 11887496
REMARK  5 active torsions:
REMARK  status: ('A' for Active; 'I' for Inactive)
REMARK    1  A    between atoms: O_5  and  C_28
REMARK    2  A    between atoms: O_5  and  C_29
REMARK    3  A    between atoms: N_8  and  C_19
REMARK    4  A    between atoms: C_18  and  C_21
REMARK    5  A    between atoms: C_24  and  C_28
REMARK                            x       y       z     vdW  Elec       q    Type
REMARK                         _______ _______ _______ _____ _____    ______ ____
ROOT
ATOM      2  O   UNL     1      13.624   9.028  16.256  0.00  0.00    -0.266 OA
ATOM      3  O   UNL     1      11.233   7.574  20.608  0.00  0.00    -0.270 OA
ATOM      6  N   UNL     1      13.495   7.891  21.113  0.00  0.00    -0.297 N 
ATOM      7  N   UNL     1      14.656   8.932  18.351  0.00  0.00    -0.310 N 
ATOM      9  C   UNL     1      15.079   6.728  19.586  0.00  0.00    +0.027 C 
ATOM     10  C   UNL     1      15.730   8.862  20.629  0.00  0.00    +0.054 C 
ATOM     11  C   UNL     1      16.241   7.477  20.230  0.00  0.00    +0.018 C 
ATOM     12  C   UNL     1      13.909   6.594  20.576  0.00  0.00    +0.113 C 
ATOM     13  C   UNL     1      14.669   7.462  18.303  0.00  0.00    +0.130 C 
ATOM     14  C   UNL     1      14.588   8.716  21.655  0.00  0.00    +0.117 C 
ATOM     15  C   UNL     1      15.234   9.628  19.417  0.00  0.00    +0.027 A 
ATOM     16  C   UNL     1      15.314  10.969  19.385  0.00  0.00    +0.024 A 
ATOM     17  C   UNL     1      14.127   9.597  17.226  0.00  0.00    +0.273 A 
ATOM     18  C   UNL     1      12.149   8.259  21.059  0.00  0.00    +0.247 C 
ATOM     19  C   UNL     1      14.210  11.092  17.242  0.00  0.00    +0.099 A 
ATOM     20  C   UNL     1      14.790  11.713  18.275  0.00  0.00    +0.030 A 
ENDROOT
BRANCH  18  21
ATOM      1  F   UNL     1      10.734  13.315  22.983  0.00  0.00    -0.205 F 
ATOM     21  C   UNL     1      11.780   9.585  21.564  0.00  0.00    +0.037 A 
ATOM     22  C   UNL     1      12.009  10.714  20.781  0.00  0.00    +0.016 A 
ATOM     23  C   UNL     1      11.200   9.710  22.824  0.00  0.00    +0.016 A 
ATOM     25  C   UNL     1      11.656  11.975  21.261  0.00  0.00    +0.039 A 
ATOM     26  C   UNL     1      10.846  10.971  23.305  0.00  0.00    +0.039 A 
ATOM     27  C   UNL     1      11.074  12.103  22.523  0.00  0.00    +0.123 A 
ENDBRANCH  18  21
BRANCH  19   8
ATOM      4  O   UNL     1      15.602  11.821  14.843  0.00  0.00    -0.272 OA
ATOM      8  N   UNL     1      13.693  11.774  16.181  0.00  0.00    -0.278 N 
ATOM     24  C   UNL     1      14.422  12.097  15.044  0.00  0.00    +0.255 C 
ATOM     35  H   UNL     1      12.806  12.250  16.330  0.00  0.00    +0.155 HD
BRANCH  24  28
ATOM     28  C   UNL     1      13.579  12.855  14.040  0.00  0.00    +0.324 C 
BRANCH  28   5
ATOM      5  O   UNL     1      13.526  12.164  12.810  0.00  0.00    -0.483 OA
BRANCH   5  29
ATOM     29  C   UNL     1      12.316  12.130  12.160  0.00  0.00    +0.121 A 
ATOM     30  C   UNL     1      12.284  12.170  10.773  0.00  0.00    +0.045 A 
ATOM     31  C   UNL     1      11.144  12.055  12.900  0.00  0.00    +0.045 A 
ATOM     32  C   UNL     1      11.055  12.135  10.113  0.00  0.00    +0.004 A 
ATOM     33  C   UNL     1       9.915  12.019  12.240  0.00  0.00    +0.004 A 
ATOM     34  C   UNL     1       9.871  12.059  10.847  0.00  0.00    +0.000 A 
ENDBRANCH   5  29
ENDBRANCH  28   5
ENDBRANCH  24  28
ENDBRANCH  19   8
TORSDOF 5
ENDMDL
MODEL 2
REMARK VINA RESULT:      -7.6      3.345      5.718
REMARK  Name = 11887496
REMARK  5 active torsions:
REMARK  status: ('A' for Active; 'I' for Inactive)
REMARK    1  A    between atoms: O_5  and  C_28
REMARK    2  A    between atoms: O_5  and  C_29
REMARK    3  A    between atoms: N_8  and  C_19
REMARK    4  A    between atoms: C_18  and  C_21
REMARK    5  A    between atoms: C_24  and  C_28
REMARK                            x       y       z     vdW  Elec       q    Type
REMARK                         _______ _______ _______ _____ _____    ______ ____
ROOT
ATOM      2  O   UNL     1      13.694  11.860  18.131  0.00  0.00    -0.266 OA
ATOM      3  O   UNL     1      15.523   9.295  22.235  0.00  0.00    -0.270 OA
ATOM      6  N   UNL     1      13.667   8.119  21.432  0.00  0.00    -0.297 N 
ATOM      7  N   UNL     1      12.878   9.794  18.857  0.00  0.00    -0.310 N 
ATOM      9  C   UNL     1      11.628   9.501  21.074  0.00  0.00    +0.027 C 
ATOM     10  C   UNL     1      12.049   7.546  19.636  0.00  0.00    +0.054 C 
ATOM     11  C   UNL     1      10.959   8.321  20.377  0.00  0.00    +0.018 C 
ATOM     12  C   UNL     1      12.692   9.004  22.069  0.00  0.00    +0.113 C 
ATOM     13  C   UNL     1      12.223  10.431  20.009  0.00  0.00    +0.130 C 
ATOM     14  C   UNL     1      13.085   7.016  20.648  0.00  0.00    +0.117 C 
ATOM     15  C   UNL     1      12.740   8.424  18.610  0.00  0.00    +0.027 A 
ATOM     16  C   UNL     1      13.250   7.885  17.490  0.00  0.00    +0.024 A 
ATOM     17  C   UNL     1      13.561  10.647  17.966  0.00  0.00    +0.273 A 
ATOM     18  C   UNL     1      15.032   8.376  21.582  0.00  0.00    +0.247 C 
ATOM     19  C   UNL     1      14.138  10.001  16.744  0.00  0.00    +0.099 A 
ATOM     20  C   UNL     1      13.963   8.691  16.541  0.00  0.00    +0.030 A 
ENDROOT
BRANCH  18  21
ATOM      1  F   UNL     1      18.640   5.018  18.943  0.00  0.00    -0.205 F 
ATOM     21  C   UNL     1      15.977   7.494  20.891  0.00  0.00    +0.037 A 
ATOM     22  C   UNL     1      15.644   6.957  19.650  0.00  0.00    +0.016 A 
ATOM     23  C   UNL     1      17.205   7.199  21.477  0.00  0.00    +0.016 A 
ATOM     25  C   UNL     1      16.544   6.120  18.992  0.00  0.00    +0.039 A 
ATOM     26  C   UNL     1      18.106   6.361  20.819  0.00  0.00    +0.039 A 
ATOM     27  C   UNL     1      17.775   5.822  19.576  0.00  0.00    +0.123 A 
ENDBRANCH  18  21
BRANCH  19   8
ATOM      4  O   UNL     1      13.131  11.089  14.289  0.00  0.00    -0.272 OA
ATOM      8  N   UNL     1      14.822  10.789  15.866  0.00  0.00    -0.278 N 
ATOM     24  C   UNL     1      14.275  11.285  14.690  0.00  0.00    +0.255 C 
ATOM     35  H   UNL     1      15.833  10.826  15.975  0.00  0.00    +0.155 HD
BRANCH  24  28
ATOM     28  C   UNL     1      15.275  12.126  13.924  0.00  0.00    +0.324 C 
BRANCH  28   5
ATOM      5  O   UNL     1      16.464  12.288  14.668  0.00  0.00    -0.483 OA
BRANCH   5  29
ATOM     29  C   UNL     1      17.653  12.122  13.996  0.00  0.00    +0.121 A 
ATOM     30  C   UNL     1      18.748  11.597  14.667  0.00  0.00    +0.045 A 
ATOM     31  C   UNL     1      17.739  12.482  12.659  0.00  0.00    +0.045 A 
ATOM     32  C   UNL     1      19.954  11.428  13.986  0.00  0.00    +0.004 A 
ATOM     33  C   UNL     1      18.944  12.313  11.978  0.00  0.00    +0.004 A 
ATOM     34  C   UNL     1      20.051  11.787  12.641  0.00  0.00    +0.000 A 
ENDBRANCH   5  29
ENDBRANCH  28   5
ENDBRANCH  24  28
ENDBRANCH  19   8
TORSDOF 5
ENDMDL
MODEL 3
REMARK VINA RESULT:      -7.4      4.105      8.798
REMARK  Name = 11887496
REMARK  5 active torsions:
REMARK  status: ('A' for Active; 'I' for Inactive)
REMARK    1  A    between atoms: O_5  and  C_28
REMARK    2  A    between atoms: O_5  and  C_29
REMARK    3  A    between atoms: N_8  and  C_19
REMARK    4  A    between atoms: C_18  and  C_21
REMARK    5  A    between atoms: C_24  and  C_28
REMARK                            x       y       z     vdW  Elec       q    Type
REMARK                         _______ _______ _______ _____ _____    ______ ____
ROOT
ATOM      2  O   UNL     1      15.767   6.644  21.580  0.00  0.00    -0.266 OA
ATOM      3  O   UNL     1      12.143   7.051  17.909  0.00  0.00    -0.270 OA
ATOM      6  N   UNL     1      11.771   8.756  19.467  0.00  0.00    -0.297 N 
ATOM      7  N   UNL     1      14.204   8.377  21.466  0.00  0.00    -0.310 N 
ATOM      9  C   UNL     1      11.696   8.007  21.839  0.00  0.00    +0.027 C 
ATOM     10  C   UNL     1      12.535  10.257  21.292  0.00  0.00    +0.054 C 
ATOM     11  C   UNL     1      11.694   9.464  22.292  0.00  0.00    +0.018 C 
ATOM     12  C   UNL     1      11.097   7.882  20.427  0.00  0.00    +0.113 C 
ATOM     13  C   UNL     1      13.132   7.472  21.906  0.00  0.00    +0.130 C 
ATOM     14  C   UNL     1      11.900  10.160  19.890  0.00  0.00    +0.117 C 
ATOM     15  C   UNL     1      13.959   9.737  21.246  0.00  0.00    +0.027 A 
ATOM     16  C   UNL     1      14.975  10.568  20.956  0.00  0.00    +0.024 A 
ATOM     17  C   UNL     1      15.500   7.829  21.378  0.00  0.00    +0.273 A 
ATOM     18  C   UNL     1      12.249   8.222  18.268  0.00  0.00    +0.247 C 
ATOM     19  C   UNL     1      16.598   8.784  21.026  0.00  0.00    +0.099 A 
ATOM     20  C   UNL     1      16.319  10.079  20.844  0.00  0.00    +0.030 A 
ENDROOT
BRANCH  18  21
ATOM      1  F   UNL     1      14.957  11.649  14.777  0.00  0.00    -0.205 F 
ATOM     21  C   UNL     1      12.959   9.119  17.352  0.00  0.00    +0.037 A 
ATOM     22  C   UNL     1      12.356   9.512  16.160  0.00  0.00    +0.016 A 
ATOM     23  C   UNL     1      14.234   9.575  17.678  0.00  0.00    +0.016 A 
ATOM     25  C   UNL     1      13.032  10.367  15.289  0.00  0.00    +0.039 A 
ATOM     26  C   UNL     1      14.910  10.430  16.807  0.00  0.00    +0.039 A 
ATOM     27  C   UNL     1      14.308  10.826  15.613  0.00  0.00    +0.123 A 
ENDBRANCH  18  21
BRANCH  19   8
ATOM      4  O   UNL     1      18.919   9.702  22.439  0.00  0.00    -0.272 OA
ATOM      8  N   UNL     1      17.864   8.289  20.913  0.00  0.00    -0.278 N 
ATOM     24  C   UNL     1      18.949   8.780  21.628  0.00  0.00    +0.255 C 
ATOM     35  H   UNL     1      18.052   7.689  20.114  0.00  0.00    +0.155 HD
BRANCH  24  28
ATOM     28  C   UNL     1      20.221   8.031  21.290  0.00  0.00    +0.324 C 
BRANCH  28   5
ATOM      5  O   UNL     1      19.925   6.758  20.757  0.00  0.00    -0.483 OA
BRANCH   5  29
ATOM     29  C   UNL     1      20.660   5.695  21.223  0.00  0.00    +0.121 A 
ATOM     30  C   UNL     1      20.696   4.517  20.491  0.00  0.00    +0.045 A 
ATOM     31  C   UNL     1      21.356   5.815  22.418  0.00  0.00    +0.045 A 
ATOM     32  C   UNL     1      21.443   3.437  20.964  0.00  0.00    +0.004 A 
ATOM     33  C   UNL     1      22.103   4.736  22.890  0.00  0.00    +0.004 A 
ATOM     34  C   UNL     1      22.146   3.547  22.163  0.00  0.00    +0.000 A 
ENDBRANCH   5  29
ENDBRANCH  28   5
ENDBRANCH  24  28
ENDBRANCH  19   8
TORSDOF 5
ENDMDL
MODEL 4
REMARK VINA RESULT:      -7.4     10.351     13.091
REMARK  Name = 11887496
REMARK  5 active torsions:
REMARK  status: ('A' for Active; 'I' for Inactive)
REMARK    1  A    between atoms: O_5  and  C_28
REMARK    2  A    between atoms: O_5  and  C_29
REMARK    3  A    between atoms: N_8  and  C_19
REMARK    4  A    between atoms: C_18  and  C_21
REMARK    5  A    between atoms: C_24  and  C_28
REMARK                            x       y       z     vdW  Elec       q    Type
REMARK                         _______ _______ _______ _____ _____    ______ ____
ROOT
ATOM      2  O   UNL     1      12.707   7.239   3.547  0.00  0.00    -0.266 OA
ATOM      3  O   UNL     1       8.872  10.009   5.640  0.00  0.00    -0.270 OA
ATOM      6  N   UNL     1       8.993   7.978   6.795  0.00  0.00    -0.297 N 
ATOM      7  N   UNL     1      11.500   6.588   5.439  0.00  0.00    -0.310 N 
ATOM      9  C   UNL     1       9.019   5.953   5.349  0.00  0.00    +0.027 C 
ATOM     10  C   UNL     1      10.212   5.934   7.503  0.00  0.00    +0.054 C 
ATOM     11  C   UNL     1       9.341   5.095   6.568  0.00  0.00    +0.018 C 
ATOM     12  C   UNL     1       8.266   7.227   5.771  0.00  0.00    +0.113 C 
ATOM     13  C   UNL     1      10.326   6.273   4.612  0.00  0.00    +0.130 C 
ATOM     14  C   UNL     1       9.430   7.183   7.955  0.00  0.00    +0.117 C 
ATOM     15  C   UNL     1      11.498   6.354   6.818  0.00  0.00    +0.027 A 
ATOM     16  C   UNL     1      12.619   6.540   7.537  0.00  0.00    +0.024 A 
ATOM     17  C   UNL     1      12.652   7.035   4.761  0.00  0.00    +0.273 A 
ATOM     18  C   UNL     1       9.235   9.341   6.606  0.00  0.00    +0.247 C 
ATOM     19  C   UNL     1      13.871   7.256   5.602  0.00  0.00    +0.099 A 
ATOM     20  C   UNL     1      13.827   7.000   6.914  0.00  0.00    +0.030 A 
ENDROOT
BRANCH  18  21
ATOM      1  F   UNL     1      12.174  12.050  10.516  0.00  0.00    -0.205 F 
ATOM     21  C   UNL     1      10.006  10.050   7.632  0.00  0.00    +0.037 A 
ATOM     22  C   UNL     1      11.384  10.194   7.488  0.00  0.00    +0.016 A 
ATOM     23  C   UNL     1       9.357  10.577   8.746  0.00  0.00    +0.016 A 
ATOM     25  C   UNL     1      12.117  10.869   8.463  0.00  0.00    +0.039 A 
ATOM     26  C   UNL     1      10.091  11.253   9.722  0.00  0.00    +0.039 A 
ATOM     27  C   UNL     1      11.470  11.399   9.580  0.00  0.00    +0.123 A 
ENDBRANCH  18  21
BRANCH  19   8
ATOM      4  O   UNL     1      14.853   9.951   5.604  0.00  0.00    -0.272 OA
ATOM      8  N   UNL     1      15.001   7.707   4.986  0.00  0.00    -0.278 N 
ATOM     24  C   UNL     1      15.423   9.030   5.025  0.00  0.00    +0.255 C 
ATOM     35  H   UNL     1      15.422   7.092   4.293  0.00  0.00    +0.155 HD
BRANCH  24  28
ATOM     28  C   UNL     1      16.709   9.225   4.249  0.00  0.00    +0.324 C 
BRANCH  28   5
ATOM      5  O   UNL     1      17.722   9.742   5.084  0.00  0.00    -0.483 OA
BRANCH   5  29
ATOM     29  C   UNL     1      18.816   8.942   5.313  0.00  0.00    +0.121 A 
ATOM     30  C   UNL     1      19.443   8.980   6.550  0.00  0.00    +0.045 A 
ATOM     31  C   UNL     1      19.277   8.107   4.304  0.00  0.00    +0.045 A 
ATOM     32  C   UNL     1      20.554   8.168   6.783  0.00  0.00    +0.004 A 
ATOM     33  C   UNL     1      20.386   7.294   4.538  0.00  0.00    +0.004 A 
ATOM     34  C   UNL     1      21.024   7.325   5.777  0.00  0.00    +0.000 A 
ENDBRANCH   5  29
ENDBRANCH  28   5
ENDBRANCH  24  28
ENDBRANCH  19   8
TORSDOF 5
ENDMDL
MODEL 5
REMARK VINA RESULT:      -7.4     28.347     30.302
REMARK  Name = 11887496
REMARK  5 active torsions:
REMARK  status: ('A' for Active; 'I' for Inactive)
REMARK    1  A    between atoms: O_5  and  C_28
REMARK    2  A    between atoms: O_5  and  C_29
REMARK    3  A    between atoms: N_8  and  C_19
REMARK    4  A    between atoms: C_18  and  C_21
REMARK    5  A    between atoms: C_24  and  C_28
REMARK                            x       y       z     vdW  Elec       q    Type
REMARK                         _______ _______ _______ _____ _____    ______ ____
ROOT
ATOM      2  O   UNL     1     -10.771  -8.720  18.173  0.00  0.00    -0.266 OA
ATOM      3  O   UNL     1      -6.395 -10.642  20.153  0.00  0.00    -0.270 OA
ATOM      6  N   UNL     1      -7.464 -12.366  18.987  0.00  0.00    -0.297 N 
ATOM      7  N   UNL     1      -9.978 -10.878  17.753  0.00  0.00    -0.310 N 
ATOM      9  C   UNL     1      -9.863 -12.687  19.564  0.00  0.00    +0.027 C 
ATOM     10  C   UNL     1      -9.076 -13.183  17.284  0.00  0.00    +0.054 C 
ATOM     11  C   UNL     1     -10.006 -13.661  18.399  0.00  0.00    +0.018 C 
ATOM     12  C   UNL     1      -8.408 -12.658  20.065  0.00  0.00    +0.113 C 
ATOM     13  C   UNL     1     -10.346 -11.303  19.112  0.00  0.00    +0.130 C 
ATOM     14  C   UNL     1      -7.618 -13.201  17.784  0.00  0.00    +0.117 C 
ATOM     15  C   UNL     1      -9.445 -11.783  16.830  0.00  0.00    +0.027 A 
ATOM     16  C   UNL     1      -9.224 -11.403  15.561  0.00  0.00    +0.024 A 
ATOM     17  C   UNL     1     -10.285  -9.548  17.401  0.00  0.00    +0.273 A 
ATOM     18  C   UNL     1      -6.528 -11.342  19.151  0.00  0.00    +0.247 C 
ATOM     19  C   UNL     1      -9.998  -9.157  15.984  0.00  0.00    +0.099 A 
ATOM     20  C   UNL     1      -9.506 -10.062  15.132  0.00  0.00    +0.030 A 
ENDROOT
BRANCH  18  21
ATOM      1  F   UNL     1      -3.095 -10.217  14.882  0.00  0.00    -0.205 F 
ATOM     21  C   UNL     1      -5.629 -11.048  18.030  0.00  0.00    +0.037 A 
ATOM     22  C   UNL     1      -6.063 -10.234  16.988  0.00  0.00    +0.016 A 
ATOM     23  C   UNL     1      -4.343 -11.584  18.015  0.00  0.00    +0.016 A 
ATOM     25  C   UNL     1      -5.207  -9.953  15.923  0.00  0.00    +0.039 A 
ATOM     26  C   UNL     1      -3.486 -11.303  16.950  0.00  0.00    +0.039 A 
ATOM     27  C   UNL     1      -3.918 -10.488  15.905  0.00  0.00    +0.123 A 
ENDBRANCH  18  21
BRANCH  19   8
ATOM      4  O   UNL     1     -12.466  -8.173  14.904  0.00  0.00    -0.272 OA
ATOM      8  N   UNL     1     -10.264  -7.873  15.609  0.00  0.00    -0.278 N 
ATOM     24  C   UNL     1     -11.484  -7.459  15.090  0.00  0.00    +0.255 C 
ATOM     35  H   UNL     1      -9.465  -7.252  15.501  0.00  0.00    +0.155 HD
BRANCH  24  28
ATOM     28  C   UNL     1     -11.477  -5.980  14.766  0.00  0.00    +0.324 C 
BRANCH  28   5
ATOM      5  O   UNL     1     -12.794  -5.477  14.703  0.00  0.00    -0.483 OA
BRANCH   5  29
ATOM     29  C   UNL     1     -13.130  -4.733  13.597  0.00  0.00    +0.121 A 
ATOM     30  C   UNL     1     -14.459  -4.398  13.377  0.00  0.00    +0.045 A 
ATOM     31  C   UNL     1     -12.136  -4.328  12.717  0.00  0.00    +0.045 A 
ATOM     32  C   UNL     1     -14.800  -3.643  12.254  0.00  0.00    +0.004 A 
ATOM     33  C   UNL     1     -12.478  -3.573  11.595  0.00  0.00    +0.004 A 
ATOM     34  C   UNL     1     -13.809  -3.231  11.364  0.00  0.00    +0.000 A 
ENDBRANCH   5  29
ENDBRANCH  28   5
ENDBRANCH  24  28
ENDBRANCH  19   8
TORSDOF 5
ENDMDL
MODEL 6
REMARK VINA RESULT:      -7.2     11.881     14.417
REMARK  Name = 11887496
REMARK  5 active torsions:
REMARK  status: ('A' for Active; 'I' for Inactive)
REMARK    1  A    between atoms: O_5  and  C_28
REMARK    2  A    between atoms: O_5  and  C_29
REMARK    3  A    between atoms: N_8  and  C_19
REMARK    4  A    between atoms: C_18  and  C_21
REMARK    5  A    between atoms: C_24  and  C_28
REMARK                            x       y       z     vdW  Elec       q    Type
REMARK                         _______ _______ _______ _____ _____    ______ ____
ROOT
ATOM      2  O   UNL     1      13.878   6.740   7.113  0.00  0.00    -0.266 OA
ATOM      3  O   UNL     1      10.260   5.487   3.633  0.00  0.00    -0.270 OA
ATOM      6  N   UNL     1       9.178   6.472   5.459  0.00  0.00    -0.297 N 
ATOM      7  N   UNL     1      11.615   7.286   7.319  0.00  0.00    -0.310 N 
ATOM      9  C   UNL     1       9.792   5.521   7.675  0.00  0.00    +0.027 C 
ATOM     10  C   UNL     1       9.178   7.899   7.492  0.00  0.00    +0.054 C 
ATOM     11  C   UNL     1       9.033   6.651   8.363  0.00  0.00    +0.018 C 
ATOM     12  C   UNL     1       9.213   5.258   6.274  0.00  0.00    +0.113 C 
ATOM     13  C   UNL     1      11.281   5.887   7.624  0.00  0.00    +0.130 C 
ATOM     14  C   UNL     1       8.553   7.638   6.107  0.00  0.00    +0.117 C 
ATOM     15  C   UNL     1      10.636   8.284   7.332  0.00  0.00    +0.027 A 
ATOM     16  C   UNL     1      10.981   9.572   7.164  0.00  0.00    +0.024 A 
ATOM     17  C   UNL     1      12.979   7.582   7.116  0.00  0.00    +0.273 A 
ATOM     18  C   UNL     1       9.737   6.457   4.179  0.00  0.00    +0.247 C 
ATOM     19  C   UNL     1      13.317   9.025   6.905  0.00  0.00    +0.099 A 
ATOM     20  C   UNL     1      12.349   9.947   6.946  0.00  0.00    +0.030 A 
ENDROOT
BRANCH  18  21
ATOM      1  F   UNL     1       9.691  11.220   1.251  0.00  0.00    -0.205 F 
ATOM     21  C   UNL     1       9.726   7.705   3.410  0.00  0.00    +0.037 A 
ATOM     22  C   UNL     1       8.680   7.967   2.529  0.00  0.00    +0.016 A 
ATOM     23  C   UNL     1      10.760   8.624   3.565  0.00  0.00    +0.016 A 
ATOM     25  C   UNL     1       8.668   9.155   1.798  0.00  0.00    +0.039 A 
ATOM     26  C   UNL     1      10.749   9.813   2.834  0.00  0.00    +0.039 A 
ATOM     27  C   UNL     1       9.702  10.078   1.952  0.00  0.00    +0.123 A 
ENDBRANCH  18  21
BRANCH  19   8
ATOM      4  O   UNL     1      14.669   9.043   4.376  0.00  0.00    -0.272 OA
ATOM      8  N   UNL     1      14.624   9.350   6.686  0.00  0.00    -0.278 N 
ATOM     24  C   UNL     1      15.220   9.339   5.433  0.00  0.00    +0.255 C 
ATOM     35  H   UNL     1      15.230   9.386   7.503  0.00  0.00    +0.155 HD
BRANCH  24  28
ATOM     28  C   UNL     1      16.677   9.745   5.507  0.00  0.00    +0.324 C 
BRANCH  28   5
ATOM      5  O   UNL     1      17.461   8.952   4.642  0.00  0.00    -0.483 OA
BRANCH   5  29
ATOM     29  C   UNL     1      18.665   8.497   5.125  0.00  0.00    +0.121 A 
ATOM     30  C   UNL     1      19.491   7.745   4.302  0.00  0.00    +0.045 A 
ATOM     31  C   UNL     1      19.037   8.797   6.428  0.00  0.00    +0.045 A 
ATOM     32  C   UNL     1      20.714   7.284   4.791  0.00  0.00    +0.004 A 
ATOM     33  C   UNL     1      20.259   8.336   6.918  0.00  0.00    +0.004 A 
ATOM     34  C   UNL     1      21.097   7.579   6.100  0.00  0.00    +0.000 A 
ENDBRANCH   5  29
ENDBRANCH  28   5
ENDBRANCH  24  28
ENDBRANCH  19   8
TORSDOF 5
ENDMDL
MODEL 7
REMARK VINA RESULT:      -7.1     27.577     29.644
REMARK  Name = 11887496
REMARK  5 active torsions:
REMARK  status: ('A' for Active; 'I' for Inactive)
REMARK    1  A    between atoms: O_5  and  C_28
REMARK    2  A    between atoms: O_5  and  C_29
REMARK    3  A    between atoms: N_8  and  C_19
REMARK    4  A    between atoms: C_18  and  C_21
REMARK    5  A    between atoms: C_24  and  C_28
REMARK                            x       y       z     vdW  Elec       q    Type
REMARK                         _______ _______ _______ _____ _____    ______ ____
ROOT
ATOM      2  O   UNL     1      -6.589  -9.608  13.599  0.00  0.00    -0.266 OA
ATOM      3  O   UNL     1      -5.170 -14.363  12.134  0.00  0.00    -0.270 OA
ATOM      6  N   UNL     1      -3.222 -13.141  12.560  0.00  0.00    -0.297 N 
ATOM      7  N   UNL     1      -4.382 -10.375  13.593  0.00  0.00    -0.310 N 
ATOM      9  C   UNL     1      -3.112 -10.923  11.436  0.00  0.00    +0.027 C 
ATOM     10  C   UNL     1      -2.017 -11.244  13.619  0.00  0.00    +0.054 C 
ATOM     11  C   UNL     1      -1.869 -10.580  12.250  0.00  0.00    +0.018 C 
ATOM     12  C   UNL     1      -3.244 -12.447  11.272  0.00  0.00    +0.113 C 
ATOM     13  C   UNL     1      -4.338 -10.309  12.125  0.00  0.00    +0.130 C 
ATOM     14  C   UNL     1      -2.103 -12.773  13.445  0.00  0.00    +0.117 C 
ATOM     15  C   UNL     1      -3.255 -10.741  14.336  0.00  0.00    +0.027 A 
ATOM     16  C   UNL     1      -3.283 -10.683  15.679  0.00  0.00    +0.024 A 
ATOM     17  C   UNL     1      -5.578  -9.955  14.210  0.00  0.00    +0.273 A 
ATOM     18  C   UNL     1      -4.234 -14.053  12.868  0.00  0.00    +0.247 C 
ATOM     19  C   UNL     1      -5.577  -9.932  15.707  0.00  0.00    +0.099 A 
ATOM     20  C   UNL     1      -4.469 -10.271  16.375  0.00  0.00    +0.030 A 
ENDROOT
BRANCH  18  21
ATOM      1  F   UNL     1      -4.116 -16.490  17.899  0.00  0.00    -0.205 F 
ATOM     21  C   UNL     1      -4.205 -14.693  14.187  0.00  0.00    +0.037 A 
ATOM     22  C   UNL     1      -3.501 -15.881  14.365  0.00  0.00    +0.016 A 
ATOM     23  C   UNL     1      -4.880 -14.109  15.256  0.00  0.00    +0.016 A 
ATOM     25  C   UNL     1      -3.472 -16.489  15.620  0.00  0.00    +0.039 A 
ATOM     26  C   UNL     1      -4.850 -14.717  16.512  0.00  0.00    +0.039 A 
ATOM     27  C   UNL     1      -4.146 -15.906  16.693  0.00  0.00    +0.123 A 
ENDBRANCH  18  21
BRANCH  19   8
ATOM      4  O   UNL     1      -7.608 -11.667  16.750  0.00  0.00    -0.272 OA
ATOM      8  N   UNL     1      -6.721  -9.549  16.343  0.00  0.00    -0.278 N 
ATOM     24  C   UNL     1      -7.668 -10.442  16.825  0.00  0.00    +0.255 C 
ATOM     35  H   UNL     1      -6.987  -8.571  16.258  0.00  0.00    +0.155 HD
BRANCH  24  28
ATOM     28  C   UNL     1      -8.828  -9.721  17.480  0.00  0.00    +0.324 C 
BRANCH  28   5
ATOM      5  O   UNL     1      -8.890  -8.379  17.048  0.00  0.00    -0.483 OA
BRANCH   5  29
ATOM     29  C   UNL     1     -10.120  -7.896  16.669  0.00  0.00    +0.121 A 
ATOM     30  C   UNL     1     -10.193  -6.749  15.892  0.00  0.00    +0.045 A 
ATOM     31  C   UNL     1     -11.269  -8.564  17.070  0.00  0.00    +0.045 A 
ATOM     32  C   UNL     1     -11.442  -6.259  15.507  0.00  0.00    +0.004 A 
ATOM     33  C   UNL     1     -12.517  -8.074  16.684  0.00  0.00    +0.004 A 
ATOM     34  C   UNL     1     -12.603  -6.922  15.904  0.00  0.00    +0.000 A 
ENDBRANCH   5  29
ENDBRANCH  28   5
ENDBRANCH  24  28
ENDBRANCH  19   8
TORSDOF 5
ENDMDL
MODEL 8
REMARK VINA RESULT:      -7.0      4.491      9.164
REMARK  Name = 11887496
REMARK  5 active torsions:
REMARK  status: ('A' for Active; 'I' for Inactive)
REMARK    1  A    between atoms: O_5  and  C_28
REMARK    2  A    between atoms: O_5  and  C_29
REMARK    3  A    between atoms: N_8  and  C_19
REMARK    4  A    between atoms: C_18  and  C_21
REMARK    5  A    between atoms: C_24  and  C_28
REMARK                            x       y       z     vdW  Elec       q    Type
REMARK                         _______ _______ _______ _____ _____    ______ ____
ROOT
ATOM      2  O   UNL     1      15.929   6.023  19.392  0.00  0.00    -0.266 OA
ATOM      3  O   UNL     1      12.965   9.676  17.240  0.00  0.00    -0.270 OA
ATOM      6  N   UNL     1      12.482   9.627  19.529  0.00  0.00    -0.297 N 
ATOM      7  N   UNL     1      14.537   7.461  20.598  0.00  0.00    -0.310 N 
ATOM      9  C   UNL     1      11.981   7.368  20.443  0.00  0.00    +0.027 C 
ATOM     10  C   UNL     1      13.062   9.055  21.875  0.00  0.00    +0.054 C 
ATOM     11  C   UNL     1      12.017   7.939  21.857  0.00  0.00    +0.018 C 
ATOM     12  C   UNL     1      11.603   8.462  19.430  0.00  0.00    +0.113 C 
ATOM     13  C   UNL     1      13.345   6.738  20.130  0.00  0.00    +0.130 C 
ATOM     14  C   UNL     1      12.649  10.166  20.889  0.00  0.00    +0.117 C 
ATOM     15  C   UNL     1      14.433   8.523  21.501  0.00  0.00    +0.027 A 
ATOM     16  C   UNL     1      15.540   9.094  22.004  0.00  0.00    +0.024 A 
ATOM     17  C   UNL     1      15.786   6.965  20.172  0.00  0.00    +0.273 A 
ATOM     18  C   UNL     1      13.100  10.122  18.378  0.00  0.00    +0.247 C 
ATOM     19  C   UNL     1      16.995   7.647  20.734  0.00  0.00    +0.099 A 
ATOM     20  C   UNL     1      16.845   8.646  21.611  0.00  0.00    +0.030 A 
ENDROOT
BRANCH  18  21
ATOM      1  F   UNL     1      16.573  14.470  18.927  0.00  0.00    -0.205 F 
ATOM     21  C   UNL     1      14.011  11.262  18.524  0.00  0.00    +0.037 A 
ATOM     22  C   UNL     1      15.349  11.044  18.838  0.00  0.00    +0.016 A 
ATOM     23  C   UNL     1      13.532  12.557  18.346  0.00  0.00    +0.016 A 
ATOM     25  C   UNL     1      16.216  12.129  18.976  0.00  0.00    +0.039 A 
ATOM     26  C   UNL     1      14.399  13.643  18.483  0.00  0.00    +0.039 A 
ATOM     27  C   UNL     1      15.740  13.428  18.797  0.00  0.00    +0.123 A 
ENDBRANCH  18  21
BRANCH  19   8
ATOM      4  O   UNL     1      19.023   6.493  22.401  0.00  0.00    -0.272 OA
ATOM      8  N   UNL     1      18.222   7.209  20.332  0.00  0.00    -0.278 N 
ATOM     24  C   UNL     1      19.162   6.658  21.192  0.00  0.00    +0.255 C 
ATOM     35  H   UNL     1      18.534   7.503  19.409  0.00  0.00    +0.155 HD
BRANCH  24  28
ATOM     28  C   UNL     1      20.427   6.267  20.456  0.00  0.00    +0.324 C 
BRANCH  28   5
ATOM      5  O   UNL     1      20.612   4.868  20.491  0.00  0.00    -0.483 OA
BRANCH   5  29
ATOM     29  C   UNL     1      21.819   4.405  20.961  0.00  0.00    +0.121 A 
ATOM     30  C   UNL     1      22.997   4.926  20.445  0.00  0.00    +0.045 A 
ATOM     31  C   UNL     1      21.840   3.426  21.944  0.00  0.00    +0.045 A 
ATOM     32  C   UNL     1      24.222   4.458  20.922  0.00  0.00    +0.004 A 
ATOM     33  C   UNL     1      23.065   2.958  22.421  0.00  0.00    +0.004 A 
ATOM     34  C   UNL     1      24.255   3.473  21.910  0.00  0.00    +0.000 A 
ENDBRANCH   5  29
ENDBRANCH  28   5
ENDBRANCH  24  28
ENDBRANCH  19   8
TORSDOF 5
ENDMDL
MODEL 9
REMARK VINA RESULT:      -7.0     27.926     29.721
REMARK  Name = 11887496
REMARK  5 active torsions:
REMARK  status: ('A' for Active; 'I' for Inactive)
REMARK    1  A    between atoms: O_5  and  C_28
REMARK    2  A    between atoms: O_5  and  C_29
REMARK    3  A    between atoms: N_8  and  C_19
REMARK    4  A    between atoms: C_18  and  C_21
REMARK    5  A    between atoms: C_24  and  C_28
REMARK                            x       y       z     vdW  Elec       q    Type
REMARK                         _______ _______ _______ _____ _____    ______ ____
ROOT
ATOM      2  O   UNL     1      -6.128 -13.264  15.662  0.00  0.00    -0.266 OA
ATOM      3  O   UNL     1     -11.197 -12.272  15.952  0.00  0.00    -0.270 OA
ATOM      6  N   UNL     1     -10.320 -12.123  18.115  0.00  0.00    -0.297 N 
ATOM      7  N   UNL     1      -7.223 -12.592  17.613  0.00  0.00    -0.310 N 
ATOM      9  C   UNL     1      -8.936 -14.069  18.818  0.00  0.00    +0.027 C 
ATOM     10  C   UNL     1      -8.424 -11.824  19.691  0.00  0.00    +0.054 C 
ATOM     11  C   UNL     1      -8.506 -13.304  20.065  0.00  0.00    +0.018 C 
ATOM     12  C   UNL     1     -10.307 -13.571  18.328  0.00  0.00    +0.113 C 
ATOM     13  C   UNL     1      -7.850 -13.916  17.746  0.00  0.00    +0.130 C 
ATOM     14  C   UNL     1      -9.812 -11.326  19.245  0.00  0.00    +0.117 C 
ATOM     15  C   UNL     1      -7.417 -11.599  18.579  0.00  0.00    +0.027 A 
ATOM     16  C   UNL     1      -6.745 -10.438  18.499  0.00  0.00    +0.024 A 
ATOM     17  C   UNL     1      -6.344 -12.414  16.527  0.00  0.00    +0.273 A 
ATOM     18  C   UNL     1     -10.772 -11.611  16.897  0.00  0.00    +0.247 C 
ATOM     19  C   UNL     1      -5.636 -11.096  16.459  0.00  0.00    +0.099 A 
ATOM     20  C   UNL     1      -5.838 -10.184  17.416  0.00  0.00    +0.030 A 
ENDROOT
BRANCH  18  21
ATOM      1  F   UNL     1     -10.595  -6.070  16.167  0.00  0.00    -0.205 F 
ATOM     21  C   UNL     1     -10.726 -10.158  16.704  0.00  0.00    +0.037 A 
ATOM     22  C   UNL     1     -11.854  -9.387  16.974  0.00  0.00    +0.016 A 
ATOM     23  C   UNL     1      -9.555  -9.556  16.254  0.00  0.00    +0.016 A 
ATOM     25  C   UNL     1     -11.810  -8.005  16.792  0.00  0.00    +0.039 A 
ATOM     26  C   UNL     1      -9.510  -8.173  16.071  0.00  0.00    +0.039 A 
ATOM     27  C   UNL     1     -10.638  -7.398  16.341  0.00  0.00    +0.123 A 
ENDBRANCH  18  21
BRANCH  19   8
ATOM      4  O   UNL     1      -2.770 -11.153  16.543  0.00  0.00    -0.272 OA
ATOM      8  N   UNL     1      -4.790 -10.877  15.412  0.00  0.00    -0.278 N 
ATOM     24  C   UNL     1      -3.406 -10.919  15.519  0.00  0.00    +0.255 C 
ATOM     35  H   UNL     1      -5.191 -10.451  14.580  0.00  0.00    +0.155 HD
BRANCH  24  28
ATOM     28  C   UNL     1      -2.737 -10.635  14.190  0.00  0.00    +0.324 C 
BRANCH  28   5
ATOM      5  O   UNL     1      -3.503 -11.156  13.124  0.00  0.00    -0.483 OA
BRANCH   5  29
ATOM     29  C   UNL     1      -3.743 -10.324  12.057  0.00  0.00    +0.121 A 
ATOM     30  C   UNL     1      -5.000  -9.760  11.900  0.00  0.00    +0.045 A 
ATOM     31  C   UNL     1      -2.723 -10.062  11.152  0.00  0.00    +0.045 A 
ATOM     32  C   UNL     1      -5.244  -8.915  10.816  0.00  0.00    +0.004 A 
ATOM     33  C   UNL     1      -2.966  -9.216  10.069  0.00  0.00    +0.004 A 
ATOM     34  C   UNL     1      -4.227  -8.644   9.901  0.00  0.00    +0.000 A 
ENDBRANCH   5  29
ENDBRANCH  28   5
ENDBRANCH  24  28
ENDBRANCH  19   8
TORSDOF 5
ENDMDL
MODEL 10
REMARK VINA RESULT:      -7.0     24.143     26.313
REMARK  Name = 11887496
REMARK  5 active torsions:
REMARK  status: ('A' for Active; 'I' for Inactive)
REMARK    1  A    between atoms: O_5  and  C_28
REMARK    2  A    between atoms: O_5  and  C_29
REMARK    3  A    between atoms: N_8  and  C_19
REMARK    4  A    between atoms: C_18  and  C_21
REMARK    5  A    between atoms: C_24  and  C_28
REMARK                            x       y       z     vdW  Elec       q    Type
REMARK                         _______ _______ _______ _____ _____    ______ ____
ROOT
ATOM      2  O   UNL     1     -13.803   8.511  17.763  0.00  0.00    -0.266 OA
ATOM      3  O   UNL     1     -16.279  10.440  21.875  0.00  0.00    -0.270 OA
ATOM      6  N   UNL     1     -15.837   8.183  22.307  0.00  0.00    -0.297 N 
ATOM      7  N   UNL     1     -14.185   7.325  19.739  0.00  0.00    -0.310 N 
ATOM      9  C   UNL     1     -16.528   6.619  20.499  0.00  0.00    +0.027 C 
ATOM     10  C   UNL     1     -14.572   6.085  21.898  0.00  0.00    +0.054 C 
ATOM     11  C   UNL     1     -15.799   5.484  21.212  0.00  0.00    +0.018 C 
ATOM     12  C   UNL     1     -16.961   7.697  21.508  0.00  0.00    +0.113 C 
ATOM     13  C   UNL     1     -15.611   7.185  19.408  0.00  0.00    +0.130 C 
ATOM     14  C   UNL     1     -15.022   7.131  22.937  0.00  0.00    +0.117 C 
ATOM     15  C   UNL     1     -13.646   6.734  20.887  0.00  0.00    +0.027 A 
ATOM     16  C   UNL     1     -12.322   6.775  21.111  0.00  0.00    +0.024 A 
ATOM     17  C   UNL     1     -13.377   7.991  18.795  0.00  0.00    +0.273 A 
ATOM     18  C   UNL     1     -15.602   9.557  22.399  0.00  0.00    +0.247 C 
ATOM     19  C   UNL     1     -11.911   8.039  19.096  0.00  0.00    +0.099 A 
ATOM     20  C   UNL     1     -11.440   7.442  20.196  0.00  0.00    +0.030 A 
ENDROOT
BRANCH  18  21
ATOM      1  F   UNL     1     -11.162  11.258  25.342  0.00  0.00    -0.205 F 
ATOM     21  C   UNL     1     -14.439  10.005  23.171  0.00  0.00    +0.037 A 
ATOM     22  C   UNL     1     -14.521  10.098  24.558  0.00  0.00    +0.016 A 
ATOM     23  C   UNL     1     -13.256  10.333  22.513  0.00  0.00    +0.016 A 
ATOM     25  C   UNL     1     -13.413  10.522  25.292  0.00  0.00    +0.039 A 
ATOM     26  C   UNL     1     -12.148  10.758  23.247  0.00  0.00    +0.039 A 
ATOM     27  C   UNL     1     -12.227  10.851  24.636  0.00  0.00    +0.123 A 
ENDBRANCH  18  21
BRANCH  19   8
ATOM      4  O   UNL     1     -10.982  10.743  19.317  0.00  0.00    -0.272 OA
ATOM      8  N   UNL     1     -11.098   8.691  18.216  0.00  0.00    -0.278 N 
ATOM     24  C   UNL     1     -10.683  10.005  18.382  0.00  0.00    +0.255 C 
ATOM     35  H   UNL     1     -10.978   8.264  17.300  0.00  0.00    +0.155 HD
BRANCH  24  28
ATOM     28  C   UNL     1      -9.789  10.453  17.243  0.00  0.00    +0.324 C 
BRANCH  28   5
ATOM      5  O   UNL     1     -10.310  11.610  16.625  0.00  0.00    -0.483 OA
BRANCH   5  29
ATOM     29  C   UNL     1      -9.683  12.803  16.895  0.00  0.00    +0.121 A 
ATOM     30  C   UNL     1      -8.344  12.960  16.565  0.00  0.00    +0.045 A 
ATOM     31  C   UNL     1     -10.398  13.832  17.491  0.00  0.00    +0.045 A 
ATOM     32  C   UNL     1      -7.707  14.171  16.838  0.00  0.00    +0.004 A 
ATOM     33  C   UNL     1      -9.761  15.043  17.764  0.00  0.00    +0.004 A 
ATOM     34  C   UNL     1      -8.416  15.212  17.438  0.00  0.00    +0.000 A 
ENDBRANCH   5  29
ENDBRANCH  28   5
ENDBRANCH  24  28
ENDBRANCH  19   8
TORSDOF 5
ENDMDL
