MODEL 1
REMARK VINA RESULT:      -6.2      0.000      0.000
REMARK  Name = 45783369
REMARK  11 active torsions:
REMARK  status: ('A' for Active; 'I' for Inactive)
REMARK    1  A    between atoms: S_1  and  C_23
REMARK    2  A    between atoms: S_1  and  C_26
REMARK    3  A    between atoms: O_5  and  C_28
REMARK    4  A    between atoms: O_5  and  C_30
REMARK    5  A    between atoms: O_6  and  C_31
REMARK    6  A    between atoms: O_6  and  C_32
REMARK    7  A    between atoms: N_7  and  C_15
REMARK    8  A    between atoms: C_11  and  C_16
REMARK    9  A    between atoms: C_15  and  C_17
REMARK   10  A    between atoms: C_20  and  C_24
REMARK   11  A    between atoms: C_30  and  C_31
REMARK                            x       y       z     vdW  Elec       q    Type
REMARK                         _______ _______ _______ _____ _____    ______ ____
ROOT
ATOM      7  N   UNL     1      19.168   8.550  21.933  0.00  0.00    -0.287 NA
ATOM     11  C   UNL     1      19.319   7.374  21.052  0.00  0.00    +0.146 C 
ATOM     12  C   UNL     1      19.848   6.260  21.974  0.00  0.00    +0.030 C 
ATOM     13  C   UNL     1      20.019   6.917  23.335  0.00  0.00    +0.017 C 
ATOM     14  C   UNL     1      20.150   8.390  23.006  0.00  0.00    +0.085 C 
ENDROOT
BRANCH  11  16
ATOM      2  O   UNL     1      18.100   5.982  19.457  0.00  0.00    -0.336 OA
ATOM      8  N   UNL     1      16.830   7.507  20.495  0.00  0.00    -0.190 NA
ATOM      9  N   UNL     1      16.803   5.817  18.953  0.00  0.00    -0.056 NA
ATOM     16  C   UNL     1      18.027   6.996  20.358  0.00  0.00    +0.245 A 
ATOM     20  C   UNL     1      16.112   6.752  19.613  0.00  0.00    +0.202 A 
BRANCH  20  24
ATOM     10  N   UNL     1      11.966   7.352  19.035  0.00  0.00    -0.221 NA
ATOM     24  C   UNL     1      14.707   6.956  19.417  0.00  0.00    +0.029 A 
ATOM     25  C   UNL     1      13.805   6.613  20.420  0.00  0.00    +0.079 A 
ATOM     27  C   UNL     1      14.239   7.496  18.225  0.00  0.00    +0.031 A 
ATOM     28  C   UNL     1      12.457   6.829  20.181  0.00  0.00    +0.215 A 
ATOM     29  C   UNL     1      12.872   7.673  18.084  0.00  0.00    +0.115 A 
BRANCH  28   5
ATOM      5  O   UNL     1      11.548   6.499  21.152  0.00  0.00    -0.474 OA
BRANCH   5  30
ATOM     30  C   UNL     1      10.609   7.502  21.517  0.00  0.00    +0.258 C 
BRANCH  30  31
ATOM     31  C   UNL     1      11.293   8.519  22.410  0.00  0.00    +0.200 C 
BRANCH  31   6
ATOM      6  O   UNL     1      10.418   9.622  22.613  0.00  0.00    -0.380 OA
ATOM     32  C   UNL     1      11.134  10.799  22.957  0.00  0.00    +0.194 C 
ENDBRANCH  31   6
ENDBRANCH  30  31
ENDBRANCH   5  30
ENDBRANCH  28   5
ENDBRANCH  20  24
ENDBRANCH  11  16
BRANCH   7  15
ATOM     15  C   UNL     1      19.322   9.818  21.231  0.00  0.00    +0.120 C 
BRANCH  15  17
ATOM     17  C   UNL     1      18.114  10.700  21.397  0.00  0.00    -0.033 A 
ATOM     18  C   UNL     1      17.241  10.896  20.326  0.00  0.00    +0.007 A 
ATOM     19  C   UNL     1      17.867  11.323  22.620  0.00  0.00    +0.007 A 
ATOM     21  C   UNL     1      16.122  11.714  20.479  0.00  0.00    +0.027 A 
ATOM     22  C   UNL     1      16.747  12.141  22.773  0.00  0.00    +0.027 A 
ATOM     23  C   UNL     1      15.875  12.336  21.703  0.00  0.00    +0.088 A 
BRANCH  23   1
ATOM      1  S   UNL     1      14.472  13.357  21.895  0.00  0.00    -0.006 S 
ATOM      3  O   UNL     1      13.860  13.081  23.187  0.00  0.00    -0.170 OA
ATOM      4  O   UNL     1      14.860  14.719  21.556  0.00  0.00    -0.170 OA
ATOM     26  C   UNL     1      13.336  12.786  20.652  0.00  0.00    +0.200 C 
ENDBRANCH  23   1
ENDBRANCH  15  17
ENDBRANCH   7  15
TORSDOF 9
ENDMDL
MODEL 2
REMARK VINA RESULT:      -6.2     27.772     31.448
REMARK  Name = 45783369
REMARK  11 active torsions:
REMARK  status: ('A' for Active; 'I' for Inactive)
REMARK    1  A    between atoms: S_1  and  C_23
REMARK    2  A    between atoms: S_1  and  C_26
REMARK    3  A    between atoms: O_5  and  C_28
REMARK    4  A    between atoms: O_5  and  C_30
REMARK    5  A    between atoms: O_6  and  C_31
REMARK    6  A    between atoms: O_6  and  C_32
REMARK    7  A    between atoms: N_7  and  C_15
REMARK    8  A    between atoms: C_11  and  C_16
REMARK    9  A    between atoms: C_15  and  C_17
REMARK   10  A    between atoms: C_20  and  C_24
REMARK   11  A    between atoms: C_30  and  C_31
REMARK                            x       y       z     vdW  Elec       q    Type
REMARK                         _______ _______ _______ _____ _____    ______ ____
ROOT
ATOM      7  N   UNL     1     -15.510   5.696  21.607  0.00  0.00    -0.287 NA
ATOM     11  C   UNL     1     -16.750   5.479  22.378  0.00  0.00    +0.146 C 
ATOM     12  C   UNL     1     -17.772   4.975  21.343  0.00  0.00    +0.030 C 
ATOM     13  C   UNL     1     -17.034   4.999  20.012  0.00  0.00    +0.017 C 
ATOM     14  C   UNL     1     -15.923   6.004  20.237  0.00  0.00    +0.085 C 
ENDROOT
BRANCH  11  16
ATOM      2  O   UNL     1     -16.138   3.263  23.207  0.00  0.00    -0.336 OA
ATOM      8  N   UNL     1     -16.741   4.704  24.811  0.00  0.00    -0.190 NA
ATOM      9  N   UNL     1     -16.037   2.564  24.416  0.00  0.00    -0.056 NA
ATOM     16  C   UNL     1     -16.559   4.514  23.530  0.00  0.00    +0.245 A 
ATOM     20  C   UNL     1     -16.409   3.480  25.315  0.00  0.00    +0.202 A 
BRANCH  20  24
ATOM     10  N   UNL     1     -16.552   2.671  29.464  0.00  0.00    -0.221 NA
ATOM     24  C   UNL     1     -16.457   3.206  26.722  0.00  0.00    +0.029 A 
ATOM     25  C   UNL     1     -16.228   1.916  27.190  0.00  0.00    +0.079 A 
ATOM     27  C   UNL     1     -16.734   4.228  27.623  0.00  0.00    +0.031 A 
ATOM     28  C   UNL     1     -16.286   1.704  28.559  0.00  0.00    +0.215 A 
ATOM     29  C   UNL     1     -16.769   3.912  28.972  0.00  0.00    +0.115 A 
BRANCH  28   5
ATOM      5  O   UNL     1     -16.064   0.442  29.045  0.00  0.00    -0.474 OA
BRANCH   5  30
ATOM     30  C   UNL     1     -14.805   0.206  29.661  0.00  0.00    +0.258 C 
BRANCH  30  31
ATOM     31  C   UNL     1     -15.029  -0.266  31.084  0.00  0.00    +0.200 C 
BRANCH  31   6
ATOM      6  O   UNL     1     -14.905   0.845  31.966  0.00  0.00    -0.380 OA
ATOM     32  C   UNL     1     -13.829   1.691  31.588  0.00  0.00    +0.194 C 
ENDBRANCH  31   6
ENDBRANCH  30  31
ENDBRANCH   5  30
ENDBRANCH  28   5
ENDBRANCH  20  24
ENDBRANCH  11  16
BRANCH   7  15
ATOM     15  C   UNL     1     -14.656   6.734  22.170  0.00  0.00    +0.120 C 
BRANCH  15  17
ATOM     17  C   UNL     1     -13.695   7.284  21.150  0.00  0.00    -0.033 A 
ATOM     18  C   UNL     1     -14.034   8.420  20.413  0.00  0.00    +0.007 A 
ATOM     19  C   UNL     1     -12.467   6.658  20.939  0.00  0.00    +0.007 A 
ATOM     21  C   UNL     1     -13.145   8.929  19.468  0.00  0.00    +0.027 A 
ATOM     22  C   UNL     1     -11.577   7.168  19.994  0.00  0.00    +0.027 A 
ATOM     23  C   UNL     1     -11.915   8.303  19.259  0.00  0.00    +0.088 A 
BRANCH  23   1
ATOM      1  S   UNL     1     -10.800   8.943  18.078  0.00  0.00    -0.006 S 
ATOM      3  O   UNL     1      -9.777   9.718  18.765  0.00  0.00    -0.170 OA
ATOM      4  O   UNL     1     -10.409   7.853  17.195  0.00  0.00    -0.170 OA
ATOM     26  C   UNL     1     -11.772  10.093  17.130  0.00  0.00    +0.200 C 
ENDBRANCH  23   1
ENDBRANCH  15  17
ENDBRANCH   7  15
TORSDOF 9
ENDMDL
MODEL 3
REMARK VINA RESULT:      -6.1     26.979     29.995
REMARK  Name = 45783369
REMARK  11 active torsions:
REMARK  status: ('A' for Active; 'I' for Inactive)
REMARK    1  A    between atoms: S_1  and  C_23
REMARK    2  A    between atoms: S_1  and  C_26
REMARK    3  A    between atoms: O_5  and  C_28
REMARK    4  A    between atoms: O_5  and  C_30
REMARK    5  A    between atoms: O_6  and  C_31
REMARK    6  A    between atoms: O_6  and  C_32
REMARK    7  A    between atoms: N_7  and  C_15
REMARK    8  A    between atoms: C_11  and  C_16
REMARK    9  A    between atoms: C_15  and  C_17
REMARK   10  A    between atoms: C_20  and  C_24
REMARK   11  A    between atoms: C_30  and  C_31
REMARK                            x       y       z     vdW  Elec       q    Type
REMARK                         _______ _______ _______ _____ _____    ______ ____
ROOT
ATOM      7  N   UNL     1      -3.145 -10.770  14.444  0.00  0.00    -0.287 NA
ATOM     11  C   UNL     1      -2.929 -11.298  15.806  0.00  0.00    +0.146 C 
ATOM     12  C   UNL     1      -1.646 -10.603  16.297  0.00  0.00    +0.030 C 
ATOM     13  C   UNL     1      -1.182  -9.751  15.125  0.00  0.00    +0.017 C 
ATOM     14  C   UNL     1      -1.824 -10.415  13.924  0.00  0.00    +0.085 C 
ENDROOT
BRANCH  11  16
ATOM      2  O   UNL     1      -3.912 -11.294  18.043  0.00  0.00    -0.336 OA
ATOM      8  N   UNL     1      -5.319 -10.649  16.425  0.00  0.00    -0.190 NA
ATOM      9  N   UNL     1      -5.127 -11.007  18.676  0.00  0.00    -0.056 NA
ATOM     16  C   UNL     1      -4.112 -11.057  16.720  0.00  0.00    +0.245 A 
ATOM     20  C   UNL     1      -5.907 -10.634  17.657  0.00  0.00    +0.202 A 
BRANCH  20  24
ATOM     10  N   UNL     1      -9.937  -9.465  18.183  0.00  0.00    -0.221 NA
ATOM     24  C   UNL     1      -7.274 -10.238  17.835  0.00  0.00    +0.029 A 
ATOM     25  C   UNL     1      -7.781  -9.146  17.137  0.00  0.00    +0.079 A 
ATOM     27  C   UNL     1      -8.097 -10.942  18.706  0.00  0.00    +0.031 A 
ATOM     28  C   UNL     1      -9.108  -8.805  17.345  0.00  0.00    +0.215 A 
ATOM     29  C   UNL     1      -9.409 -10.520  18.843  0.00  0.00    +0.115 A 
BRANCH  28   5
ATOM      5  O   UNL     1      -9.632  -7.733  16.670  0.00  0.00    -0.474 OA
BRANCH   5  30
ATOM     30  C   UNL     1     -11.049  -7.627  16.639  0.00  0.00    +0.258 C 
BRANCH  30  31
ATOM     31  C   UNL     1     -11.432  -6.188  16.349  0.00  0.00    +0.200 C 
BRANCH  31   6
ATOM      6  O   UNL     1     -11.025  -5.858  15.026  0.00  0.00    -0.380 OA
ATOM     32  C   UNL     1     -12.129  -5.462  14.226  0.00  0.00    +0.194 C 
ENDBRANCH  31   6
ENDBRANCH  30  31
ENDBRANCH   5  30
ENDBRANCH  28   5
ENDBRANCH  20  24
ENDBRANCH  11  16
BRANCH   7  15
ATOM     15  C   UNL     1      -3.848 -11.700  13.571  0.00  0.00    +0.120 C 
BRANCH  15  17
ATOM     17  C   UNL     1      -4.682 -10.983  12.542  0.00  0.00    -0.033 A 
ATOM     18  C   UNL     1      -5.500  -9.919  12.926  0.00  0.00    +0.007 A 
ATOM     19  C   UNL     1      -4.637 -11.381  11.207  0.00  0.00    +0.007 A 
ATOM     21  C   UNL     1      -6.272  -9.255  11.975  0.00  0.00    +0.027 A 
ATOM     22  C   UNL     1      -5.410 -10.716  10.255  0.00  0.00    +0.027 A 
ATOM     23  C   UNL     1      -6.227  -9.653  10.638  0.00  0.00    +0.088 A 
BRANCH  23   1
ATOM      1  S   UNL     1      -7.191  -8.819   9.446  0.00  0.00    -0.006 S 
ATOM      3  O   UNL     1      -8.569  -8.759   9.912  0.00  0.00    -0.170 OA
ATOM      4  O   UNL     1      -6.496  -7.591   9.086  0.00  0.00    -0.170 OA
ATOM     26  C   UNL     1      -7.170  -9.895   8.030  0.00  0.00    +0.200 C 
ENDBRANCH  23   1
ENDBRANCH  15  17
ENDBRANCH   7  15
TORSDOF 9
ENDMDL
MODEL 4
REMARK VINA RESULT:      -6.1     28.221     30.339
REMARK  Name = 45783369
REMARK  11 active torsions:
REMARK  status: ('A' for Active; 'I' for Inactive)
REMARK    1  A    between atoms: S_1  and  C_23
REMARK    2  A    between atoms: S_1  and  C_26
REMARK    3  A    between atoms: O_5  and  C_28
REMARK    4  A    between atoms: O_5  and  C_30
REMARK    5  A    between atoms: O_6  and  C_31
REMARK    6  A    between atoms: O_6  and  C_32
REMARK    7  A    between atoms: N_7  and  C_15
REMARK    8  A    between atoms: C_11  and  C_16
REMARK    9  A    between atoms: C_15  and  C_17
REMARK   10  A    between atoms: C_20  and  C_24
REMARK   11  A    between atoms: C_30  and  C_31
REMARK                            x       y       z     vdW  Elec       q    Type
REMARK                         _______ _______ _______ _____ _____    ______ ____
ROOT
ATOM      7  N   UNL     1      -5.496  -9.792   9.122  0.00  0.00    -0.287 NA
ATOM     11  C   UNL     1      -6.301  -8.896   9.976  0.00  0.00    +0.146 C 
ATOM     12  C   UNL     1      -7.629  -8.720   9.217  0.00  0.00    +0.030 C 
ATOM     13  C   UNL     1      -7.455  -9.503   7.924  0.00  0.00    +0.017 C 
ATOM     14  C   UNL     1      -5.952  -9.573   7.749  0.00  0.00    +0.085 C 
ENDROOT
BRANCH  11  16
ATOM      2  O   UNL     1      -7.583 -10.230  11.572  0.00  0.00    -0.336 OA
ATOM      8  N   UNL     1      -5.758  -9.268  12.443  0.00  0.00    -0.190 NA
ATOM      9  N   UNL     1      -7.550 -10.609  12.920  0.00  0.00    -0.056 NA
ATOM     16  C   UNL     1      -6.494  -9.442  11.375  0.00  0.00    +0.245 A 
ATOM     20  C   UNL     1      -6.446 -10.002  13.366  0.00  0.00    +0.202 A 
BRANCH  20  24
ATOM     10  N   UNL     1      -5.135 -10.321  17.374  0.00  0.00    -0.221 NA
ATOM     24  C   UNL     1      -6.001 -10.110  14.725  0.00  0.00    +0.029 A 
ATOM     25  C   UNL     1      -6.895  -9.903  15.771  0.00  0.00    +0.079 A 
ATOM     27  C   UNL     1      -4.675 -10.422  15.003  0.00  0.00    +0.031 A 
ATOM     28  C   UNL     1      -6.416 -10.020  17.066  0.00  0.00    +0.215 A 
ATOM     29  C   UNL     1      -4.295 -10.516  16.332  0.00  0.00    +0.115 A 
BRANCH  28   5
ATOM      5  O   UNL     1      -7.276  -9.820  18.114  0.00  0.00    -0.474 OA
BRANCH   5  30
ATOM     30  C   UNL     1      -7.163 -10.714  19.214  0.00  0.00    +0.258 C 
BRANCH  30  31
ATOM     31  C   UNL     1      -8.448 -11.510  19.339  0.00  0.00    +0.200 C 
BRANCH  31   6
ATOM      6  O   UNL     1      -9.305 -10.864  20.274  0.00  0.00    -0.380 OA
ATOM     32  C   UNL     1     -10.492 -10.394  19.653  0.00  0.00    +0.194 C 
ENDBRANCH  31   6
ENDBRANCH  30  31
ENDBRANCH   5  30
ENDBRANCH  28   5
ENDBRANCH  20  24
ENDBRANCH  11  16
BRANCH   7  15
ATOM     15  C   UNL     1      -4.061  -9.586   9.263  0.00  0.00    +0.120 C 
BRANCH  15  17
ATOM     17  C   UNL     1      -3.487 -10.400  10.392  0.00  0.00    -0.033 A 
ATOM     18  C   UNL     1      -2.548  -9.832  11.255  0.00  0.00    +0.007 A 
ATOM     19  C   UNL     1      -3.891 -11.722  10.576  0.00  0.00    +0.007 A 
ATOM     21  C   UNL     1      -2.016 -10.585  12.300  0.00  0.00    +0.027 A 
ATOM     22  C   UNL     1      -3.358 -12.476  11.622  0.00  0.00    +0.027 A 
ATOM     23  C   UNL     1      -2.421 -11.907  12.485  0.00  0.00    +0.088 A 
BRANCH  23   1
ATOM      1  S   UNL     1      -1.757 -12.849  13.796  0.00  0.00    -0.006 S 
ATOM      3  O   UNL     1      -0.779 -13.784  13.257  0.00  0.00    -0.170 OA
ATOM      4  O   UNL     1      -1.370 -11.930  14.856  0.00  0.00    -0.170 OA
ATOM     26  C   UNL     1      -3.129 -13.817  14.383  0.00  0.00    +0.200 C 
ENDBRANCH  23   1
ENDBRANCH  15  17
ENDBRANCH   7  15
TORSDOF 9
ENDMDL
MODEL 5
REMARK VINA RESULT:      -5.9     26.808     28.758
REMARK  Name = 45783369
REMARK  11 active torsions:
REMARK  status: ('A' for Active; 'I' for Inactive)
REMARK    1  A    between atoms: S_1  and  C_23
REMARK    2  A    between atoms: S_1  and  C_26
REMARK    3  A    between atoms: O_5  and  C_28
REMARK    4  A    between atoms: O_5  and  C_30
REMARK    5  A    between atoms: O_6  and  C_31
REMARK    6  A    between atoms: O_6  and  C_32
REMARK    7  A    between atoms: N_7  and  C_15
REMARK    8  A    between atoms: C_11  and  C_16
REMARK    9  A    between atoms: C_15  and  C_17
REMARK   10  A    between atoms: C_20  and  C_24
REMARK   11  A    between atoms: C_30  and  C_31
REMARK                            x       y       z     vdW  Elec       q    Type
REMARK                         _______ _______ _______ _____ _____    ______ ____
ROOT
ATOM      7  N   UNL     1     -11.034   9.330  17.621  0.00  0.00    -0.287 NA
ATOM     11  C   UNL     1     -10.390  10.381  18.434  0.00  0.00    +0.146 C 
ATOM     12  C   UNL     1     -10.075  11.510  17.436  0.00  0.00    +0.030 C 
ATOM     13  C   UNL     1     -10.523  10.981  16.082  0.00  0.00    +0.017 C 
ATOM     14  C   UNL     1     -10.507   9.476  16.264  0.00  0.00    +0.085 C 
ENDROOT
BRANCH  11  16
ATOM      2  O   UNL     1     -12.014  11.950  19.367  0.00  0.00    -0.336 OA
ATOM      8  N   UNL     1     -11.395  10.329  20.781  0.00  0.00    -0.190 NA
ATOM      9  N   UNL     1     -12.719  12.180  20.555  0.00  0.00    -0.056 NA
ATOM     16  C   UNL     1     -11.258  10.842  19.586  0.00  0.00    +0.245 A 
ATOM     20  C   UNL     1     -12.300  11.183  21.340  0.00  0.00    +0.202 A 
BRANCH  20  24
ATOM     10  N   UNL     1     -13.678  10.675  25.306  0.00  0.00    -0.221 NA
ATOM     24  C   UNL     1     -12.768  11.011  22.685  0.00  0.00    +0.029 A 
ATOM     25  C   UNL     1     -11.958  11.372  23.757  0.00  0.00    +0.079 A 
ATOM     27  C   UNL     1     -14.031  10.481  22.922  0.00  0.00    +0.031 A 
ATOM     28  C   UNL     1     -12.457  11.186  25.037  0.00  0.00    +0.215 A 
ATOM     29  C   UNL     1     -14.436  10.335  24.239  0.00  0.00    +0.115 A 
BRANCH  28   5
ATOM      5  O   UNL     1     -11.679  11.533  26.110  0.00  0.00    -0.474 OA
BRANCH   5  30
ATOM     30  C   UNL     1     -10.697  10.590  26.520  0.00  0.00    +0.258 C 
BRANCH  30  31
ATOM     31  C   UNL     1     -11.329   9.605  27.485  0.00  0.00    +0.200 C 
BRANCH  31   6
ATOM      6  O   UNL     1     -12.023  10.326  28.497  0.00  0.00    -0.380 OA
ATOM     32  C   UNL     1     -11.583   9.953  29.795  0.00  0.00    +0.194 C 
ENDBRANCH  31   6
ENDBRANCH  30  31
ENDBRANCH   5  30
ENDBRANCH  28   5
ENDBRANCH  20  24
ENDBRANCH  11  16
BRANCH   7  15
ATOM     15  C   UNL     1     -10.828   7.988  18.149  0.00  0.00    +0.120 C 
BRANCH  15  17
ATOM     17  C   UNL     1     -11.913   7.593  19.115  0.00  0.00    -0.033 A 
ATOM     18  C   UNL     1     -11.582   6.959  20.314  0.00  0.00    +0.007 A 
ATOM     19  C   UNL     1     -13.248   7.859  18.813  0.00  0.00    +0.007 A 
ATOM     21  C   UNL     1     -12.587   6.592  21.208  0.00  0.00    +0.027 A 
ATOM     22  C   UNL     1     -14.253   7.492  19.708  0.00  0.00    +0.027 A 
ATOM     23  C   UNL     1     -13.922   6.859  20.906  0.00  0.00    +0.088 A 
BRANCH  23   1
ATOM      1  S   UNL     1     -15.180   6.403  22.028  0.00  0.00    -0.006 S 
ATOM      3  O   UNL     1     -15.013   7.164  23.258  0.00  0.00    -0.170 OA
ATOM      4  O   UNL     1     -16.450   6.445  21.318  0.00  0.00    -0.170 OA
ATOM     26  C   UNL     1     -14.827   4.704  22.419  0.00  0.00    +0.200 C 
ENDBRANCH  23   1
ENDBRANCH  15  17
ENDBRANCH   7  15
TORSDOF 9
ENDMDL
MODEL 6
REMARK VINA RESULT:      -5.9     14.427     18.005
REMARK  Name = 45783369
REMARK  11 active torsions:
REMARK  status: ('A' for Active; 'I' for Inactive)
REMARK    1  A    between atoms: S_1  and  C_23
REMARK    2  A    between atoms: S_1  and  C_26
REMARK    3  A    between atoms: O_5  and  C_28
REMARK    4  A    between atoms: O_5  and  C_30
REMARK    5  A    between atoms: O_6  and  C_31
REMARK    6  A    between atoms: O_6  and  C_32
REMARK    7  A    between atoms: N_7  and  C_15
REMARK    8  A    between atoms: C_11  and  C_16
REMARK    9  A    between atoms: C_15  and  C_17
REMARK   10  A    between atoms: C_20  and  C_24
REMARK   11  A    between atoms: C_30  and  C_31
REMARK                            x       y       z     vdW  Elec       q    Type
REMARK                         _______ _______ _______ _____ _____    ______ ____
ROOT
ATOM      7  N   UNL     1      10.034   5.372   6.323  0.00  0.00    -0.287 NA
ATOM     11  C   UNL     1       9.617   6.492   7.191  0.00  0.00    +0.146 C 
ATOM     12  C   UNL     1       9.530   5.882   8.602  0.00  0.00    +0.030 C 
ATOM     13  C   UNL     1       9.856   4.407   8.419  0.00  0.00    +0.017 C 
ATOM     14  C   UNL     1       9.540   4.151   6.959  0.00  0.00    +0.085 C 
ENDROOT
BRANCH  11  16
ATOM      2  O   UNL     1      10.017   8.901   7.292  0.00  0.00    -0.336 OA
ATOM      8  N   UNL     1      11.859   7.684   6.913  0.00  0.00    -0.190 NA
ATOM      9  N   UNL     1      11.072   9.815   7.185  0.00  0.00    -0.056 NA
ATOM     16  C   UNL     1      10.567   7.670   7.120  0.00  0.00    +0.245 A 
ATOM     20  C   UNL     1      12.125   9.022   6.961  0.00  0.00    +0.202 A 
BRANCH  20  24
ATOM     10  N   UNL     1      16.042  10.528   6.440  0.00  0.00    -0.221 NA
ATOM     24  C   UNL     1      13.453   9.532   6.784  0.00  0.00    +0.029 A 
ATOM     25  C   UNL     1      14.476   8.688   6.366  0.00  0.00    +0.079 A 
ATOM     27  C   UNL     1      13.724  10.874   7.031  0.00  0.00    +0.031 A 
ATOM     28  C   UNL     1      15.742   9.230   6.210  0.00  0.00    +0.215 A 
ATOM     29  C   UNL     1      15.023  11.318   6.845  0.00  0.00    +0.115 A 
BRANCH  28   5
ATOM      5  O   UNL     1      16.767   8.419   5.800  0.00  0.00    -0.474 OA
BRANCH   5  30
ATOM     30  C   UNL     1      17.759   9.011   4.972  0.00  0.00    +0.258 C 
BRANCH  30  31
ATOM     31  C   UNL     1      19.125   8.509   5.400  0.00  0.00    +0.200 C 
BRANCH  31   6
ATOM      6  O   UNL     1      19.128   8.316   6.810  0.00  0.00    -0.380 OA
ATOM     32  C   UNL     1      20.379   8.672   7.380  0.00  0.00    +0.194 C 
ENDBRANCH  31   6
ENDBRANCH  30  31
ENDBRANCH   5  30
ENDBRANCH  28   5
ENDBRANCH  20  24
ENDBRANCH  11  16
BRANCH   7  15
ATOM     15  C   UNL     1       9.567   5.504   4.950  0.00  0.00    +0.120 C 
BRANCH  15  17
ATOM     17  C   UNL     1      10.650   5.180   3.955  0.00  0.00    -0.033 A 
ATOM     18  C   UNL     1      10.682   3.926   3.344  0.00  0.00    +0.007 A 
ATOM     19  C   UNL     1      11.621   6.132   3.645  0.00  0.00    +0.007 A 
ATOM     21  C   UNL     1      11.685   3.624   2.424  0.00  0.00    +0.027 A 
ATOM     22  C   UNL     1      12.624   5.830   2.724  0.00  0.00    +0.027 A 
ATOM     23  C   UNL     1      12.656   4.577   2.113  0.00  0.00    +0.088 A 
BRANCH  23   1
ATOM      1  S   UNL     1      13.910   4.201   0.958  0.00  0.00    -0.006 S 
ATOM      3  O   UNL     1      14.428   5.443   0.402  0.00  0.00    -0.170 OA
ATOM      4  O   UNL     1      14.822   3.252   1.580  0.00  0.00    -0.170 OA
ATOM     26  C   UNL     1      13.059   3.360  -0.359  0.00  0.00    +0.200 C 
ENDBRANCH  23   1
ENDBRANCH  15  17
ENDBRANCH   7  15
TORSDOF 9
ENDMDL
MODEL 7
REMARK VINA RESULT:      -5.8     27.603     30.131
REMARK  Name = 45783369
REMARK  11 active torsions:
REMARK  status: ('A' for Active; 'I' for Inactive)
REMARK    1  A    between atoms: S_1  and  C_23
REMARK    2  A    between atoms: S_1  and  C_26
REMARK    3  A    between atoms: O_5  and  C_28
REMARK    4  A    between atoms: O_5  and  C_30
REMARK    5  A    between atoms: O_6  and  C_31
REMARK    6  A    between atoms: O_6  and  C_32
REMARK    7  A    between atoms: N_7  and  C_15
REMARK    8  A    between atoms: C_11  and  C_16
REMARK    9  A    between atoms: C_15  and  C_17
REMARK   10  A    between atoms: C_20  and  C_24
REMARK   11  A    between atoms: C_30  and  C_31
REMARK                            x       y       z     vdW  Elec       q    Type
REMARK                         _______ _______ _______ _____ _____    ______ ____
ROOT
ATOM      7  N   UNL     1      -3.747 -10.084  11.515  0.00  0.00    -0.287 NA
ATOM     11  C   UNL     1      -2.833 -10.810  12.419  0.00  0.00    +0.146 C 
ATOM     12  C   UNL     1      -1.449 -10.189  12.157  0.00  0.00    +0.030 C 
ATOM     13  C   UNL     1      -1.673  -9.169  11.051  0.00  0.00    +0.017 C 
ATOM     14  C   UNL     1      -2.941  -9.650  10.374  0.00  0.00    +0.085 C 
ENDROOT
BRANCH  11  16
ATOM      2  O   UNL     1      -2.261 -10.821  14.795  0.00  0.00    -0.336 OA
ATOM      8  N   UNL     1      -4.444 -10.541  14.382  0.00  0.00    -0.190 NA
ATOM      9  N   UNL     1      -2.881 -10.705  16.045  0.00  0.00    -0.056 NA
ATOM     16  C   UNL     1      -3.252 -10.714  13.871  0.00  0.00    +0.245 A 
ATOM     20  C   UNL     1      -4.167 -10.543  15.719  0.00  0.00    +0.202 A 
BRANCH  20  24
ATOM     10  N   UNL     1      -7.207 -10.053  18.618  0.00  0.00    -0.221 NA
ATOM     24  C   UNL     1      -5.198 -10.377  16.702  0.00  0.00    +0.029 A 
ATOM     25  C   UNL     1      -6.344  -9.649  16.396  0.00  0.00    +0.079 A 
ATOM     27  C   UNL     1      -5.057 -10.942  17.964  0.00  0.00    +0.031 A 
ATOM     28  C   UNL     1      -7.310  -9.518  17.381  0.00  0.00    +0.215 A 
ATOM     29  C   UNL     1      -6.080 -10.753  18.878  0.00  0.00    +0.115 A 
BRANCH  28   5
ATOM      5  O   UNL     1      -8.448  -8.806  17.105  0.00  0.00    -0.474 OA
BRANCH   5  30
ATOM     30  C   UNL     1      -9.669  -9.329  17.612  0.00  0.00    +0.258 C 
BRANCH  30  31
ATOM     31  C   UNL     1     -10.826  -8.706  16.855  0.00  0.00    +0.200 C 
BRANCH  31   6
ATOM      6  O   UNL     1     -10.835  -7.303  17.093  0.00  0.00    -0.380 OA
ATOM     32  C   UNL     1     -10.822  -6.569  15.877  0.00  0.00    +0.194 C 
ENDBRANCH  31   6
ENDBRANCH  30  31
ENDBRANCH   5  30
ENDBRANCH  28   5
ENDBRANCH  20  24
ENDBRANCH  11  16
BRANCH   7  15
ATOM     15  C   UNL     1      -4.898 -10.877  11.103  0.00  0.00    +0.120 C 
BRANCH  15  17
ATOM     17  C   UNL     1      -5.743 -10.154  10.088  0.00  0.00    -0.033 A 
ATOM     18  C   UNL     1      -6.543  -9.081  10.484  0.00  0.00    +0.007 A 
ATOM     19  C   UNL     1      -5.728 -10.557   8.753  0.00  0.00    +0.007 A 
ATOM     21  C   UNL     1      -7.326  -8.412   9.545  0.00  0.00    +0.027 A 
ATOM     22  C   UNL     1      -6.511  -9.886   7.814  0.00  0.00    +0.027 A 
ATOM     23  C   UNL     1      -7.309  -8.814   8.209  0.00  0.00    +0.088 A 
BRANCH  23   1
ATOM      1  S   UNL     1      -8.287  -7.973   7.032  0.00  0.00    -0.006 S 
ATOM      3  O   UNL     1      -9.589  -8.620   6.952  0.00  0.00    -0.170 OA
ATOM      4  O   UNL     1      -8.205  -6.548   7.318  0.00  0.00    -0.170 OA
ATOM     26  C   UNL     1      -7.466  -8.269   5.483  0.00  0.00    +0.200 C 
ENDBRANCH  23   1
ENDBRANCH  15  17
ENDBRANCH   7  15
TORSDOF 9
ENDMDL
MODEL 8
REMARK VINA RESULT:      -5.8     17.256     20.356
REMARK  Name = 45783369
REMARK  11 active torsions:
REMARK  status: ('A' for Active; 'I' for Inactive)
REMARK    1  A    between atoms: S_1  and  C_23
REMARK    2  A    between atoms: S_1  and  C_26
REMARK    3  A    between atoms: O_5  and  C_28
REMARK    4  A    between atoms: O_5  and  C_30
REMARK    5  A    between atoms: O_6  and  C_31
REMARK    6  A    between atoms: O_6  and  C_32
REMARK    7  A    between atoms: N_7  and  C_15
REMARK    8  A    between atoms: C_11  and  C_16
REMARK    9  A    between atoms: C_15  and  C_17
REMARK   10  A    between atoms: C_20  and  C_24
REMARK   11  A    between atoms: C_30  and  C_31
REMARK                            x       y       z     vdW  Elec       q    Type
REMARK                         _______ _______ _______ _____ _____    ______ ____
ROOT
ATOM      7  N   UNL     1       9.564   7.560   6.297  0.00  0.00    -0.287 NA
ATOM     11  C   UNL     1      10.739   6.667   6.344  0.00  0.00    +0.146 C 
ATOM     12  C   UNL     1      10.573   5.871   7.652  0.00  0.00    +0.030 C 
ATOM     13  C   UNL     1       9.312   6.426   8.298  0.00  0.00    +0.017 C 
ATOM     14  C   UNL     1       9.175   7.805   7.686  0.00  0.00    +0.085 C 
ENDROOT
BRANCH  11  16
ATOM      2  O   UNL     1      10.169   4.597   5.178  0.00  0.00    -0.336 OA
ATOM      8  N   UNL     1      11.496   5.969   4.008  0.00  0.00    -0.190 NA
ATOM      9  N   UNL     1      10.413   3.956   3.957  0.00  0.00    -0.056 NA
ATOM     16  C   UNL     1      10.844   5.776   5.125  0.00  0.00    +0.245 A 
ATOM     20  C   UNL     1      11.204   4.827   3.322  0.00  0.00    +0.202 A 
BRANCH  20  24
ATOM     10  N   UNL     1      12.708   4.118  -0.566  0.00  0.00    -0.221 NA
ATOM     24  C   UNL     1      11.714   4.587   2.004  0.00  0.00    +0.029 A 
ATOM     25  C   UNL     1      11.149   5.231   0.908  0.00  0.00    +0.079 A 
ATOM     27  C   UNL     1      12.776   3.709   1.815  0.00  0.00    +0.031 A 
ATOM     28  C   UNL     1      11.678   4.964  -0.344  0.00  0.00    +0.215 A 
ATOM     29  C   UNL     1      13.232   3.511   0.522  0.00  0.00    +0.115 A 
BRANCH  28   5
ATOM      5  O   UNL     1      11.138   5.586  -1.440  0.00  0.00    -0.474 OA
BRANCH   5  30
ATOM     30  C   UNL     1      11.110   4.839  -2.650  0.00  0.00    +0.258 C 
BRANCH  30  31
ATOM     31  C   UNL     1       9.668   4.563  -3.028  0.00  0.00    +0.200 C 
BRANCH  31   6
ATOM      6  O   UNL     1       9.463   3.155  -3.079  0.00  0.00    -0.380 OA
ATOM     32  C   UNL     1      10.696   2.450  -3.066  0.00  0.00    +0.194 C 
ENDBRANCH  31   6
ENDBRANCH  30  31
ENDBRANCH   5  30
ENDBRANCH  28   5
ENDBRANCH  20  24
ENDBRANCH  11  16
BRANCH   7  15
ATOM     15  C   UNL     1       9.812   8.798   5.569  0.00  0.00    +0.120 C 
BRANCH  15  17
ATOM     17  C   UNL     1       8.707   9.107   4.595  0.00  0.00    -0.033 A 
ATOM     18  C   UNL     1       7.611   9.869   5.002  0.00  0.00    +0.007 A 
ATOM     19  C   UNL     1       8.777   8.630   3.286  0.00  0.00    +0.007 A 
ATOM     21  C   UNL     1       6.586  10.154   4.100  0.00  0.00    +0.027 A 
ATOM     22  C   UNL     1       7.752   8.916   2.384  0.00  0.00    +0.027 A 
ATOM     23  C   UNL     1       6.657   9.679   2.790  0.00  0.00    +0.088 A 
BRANCH  23   1
ATOM      1  S   UNL     1       5.376  10.039   1.660  0.00  0.00    -0.006 S 
ATOM      3  O   UNL     1       5.695   9.432   0.376  0.00  0.00    -0.170 OA
ATOM      4  O   UNL     1       4.109   9.734   2.308  0.00  0.00    -0.170 OA
ATOM     26  C   UNL     1       5.467  11.801   1.437  0.00  0.00    +0.200 C 
ENDBRANCH  23   1
ENDBRANCH  15  17
ENDBRANCH   7  15
TORSDOF 9
ENDMDL
MODEL 9
REMARK VINA RESULT:      -5.8     26.768     29.243
REMARK  Name = 45783369
REMARK  11 active torsions:
REMARK  status: ('A' for Active; 'I' for Inactive)
REMARK    1  A    between atoms: S_1  and  C_23
REMARK    2  A    between atoms: S_1  and  C_26
REMARK    3  A    between atoms: O_5  and  C_28
REMARK    4  A    between atoms: O_5  and  C_30
REMARK    5  A    between atoms: O_6  and  C_31
REMARK    6  A    between atoms: O_6  and  C_32
REMARK    7  A    between atoms: N_7  and  C_15
REMARK    8  A    between atoms: C_11  and  C_16
REMARK    9  A    between atoms: C_15  and  C_17
REMARK   10  A    between atoms: C_20  and  C_24
REMARK   11  A    between atoms: C_30  and  C_31
REMARK                            x       y       z     vdW  Elec       q    Type
REMARK                         _______ _______ _______ _____ _____    ______ ____
ROOT
ATOM      7  N   UNL     1     -11.782  11.011  19.370  0.00  0.00    -0.287 NA
ATOM     11  C   UNL     1     -11.866  10.558  20.773  0.00  0.00    +0.146 C 
ATOM     12  C   UNL     1     -12.845  11.540  21.443  0.00  0.00    +0.030 C 
ATOM     13  C   UNL     1     -13.209  12.541  20.357  0.00  0.00    +0.017 C 
ATOM     14  C   UNL     1     -12.052  12.449  19.383  0.00  0.00    +0.085 C 
ENDROOT
BRANCH  11  16
ATOM      2  O   UNL     1     -11.429   8.173  20.465  0.00  0.00    -0.336 OA
ATOM      8  N   UNL     1     -13.432   8.627  21.357  0.00  0.00    -0.190 NA
ATOM      9  N   UNL     1     -12.052   6.937  20.673  0.00  0.00    -0.056 NA
ATOM     16  C   UNL     1     -12.310   9.115  20.894  0.00  0.00    +0.245 A 
ATOM     20  C   UNL     1     -13.229   7.287  21.201  0.00  0.00    +0.202 A 
BRANCH  20  24
ATOM     10  N   UNL     1     -16.152   4.448  22.334  0.00  0.00    -0.221 NA
ATOM     24  C   UNL     1     -14.220   6.325  21.585  0.00  0.00    +0.029 A 
ATOM     25  C   UNL     1     -14.054   5.577  22.746  0.00  0.00    +0.079 A 
ATOM     27  C   UNL     1     -15.351   6.135  20.799  0.00  0.00    +0.031 A 
ATOM     28  C   UNL     1     -15.040   4.660  23.073  0.00  0.00    +0.215 A 
ATOM     29  C   UNL     1     -16.279   5.193  21.213  0.00  0.00    +0.115 A 
BRANCH  28   5
ATOM      5  O   UNL     1     -14.900   3.910  24.212  0.00  0.00    -0.474 OA
BRANCH   5  30
ATOM     30  C   UNL     1     -16.048   3.197  24.654  0.00  0.00    +0.258 C 
BRANCH  30  31
ATOM     31  C   UNL     1     -16.185   3.361  26.155  0.00  0.00    +0.200 C 
BRANCH  31   6
ATOM      6  O   UNL     1     -16.747   4.639  26.433  0.00  0.00    -0.380 OA
ATOM     32  C   UNL     1     -17.935   4.858  25.686  0.00  0.00    +0.194 C 
ENDBRANCH  31   6
ENDBRANCH  30  31
ENDBRANCH   5  30
ENDBRANCH  28   5
ENDBRANCH  20  24
ENDBRANCH  11  16
BRANCH   7  15
ATOM     15  C   UNL     1     -10.506  10.697  18.740  0.00  0.00    +0.120 C 
BRANCH  15  17
ATOM     17  C   UNL     1     -10.689  10.049  17.394  0.00  0.00    -0.033 A 
ATOM     18  C   UNL     1     -11.238  10.777  16.338  0.00  0.00    +0.007 A 
ATOM     19  C   UNL     1     -10.311   8.720  17.202  0.00  0.00    +0.007 A 
ATOM     21  C   UNL     1     -11.409  10.177  15.092  0.00  0.00    +0.027 A 
ATOM     22  C   UNL     1     -10.481   8.120  15.954  0.00  0.00    +0.027 A 
ATOM     23  C   UNL     1     -11.030   8.848  14.899  0.00  0.00    +0.088 A 
BRANCH  23   1
ATOM      1  S   UNL     1     -11.240   8.098  13.337  0.00  0.00    -0.006 S 
ATOM      3  O   UNL     1      -9.948   7.622  12.864  0.00  0.00    -0.170 OA
ATOM      4  O   UNL     1     -12.361   7.173  13.432  0.00  0.00    -0.170 OA
ATOM     26  C   UNL     1     -11.723   9.434  12.267  0.00  0.00    +0.200 C 
ENDBRANCH  23   1
ENDBRANCH  15  17
ENDBRANCH   7  15
TORSDOF 9
ENDMDL
MODEL 10
REMARK VINA RESULT:      -5.8     19.360     22.437
REMARK  Name = 45783369
REMARK  11 active torsions:
REMARK  status: ('A' for Active; 'I' for Inactive)
REMARK    1  A    between atoms: S_1  and  C_23
REMARK    2  A    between atoms: S_1  and  C_26
REMARK    3  A    between atoms: O_5  and  C_28
REMARK    4  A    between atoms: O_5  and  C_30
REMARK    5  A    between atoms: O_6  and  C_31
REMARK    6  A    between atoms: O_6  and  C_32
REMARK    7  A    between atoms: N_7  and  C_15
REMARK    8  A    between atoms: C_11  and  C_16
REMARK    9  A    between atoms: C_15  and  C_17
REMARK   10  A    between atoms: C_20  and  C_24
REMARK   11  A    between atoms: C_30  and  C_31
REMARK                            x       y       z     vdW  Elec       q    Type
REMARK                         _______ _______ _______ _____ _____    ______ ____
ROOT
ATOM      7  N   UNL     1      12.044   4.291  -2.525  0.00  0.00    -0.287 NA
ATOM     11  C   UNL     1      12.901   3.580  -1.556  0.00  0.00    +0.146 C 
ATOM     12  C   UNL     1      14.320   4.117  -1.819  0.00  0.00    +0.030 C 
ATOM     13  C   UNL     1      14.170   5.078  -2.990  0.00  0.00    +0.017 C 
ATOM     14  C   UNL     1      12.897   4.617  -3.669  0.00  0.00    +0.085 C 
ENDROOT
BRANCH  11  16
ATOM      2  O   UNL     1      13.004   2.956   0.804  0.00  0.00    -0.336 OA
ATOM      8  N   UNL     1      11.605   4.649   0.367  0.00  0.00    -0.190 NA
ATOM      9  N   UNL     1      12.447   3.328   2.034  0.00  0.00    -0.056 NA
ATOM     16  C   UNL     1      12.455   3.783  -0.123  0.00  0.00    +0.245 A 
ATOM     20  C   UNL     1      11.632   4.332   1.694  0.00  0.00    +0.202 A 
BRANCH  20  24
ATOM     10  N   UNL     1       9.282   6.415   4.525  0.00  0.00    -0.221 NA
ATOM     24  C   UNL     1      10.835   5.039   2.654  0.00  0.00    +0.029 A 
ATOM     25  C   UNL     1      10.697   4.543   3.946  0.00  0.00    +0.079 A 
ATOM     27  C   UNL     1      10.198   6.221   2.297  0.00  0.00    +0.031 A 
ATOM     28  C   UNL     1       9.916   5.263   4.836  0.00  0.00    +0.215 A 
ATOM     29  C   UNL     1       9.440   6.866   3.261  0.00  0.00    +0.115 A 
BRANCH  28   5
ATOM      5  O   UNL     1       9.763   4.796   6.115  0.00  0.00    -0.474 OA
BRANCH   5  30
ATOM     30  C   UNL     1       9.451   5.758   7.115  0.00  0.00    +0.258 C 
BRANCH  30  31
ATOM     31  C   UNL     1      10.344   5.528   8.319  0.00  0.00    +0.200 C 
BRANCH  31   6
ATOM      6  O   UNL     1       9.960   4.314   8.956  0.00  0.00    -0.380 OA
ATOM     32  C   UNL     1       9.199   4.560  10.129  0.00  0.00    +0.194 C 
ENDBRANCH  31   6
ENDBRANCH  30  31
ENDBRANCH   5  30
ENDBRANCH  28   5
ENDBRANCH  20  24
ENDBRANCH  11  16
BRANCH   7  15
ATOM     15  C   UNL     1      10.865   3.530  -2.918  0.00  0.00    +0.120 C 
BRANCH  15  17
ATOM     17  C   UNL     1       9.676   4.422  -3.156  0.00  0.00    -0.033 A 
ATOM     18  C   UNL     1       9.314   5.372  -2.200  0.00  0.00    +0.007 A 
ATOM     19  C   UNL     1       8.935   4.298  -4.331  0.00  0.00    +0.007 A 
ATOM     21  C   UNL     1       8.213   6.198  -2.420  0.00  0.00    +0.027 A 
ATOM     22  C   UNL     1       7.834   5.125  -4.552  0.00  0.00    +0.027 A 
ATOM     23  C   UNL     1       7.473   6.075  -3.597  0.00  0.00    +0.088 A 
BRANCH  23   1
ATOM      1  S   UNL     1       6.096   7.112  -3.874  0.00  0.00    -0.006 S 
ATOM      3  O   UNL     1       5.588   6.873  -5.217  0.00  0.00    -0.170 OA
ATOM      4  O   UNL     1       5.203   6.985  -2.731  0.00  0.00    -0.170 OA
ATOM     26  C   UNL     1       6.771   8.757  -3.860  0.00  0.00    +0.200 C 
ENDBRANCH  23   1
ENDBRANCH  15  17
ENDBRANCH   7  15
TORSDOF 9
ENDMDL
