REMARK  Name = 45360850
REMARK  9 active torsions:
REMARK  status: ('A' for Active; 'I' for Inactive)
REMARK    1  A    between atoms: N_4  and  C_15
REMARK    2  A    between atoms: N_5  and  C_17
REMARK    3  A    between atoms: N_7  and  C_26
REMARK    4  A    between atoms: C_12  and  C_16
REMARK    5  A    between atoms: C_15  and  C_19
REMARK    6  A    between atoms: C_16  and  C_18
REMARK    7  A    between atoms: C_18  and  C_20
REMARK    8  A    between atoms: C_25  and  C_27
REMARK    9  A    between atoms: C_26  and  C_28
REMARK                            x       y       z     vdW  Elec       q    Type
REMARK                         _______ _______ _______ _____ _____    ______ ____
ROOT
ATOM      1  O   UNL     1       2.348  -1.696  -0.671  0.00  0.00    -0.274 OA
ATOM      4  N   UNL     1       3.539   0.496   0.363  0.00  0.00    -0.286 NA
ATOM      5  N   UNL     1       0.130   1.474  -0.535  0.00  0.00    -0.296 NA
ATOM      6  N   UNL     1       0.309  -1.286   0.284  0.00  0.00    -0.312 N 
ATOM      8  C   UNL     1       1.384   1.605   0.239  0.00  0.00    +0.084 C 
ATOM      9  C   UNL     1       2.114   0.307   0.692  0.00  0.00    +0.161 C 
ATOM     10  C   UNL     1       2.502   2.358  -0.506  0.00  0.00    +0.036 C 
ATOM     11  C   UNL     1       3.760   1.931   0.221  0.00  0.00    +0.087 C 
ATOM     12  C   UNL     1      -0.987   0.823   0.206  0.00  0.00    +0.074 C 
ATOM     13  C   UNL     1       1.629  -0.975   0.020  0.00  0.00    +0.232 C 
ATOM     14  C   UNL     1      -0.584  -0.419   1.025  0.00  0.00    +0.123 C 
ATOM     17  C   UNL     1      -0.300   2.781  -1.060  0.00  0.00    +0.105 C 
ATOM     32  H   UNL     1      -0.070  -2.140  -0.115  0.00  0.00    +0.149 HD
ENDROOT
BRANCH   4  15
ATOM     15  C   UNL     1       4.442  -0.104   1.338  0.00  0.00    +0.120 C 
BRANCH  15  19
ATOM     19  C   UNL     1       5.807  -0.357   0.757  0.00  0.00    -0.033 A 
ATOM     21  C   UNL     1       6.010  -1.437  -0.102  0.00  0.00    +0.005 A 
ATOM     22  C   UNL     1       6.870   0.487   1.080  0.00  0.00    +0.005 A 
ATOM     23  C   UNL     1       7.276  -1.673  -0.638  0.00  0.00    +0.003 A 
ATOM     24  C   UNL     1       8.136   0.250   0.544  0.00  0.00    +0.003 A 
ATOM     25  C   UNL     1       8.339  -0.830  -0.315  0.00  0.00    -0.050 A 
ATOM     27  C   UNL     1       9.692  -1.083  -0.888  0.00  0.00    +0.044 C 
ENDBRANCH  15  19
ENDBRANCH   4  15
BRANCH  12  16
ATOM     16  C   UNL     1      -2.104   0.395  -0.768  0.00  0.00    +0.029 C 
BRANCH  16  18
ATOM     18  C   UNL     1      -3.436   0.297  -0.048  0.00  0.00    +0.097 C 
BRANCH  18  20
ATOM      2  O   UNL     1      -4.377  -0.354  -2.182  0.00  0.00    -0.276 OA
ATOM      7  N   UNL     1      -5.769  -0.214  -0.330  0.00  0.00    -0.308 N 
ATOM     20  C   UNL     1      -4.551  -0.125  -0.988  0.00  0.00    +0.213 C 
ATOM     33  H   UNL     1      -5.807  -0.007   0.665  0.00  0.00    +0.149 HD
BRANCH   7  26
ATOM     26  C   UNL     1      -6.985  -0.597  -1.007  0.00  0.00    +0.178 C 
BRANCH  26  28
ATOM      3  O   UNL     1      -8.448   0.601   0.527  0.00  0.00    -0.466 OA
ATOM     28  C   UNL     1      -8.171  -0.584  -0.079  0.00  0.00    +0.122 A 
ATOM     29  C   UNL     1      -9.074  -1.547   0.307  0.00  0.00    +0.046 A 
ATOM     30  C   UNL     1      -9.963  -0.914   1.207  0.00  0.00    +0.041 A 
ATOM     31  C   UNL     1      -9.540   0.391   1.308  0.00  0.00    +0.195 A 
ENDBRANCH  26  28
ENDBRANCH   7  26
ENDBRANCH  18  20
ENDBRANCH  16  18
ENDBRANCH  12  16
TORSDOF 7
