MODEL 1
REMARK VINA RESULT:      -8.0      0.000      0.000
REMARK  Name = 45360936
REMARK  11 active torsions:
REMARK  status: ('A' for Active; 'I' for Inactive)
REMARK    1  A    between atoms: O_3  and  C_26
REMARK    2  A    between atoms: O_4  and  C_33
REMARK    3  A    between atoms: O_4  and  C_34
REMARK    4  A    between atoms: N_5  and  C_16
REMARK    5  A    between atoms: N_6  and  C_18
REMARK    6  A    between atoms: N_8  and  C_27
REMARK    7  A    between atoms: C_13  and  C_17
REMARK    8  A    between atoms: C_16  and  C_20
REMARK    9  A    between atoms: C_17  and  C_19
REMARK   10  A    between atoms: C_19  and  C_21
REMARK   11  A    between atoms: C_27  and  C_28
REMARK                            x       y       z     vdW  Elec       q    Type
REMARK                         _______ _______ _______ _____ _____    ______ ____
ROOT
ATOM      1  O   UNL     1     -12.785   4.988  22.007  0.00  0.00    -0.274 OA
ATOM      5  N   UNL     1     -14.205   7.033  20.960  0.00  0.00    -0.286 NA
ATOM      6  N   UNL     1     -16.620   4.458  21.925  0.00  0.00    -0.296 NA
ATOM      7  N   UNL     1     -14.306   4.506  23.648  0.00  0.00    -0.312 N 
ATOM      9  C   UNL     1     -16.216   5.851  21.633  0.00  0.00    +0.084 C 
ATOM     10  C   UNL     1     -14.813   6.332  22.107  0.00  0.00    +0.161 C 
ATOM     11  C   UNL     1     -16.180   6.190  20.131  0.00  0.00    +0.036 C 
ATOM     12  C   UNL     1     -15.293   7.415  20.067  0.00  0.00    +0.087 C 
ATOM     13  C   UNL     1     -16.741   4.144  23.376  0.00  0.00    +0.074 C 
ATOM     14  C   UNL     1     -13.865   5.220  22.549  0.00  0.00    +0.232 C 
ATOM     15  C   UNL     1     -15.606   4.700  24.258  0.00  0.00    +0.123 C 
ATOM     18  C   UNL     1     -17.869   4.118  21.223  0.00  0.00    +0.105 C 
ATOM     35  H   UNL     1     -13.711   3.765  24.007  0.00  0.00    +0.149 HD
ENDROOT
BRANCH   5  16
ATOM     16  C   UNL     1     -13.387   8.175  21.350  0.00  0.00    +0.120 C 
BRANCH  16  20
ATOM     20  C   UNL     1     -12.328   8.482  20.324  0.00  0.00    -0.033 A 
ATOM     22  C   UNL     1     -11.707   9.731  20.314  0.00  0.00    +0.008 A 
ATOM     23  C   UNL     1     -11.970   7.517  19.384  0.00  0.00    +0.008 A 
ATOM     24  C   UNL     1     -10.727  10.014  19.364  0.00  0.00    +0.046 A 
ATOM     25  C   UNL     1     -10.989   7.800  18.433  0.00  0.00    +0.046 A 
ATOM     26  C   UNL     1     -10.368   9.049  18.423  0.00  0.00    +0.117 A 
BRANCH  26   3
ATOM      3  O   UNL     1      -9.410   9.326  17.496  0.00  0.00    -0.507 OA
ATOM     37  H   UNL     1      -9.607  10.186  17.087  0.00  0.00    +0.292 HD
ENDBRANCH  26   3
ENDBRANCH  16  20
ENDBRANCH   5  16
BRANCH  13  17
ATOM     17  C   UNL     1     -16.793   2.617  23.595  0.00  0.00    +0.029 C 
BRANCH  17  19
ATOM     19  C   UNL     1     -17.877   2.254  24.592  0.00  0.00    +0.097 C 
BRANCH  19  21
ATOM      2  O   UNL     1     -16.753   0.236  25.322  0.00  0.00    -0.276 OA
ATOM      8  N   UNL     1     -17.726   1.625  26.908  0.00  0.00    -0.311 N 
ATOM     21  C   UNL     1     -17.380   1.251  25.618  0.00  0.00    +0.213 C 
ATOM     36  H   UNL     1     -18.269   2.468  27.065  0.00  0.00    +0.149 HD
BRANCH   8  27
ATOM     27  C   UNL     1     -17.368   0.834  28.062  0.00  0.00    +0.139 C 
BRANCH  27  28
ATOM     28  C   UNL     1     -16.223   1.444  28.827  0.00  0.00    -0.030 A 
ATOM     29  C   UNL     1     -15.381   0.632  29.586  0.00  0.00    +0.009 A 
ATOM     30  C   UNL     1     -16.005   2.821  28.776  0.00  0.00    +0.009 A 
ATOM     31  C   UNL     1     -14.319   1.196  30.294  0.00  0.00    +0.046 A 
ATOM     32  C   UNL     1     -14.944   3.385  29.483  0.00  0.00    +0.046 A 
ATOM     33  C   UNL     1     -14.102   2.573  30.243  0.00  0.00    +0.120 A 
BRANCH  33   4
ATOM      4  O   UNL     1     -13.066   3.123  30.933  0.00  0.00    -0.495 OA
ATOM     34  C   UNL     1     -13.347   3.614  32.243  0.00  0.00    +0.277 C 
ENDBRANCH  33   4
ENDBRANCH  27  28
ENDBRANCH   8  27
ENDBRANCH  19  21
ENDBRANCH  17  19
ENDBRANCH  13  17
TORSDOF 9
ENDMDL
MODEL 2
REMARK VINA RESULT:      -7.2      1.757      2.252
REMARK  Name = 45360936
REMARK  11 active torsions:
REMARK  status: ('A' for Active; 'I' for Inactive)
REMARK    1  A    between atoms: O_3  and  C_26
REMARK    2  A    between atoms: O_4  and  C_33
REMARK    3  A    between atoms: O_4  and  C_34
REMARK    4  A    between atoms: N_5  and  C_16
REMARK    5  A    between atoms: N_6  and  C_18
REMARK    6  A    between atoms: N_8  and  C_27
REMARK    7  A    between atoms: C_13  and  C_17
REMARK    8  A    between atoms: C_16  and  C_20
REMARK    9  A    between atoms: C_17  and  C_19
REMARK   10  A    between atoms: C_19  and  C_21
REMARK   11  A    between atoms: C_27  and  C_28
REMARK                            x       y       z     vdW  Elec       q    Type
REMARK                         _______ _______ _______ _____ _____    ______ ____
ROOT
ATOM      1  O   UNL     1     -14.533   4.437  21.762  0.00  0.00    -0.274 OA
ATOM      5  N   UNL     1     -15.660   6.837  22.280  0.00  0.00    -0.286 NA
ATOM      6  N   UNL     1     -17.793   4.310  23.848  0.00  0.00    -0.296 NA
ATOM      7  N   UNL     1     -15.011   3.544  23.814  0.00  0.00    -0.312 N 
ATOM      9  C   UNL     1     -17.239   5.676  23.711  0.00  0.00    +0.084 C 
ATOM     10  C   UNL     1     -15.731   5.833  23.358  0.00  0.00    +0.161 C 
ATOM     11  C   UNL     1     -17.915   6.518  22.613  0.00  0.00    +0.036 C 
ATOM     12  C   UNL     1     -16.899   7.603  22.326  0.00  0.00    +0.087 C 
ATOM     13  C   UNL     1     -17.206   3.516  24.963  0.00  0.00    +0.074 C 
ATOM     14  C   UNL     1     -15.045   4.557  22.875  0.00  0.00    +0.232 C 
ATOM     15  C   UNL     1     -15.675   3.623  25.101  0.00  0.00    +0.123 C 
ATOM     18  C   UNL     1     -19.260   4.350  23.968  0.00  0.00    +0.105 C 
ATOM     35  H   UNL     1     -14.549   2.674  23.564  0.00  0.00    +0.149 HD
ENDROOT
BRANCH   5  16
ATOM     16  C   UNL     1     -14.482   7.692  22.364  0.00  0.00    +0.120 C 
BRANCH  16  20
ATOM     20  C   UNL     1     -13.656   7.633  21.106  0.00  0.00    -0.033 A 
ATOM     22  C   UNL     1     -14.215   8.015  19.886  0.00  0.00    +0.008 A 
ATOM     23  C   UNL     1     -12.333   7.196  21.161  0.00  0.00    +0.008 A 
ATOM     24  C   UNL     1     -13.450   7.960  18.721  0.00  0.00    +0.046 A 
ATOM     25  C   UNL     1     -11.568   7.141  19.996  0.00  0.00    +0.046 A 
ATOM     26  C   UNL     1     -12.127   7.523  18.776  0.00  0.00    +0.117 A 
BRANCH  26   3
ATOM      3  O   UNL     1     -11.380   7.470  17.640  0.00  0.00    -0.507 OA
ATOM     37  H   UNL     1     -11.764   8.077  16.982  0.00  0.00    +0.292 HD
ENDBRANCH  26   3
ENDBRANCH  16  20
ENDBRANCH   5  16
BRANCH  13  17
ATOM     17  C   UNL     1     -17.554   2.021  24.803  0.00  0.00    +0.029 C 
BRANCH  17  19
ATOM     19  C   UNL     1     -16.614   1.160  25.625  0.00  0.00    +0.097 C 
BRANCH  19  21
ATOM      2  O   UNL     1     -18.354   0.669  27.235  0.00  0.00    -0.276 OA
ATOM      8  N   UNL     1     -16.173   0.944  27.978  0.00  0.00    -0.311 N 
ATOM     21  C   UNL     1     -17.168   0.895  27.013  0.00  0.00    +0.213 C 
ATOM     36  H   UNL     1     -15.218   1.163  27.714  0.00  0.00    +0.149 HD
BRANCH   8  27
ATOM     27  C   UNL     1     -16.446   0.725  29.379  0.00  0.00    +0.139 C 
BRANCH  27  28
ATOM     28  C   UNL     1     -15.669   1.671  30.257  0.00  0.00    -0.030 A 
ATOM     29  C   UNL     1     -15.885   3.046  30.164  0.00  0.00    +0.009 A 
ATOM     30  C   UNL     1     -14.733   1.172  31.163  0.00  0.00    +0.009 A 
ATOM     31  C   UNL     1     -15.166   3.922  30.978  0.00  0.00    +0.046 A 
ATOM     32  C   UNL     1     -14.014   2.047  31.976  0.00  0.00    +0.046 A 
ATOM     33  C   UNL     1     -14.230   3.422  31.883  0.00  0.00    +0.120 A 
BRANCH  33   4
ATOM      4  O   UNL     1     -13.529   4.277  32.677  0.00  0.00    -0.495 OA
ATOM     34  C   UNL     1     -14.005   5.619  32.766  0.00  0.00    +0.277 C 
ENDBRANCH  33   4
ENDBRANCH  27  28
ENDBRANCH   8  27
ENDBRANCH  19  21
ENDBRANCH  17  19
ENDBRANCH  13  17
TORSDOF 9
ENDMDL
MODEL 3
REMARK VINA RESULT:      -7.1     18.348     21.096
REMARK  Name = 45360936
REMARK  11 active torsions:
REMARK  status: ('A' for Active; 'I' for Inactive)
REMARK    1  A    between atoms: O_3  and  C_26
REMARK    2  A    between atoms: O_4  and  C_33
REMARK    3  A    between atoms: O_4  and  C_34
REMARK    4  A    between atoms: N_5  and  C_16
REMARK    5  A    between atoms: N_6  and  C_18
REMARK    6  A    between atoms: N_8  and  C_27
REMARK    7  A    between atoms: C_13  and  C_17
REMARK    8  A    between atoms: C_16  and  C_20
REMARK    9  A    between atoms: C_17  and  C_19
REMARK   10  A    between atoms: C_19  and  C_21
REMARK   11  A    between atoms: C_27  and  C_28
REMARK                            x       y       z     vdW  Elec       q    Type
REMARK                         _______ _______ _______ _____ _____    ______ ____
ROOT
ATOM      1  O   UNL     1      -8.017  -9.317  15.473  0.00  0.00    -0.274 OA
ATOM      5  N   UNL     1      -8.960 -10.663  17.616  0.00  0.00    -0.286 NA
ATOM      6  N   UNL     1      -5.817 -12.275  16.658  0.00  0.00    -0.296 NA
ATOM      7  N   UNL     1      -5.822  -9.442  16.106  0.00  0.00    -0.312 N 
ATOM      9  C   UNL     1      -6.879 -11.912  17.623  0.00  0.00    +0.084 C 
ATOM     10  C   UNL     1      -7.497 -10.485  17.544  0.00  0.00    +0.161 C 
ATOM     11  C   UNL     1      -8.129 -12.808  17.543  0.00  0.00    +0.036 C 
ATOM     12  C   UNL     1      -9.204 -11.974  18.207  0.00  0.00    +0.087 C 
ATOM     13  C   UNL     1      -4.570 -11.470  16.784  0.00  0.00    +0.074 C 
ATOM     14  C   UNL     1      -7.168  -9.708  16.272  0.00  0.00    +0.232 C 
ATOM     15  C   UNL     1      -4.790  -9.958  16.984  0.00  0.00    +0.123 C 
ATOM     18  C   UNL     1      -5.507 -13.712  16.737  0.00  0.00    +0.105 C 
ATOM     35  H   UNL     1      -5.537  -8.909  15.290  0.00  0.00    +0.149 HD
ENDROOT
BRANCH   5  16
ATOM     16  C   UNL     1      -9.636  -9.597  18.346  0.00  0.00    +0.120 C 
BRANCH  16  20
ATOM     20  C   UNL     1     -10.630  -8.869  17.481  0.00  0.00    -0.033 A 
ATOM     22  C   UNL     1     -10.419  -7.529  17.153  0.00  0.00    +0.008 A 
ATOM     23  C   UNL     1     -11.762  -9.533  17.010  0.00  0.00    +0.008 A 
ATOM     24  C   UNL     1     -11.340  -6.854  16.352  0.00  0.00    +0.046 A 
ATOM     25  C   UNL     1     -12.683  -8.858  16.210  0.00  0.00    +0.046 A 
ATOM     26  C   UNL     1     -12.472  -7.519  15.881  0.00  0.00    +0.117 A 
BRANCH  26   3
ATOM      3  O   UNL     1     -13.371  -6.860  15.099  0.00  0.00    -0.507 OA
ATOM     37  H   UNL     1     -14.215  -6.791  15.579  0.00  0.00    +0.292 HD
ENDBRANCH  26   3
ENDBRANCH  16  20
ENDBRANCH   5  16
BRANCH  13  17
ATOM     17  C   UNL     1      -3.685 -11.647  15.532  0.00  0.00    +0.029 C 
BRANCH  17  19
ATOM     19  C   UNL     1      -2.308 -11.051  15.758  0.00  0.00    +0.097 C 
BRANCH  19  21
ATOM      2  O   UNL     1      -0.992  -9.421  14.544  0.00  0.00    -0.276 OA
ATOM      8  N   UNL     1      -2.320 -10.910  13.358  0.00  0.00    -0.311 N 
ATOM     21  C   UNL     1      -1.787 -10.357  14.513  0.00  0.00    +0.213 C 
ATOM     36  H   UNL     1      -2.992 -11.668  13.421  0.00  0.00    +0.149 HD
BRANCH   8  27
ATOM     27  C   UNL     1      -1.979 -10.424  12.042  0.00  0.00    +0.139 C 
BRANCH  27  28
ATOM     28  C   UNL     1      -3.194  -9.951  11.287  0.00  0.00    -0.030 A 
ATOM     29  C   UNL     1      -4.470 -10.223  11.779  0.00  0.00    +0.009 A 
ATOM     30  C   UNL     1      -3.042  -9.240  10.096  0.00  0.00    +0.009 A 
ATOM     31  C   UNL     1      -5.596  -9.785  11.081  0.00  0.00    +0.046 A 
ATOM     32  C   UNL     1      -4.167  -8.802   9.399  0.00  0.00    +0.046 A 
ATOM     33  C   UNL     1      -5.443  -9.075   9.890  0.00  0.00    +0.120 A 
BRANCH  33   4
ATOM      4  O   UNL     1      -6.541  -8.646   9.209  0.00  0.00    -0.495 OA
ATOM     34  C   UNL     1      -7.794  -8.715   9.887  0.00  0.00    +0.277 C 
ENDBRANCH  33   4
ENDBRANCH  27  28
ENDBRANCH   8  27
ENDBRANCH  19  21
ENDBRANCH  17  19
ENDBRANCH  13  17
TORSDOF 9
ENDMDL
MODEL 4
REMARK VINA RESULT:      -7.1     18.841     20.238
REMARK  Name = 45360936
REMARK  11 active torsions:
REMARK  status: ('A' for Active; 'I' for Inactive)
REMARK    1  A    between atoms: O_3  and  C_26
REMARK    2  A    between atoms: O_4  and  C_33
REMARK    3  A    between atoms: O_4  and  C_34
REMARK    4  A    between atoms: N_5  and  C_16
REMARK    5  A    between atoms: N_6  and  C_18
REMARK    6  A    between atoms: N_8  and  C_27
REMARK    7  A    between atoms: C_13  and  C_17
REMARK    8  A    between atoms: C_16  and  C_20
REMARK    9  A    between atoms: C_17  and  C_19
REMARK   10  A    between atoms: C_19  and  C_21
REMARK   11  A    between atoms: C_27  and  C_28
REMARK                            x       y       z     vdW  Elec       q    Type
REMARK                         _______ _______ _______ _____ _____    ______ ____
ROOT
ATOM      1  O   UNL     1      -5.830  -9.559  13.223  0.00  0.00    -0.274 OA
ATOM      5  N   UNL     1      -3.696 -10.708  12.032  0.00  0.00    -0.286 NA
ATOM      6  N   UNL     1      -3.071 -10.809  15.637  0.00  0.00    -0.296 NA
ATOM      7  N   UNL     1      -5.877 -11.009  14.993  0.00  0.00    -0.312 N 
ATOM      9  C   UNL     1      -2.896 -11.291  14.249  0.00  0.00    +0.084 C 
ATOM     10  C   UNL     1      -4.136 -11.306  13.307  0.00  0.00    +0.161 C 
ATOM     11  C   UNL     1      -1.880 -10.477  13.427  0.00  0.00    +0.036 C 
ATOM     12  C   UNL     1      -2.241 -10.805  11.994  0.00  0.00    +0.087 C 
ATOM     13  C   UNL     1      -3.988 -11.639  16.467  0.00  0.00    +0.074 C 
ATOM     14  C   UNL     1      -5.343 -10.521  13.815  0.00  0.00    +0.232 C 
ATOM     15  C   UNL     1      -5.280 -12.087  15.757  0.00  0.00    +0.123 C 
ATOM     18  C   UNL     1      -1.769 -10.661  16.307  0.00  0.00    +0.105 C 
ATOM     35  H   UNL     1      -6.696 -10.545  15.375  0.00  0.00    +0.149 HD
ENDROOT
BRANCH   5  16
ATOM     16  C   UNL     1      -4.317 -11.319  10.863  0.00  0.00    +0.120 C 
BRANCH  16  20
ATOM     20  C   UNL     1      -5.139 -10.327  10.084  0.00  0.00    -0.033 A 
ATOM     22  C   UNL     1      -4.775  -8.980  10.065  0.00  0.00    +0.008 A 
ATOM     23  C   UNL     1      -6.265 -10.754   9.381  0.00  0.00    +0.008 A 
ATOM     24  C   UNL     1      -5.536  -8.062   9.343  0.00  0.00    +0.046 A 
ATOM     25  C   UNL     1      -7.027  -9.835   8.659  0.00  0.00    +0.046 A 
ATOM     26  C   UNL     1      -6.663  -8.489   8.641  0.00  0.00    +0.117 A 
BRANCH  26   3
ATOM      3  O   UNL     1      -7.405  -7.593   7.935  0.00  0.00    -0.507 OA
ATOM     37  H   UNL     1      -7.904  -8.068   7.249  0.00  0.00    +0.292 HD
ENDBRANCH  26   3
ENDBRANCH  16  20
ENDBRANCH   5  16
BRANCH  13  17
ATOM     17  C   UNL     1      -4.400 -10.876  17.743  0.00  0.00    +0.029 C 
BRANCH  17  19
ATOM     19  C   UNL     1      -4.537 -11.828  18.917  0.00  0.00    +0.097 C 
BRANCH  19  21
ATOM      2  O   UNL     1      -5.878 -11.311  20.866  0.00  0.00    -0.276 OA
ATOM      8  N   UNL     1      -6.940 -11.767  18.853  0.00  0.00    -0.311 N 
ATOM     21  C   UNL     1      -5.834 -11.601  19.673  0.00  0.00    +0.213 C 
ATOM     36  H   UNL     1      -6.817 -12.033  17.881  0.00  0.00    +0.149 HD
BRANCH   8  27
ATOM     27  C   UNL     1      -8.290 -11.606  19.338  0.00  0.00    +0.139 C 
BRANCH  27  28
ATOM     28  C   UNL     1      -9.006 -10.478  18.641  0.00  0.00    -0.030 A 
ATOM     29  C   UNL     1      -8.323  -9.680  17.724  0.00  0.00    +0.009 A 
ATOM     30  C   UNL     1     -10.353 -10.234  18.912  0.00  0.00    +0.009 A 
ATOM     31  C   UNL     1      -8.985  -8.636  17.078  0.00  0.00    +0.046 A 
ATOM     32  C   UNL     1     -11.015  -9.191  18.266  0.00  0.00    +0.046 A 
ATOM     33  C   UNL     1     -10.332  -8.391  17.350  0.00  0.00    +0.120 A 
BRANCH  33   4
ATOM      4  O   UNL     1     -10.978  -7.373  16.720  0.00  0.00    -0.495 OA
ATOM     34  C   UNL     1     -11.954  -7.731  15.742  0.00  0.00    +0.277 C 
ENDBRANCH  33   4
ENDBRANCH  27  28
ENDBRANCH   8  27
ENDBRANCH  19  21
ENDBRANCH  17  19
ENDBRANCH  13  17
TORSDOF 9
ENDMDL
MODEL 5
REMARK VINA RESULT:      -6.9      1.642      9.998
REMARK  Name = 45360936
REMARK  11 active torsions:
REMARK  status: ('A' for Active; 'I' for Inactive)
REMARK    1  A    between atoms: O_3  and  C_26
REMARK    2  A    between atoms: O_4  and  C_33
REMARK    3  A    between atoms: O_4  and  C_34
REMARK    4  A    between atoms: N_5  and  C_16
REMARK    5  A    between atoms: N_6  and  C_18
REMARK    6  A    between atoms: N_8  and  C_27
REMARK    7  A    between atoms: C_13  and  C_17
REMARK    8  A    between atoms: C_16  and  C_20
REMARK    9  A    between atoms: C_17  and  C_19
REMARK   10  A    between atoms: C_19  and  C_21
REMARK   11  A    between atoms: C_27  and  C_28
REMARK                            x       y       z     vdW  Elec       q    Type
REMARK                         _______ _______ _______ _____ _____    ______ ____
ROOT
ATOM      1  O   UNL     1     -15.284   3.208  25.318  0.00  0.00    -0.274 OA
ATOM      5  N   UNL     1     -17.611   3.495  26.658  0.00  0.00    -0.286 NA
ATOM      6  N   UNL     1     -18.040   5.166  23.430  0.00  0.00    -0.296 NA
ATOM      7  N   UNL     1     -16.265   2.896  23.274  0.00  0.00    -0.312 N 
ATOM      9  C   UNL     1     -18.538   4.474  24.639  0.00  0.00    +0.084 C 
ATOM     10  C   UNL     1     -17.715   3.278  25.202  0.00  0.00    +0.161 C 
ATOM     11  C   UNL     1     -18.666   5.385  25.874  0.00  0.00    +0.036 C 
ATOM     12  C   UNL     1     -18.684   4.409  27.032  0.00  0.00    +0.087 C 
ATOM     13  C   UNL     1     -17.993   4.316  22.208  0.00  0.00    +0.074 C 
ATOM     14  C   UNL     1     -16.304   3.141  24.634  0.00  0.00    +0.232 C 
ATOM     15  C   UNL     1     -17.441   2.894  22.427  0.00  0.00    +0.123 C 
ATOM     18  C   UNL     1     -18.816   6.390  23.171  0.00  0.00    +0.105 C 
ATOM     35  H   UNL     1     -15.357   2.773  22.836  0.00  0.00    +0.149 HD
ENDROOT
BRANCH   5  16
ATOM     16  C   UNL     1     -17.650   2.258  27.429  0.00  0.00    +0.120 C 
BRANCH  16  20
ATOM     20  C   UNL     1     -16.478   2.148  28.368  0.00  0.00    -0.033 A 
ATOM     22  C   UNL     1     -15.728   3.280  28.684  0.00  0.00    +0.008 A 
ATOM     23  C   UNL     1     -16.143   0.912  28.921  0.00  0.00    +0.008 A 
ATOM     24  C   UNL     1     -14.642   3.177  29.553  0.00  0.00    +0.046 A 
ATOM     25  C   UNL     1     -15.057   0.809  29.790  0.00  0.00    +0.046 A 
ATOM     26  C   UNL     1     -14.306   1.941  30.106  0.00  0.00    +0.117 A 
BRANCH  26   3
ATOM      3  O   UNL     1     -13.247   1.841  30.956  0.00  0.00    -0.507 OA
ATOM     37  H   UNL     1     -13.348   2.501  31.663  0.00  0.00    +0.292 HD
ENDBRANCH  26   3
ENDBRANCH  16  20
ENDBRANCH   5  16
BRANCH  13  17
ATOM     17  C   UNL     1     -17.129   4.985  21.118  0.00  0.00    +0.029 C 
BRANCH  17  19
ATOM     19  C   UNL     1     -16.199   6.016  21.728  0.00  0.00    +0.097 C 
BRANCH  19  21
ATOM      2  O   UNL     1     -14.356   4.446  21.680  0.00  0.00    -0.276 OA
ATOM      8  N   UNL     1     -13.925   6.704  21.357  0.00  0.00    -0.311 N 
ATOM     21  C   UNL     1     -14.743   5.609  21.590  0.00  0.00    +0.213 C 
ATOM     36  H   UNL     1     -14.323   7.637  21.322  0.00  0.00    +0.149 HD
BRANCH   8  27
ATOM     27  C   UNL     1     -12.496   6.578  21.190  0.00  0.00    +0.139 C 
BRANCH  27  28
ATOM     28  C   UNL     1     -11.967   7.527  20.147  0.00  0.00    -0.030 A 
ATOM     29  C   UNL     1     -12.005   8.903  20.373  0.00  0.00    +0.009 A 
ATOM     30  C   UNL     1     -11.439   7.030  18.956  0.00  0.00    +0.009 A 
ATOM     31  C   UNL     1     -11.514   9.783  19.408  0.00  0.00    +0.046 A 
ATOM     32  C   UNL     1     -10.948   7.909  17.991  0.00  0.00    +0.046 A 
ATOM     33  C   UNL     1     -10.986   9.285  18.216  0.00  0.00    +0.120 A 
BRANCH  33   4
ATOM      4  O   UNL     1     -10.506  10.142  17.275  0.00  0.00    -0.495 OA
ATOM     34  C   UNL     1      -9.982  11.387  17.737  0.00  0.00    +0.277 C 
ENDBRANCH  33   4
ENDBRANCH  27  28
ENDBRANCH   8  27
ENDBRANCH  19  21
ENDBRANCH  17  19
ENDBRANCH  13  17
TORSDOF 9
ENDMDL
MODEL 6
REMARK VINA RESULT:      -6.9     18.215     21.416
REMARK  Name = 45360936
REMARK  11 active torsions:
REMARK  status: ('A' for Active; 'I' for Inactive)
REMARK    1  A    between atoms: O_3  and  C_26
REMARK    2  A    between atoms: O_4  and  C_33
REMARK    3  A    between atoms: O_4  and  C_34
REMARK    4  A    between atoms: N_5  and  C_16
REMARK    5  A    between atoms: N_6  and  C_18
REMARK    6  A    between atoms: N_8  and  C_27
REMARK    7  A    between atoms: C_13  and  C_17
REMARK    8  A    between atoms: C_16  and  C_20
REMARK    9  A    between atoms: C_17  and  C_19
REMARK   10  A    between atoms: C_19  and  C_21
REMARK   11  A    between atoms: C_27  and  C_28
REMARK                            x       y       z     vdW  Elec       q    Type
REMARK                         _______ _______ _______ _____ _____    ______ ____
ROOT
ATOM      1  O   UNL     1      -8.730 -10.970  15.608  0.00  0.00    -0.274 OA
ATOM      5  N   UNL     1      -9.077 -10.730  18.275  0.00  0.00    -0.286 NA
ATOM      6  N   UNL     1      -5.574 -11.648  17.747  0.00  0.00    -0.296 NA
ATOM      7  N   UNL     1      -6.636 -10.046  15.594  0.00  0.00    -0.312 N 
ATOM      9  C   UNL     1      -6.681 -11.037  18.515  0.00  0.00    +0.084 C 
ATOM     10  C   UNL     1      -7.785 -10.262  17.737  0.00  0.00    +0.161 C 
ATOM     11  C   UNL     1      -7.511 -12.049  19.327  0.00  0.00    +0.036 C 
ATOM     12  C   UNL     1      -8.809 -11.314  19.585  0.00  0.00    +0.087 C 
ATOM     13  C   UNL     1      -4.712 -10.670  17.025  0.00  0.00    +0.074 C 
ATOM     14  C   UNL     1      -7.785 -10.481  16.226  0.00  0.00    +0.232 C 
ATOM     15  C   UNL     1      -5.475  -9.543  16.301  0.00  0.00    +0.123 C 
ATOM     18  C   UNL     1      -4.752 -12.512  18.610  0.00  0.00    +0.105 C 
ATOM     35  H   UNL     1      -6.580 -10.143  14.584  0.00  0.00    +0.149 HD
ENDROOT
BRANCH   5  16
ATOM     16  C   UNL     1     -10.089  -9.683  18.337  0.00  0.00    +0.120 C 
BRANCH  16  20
ATOM     20  C   UNL     1     -11.412 -10.211  18.827  0.00  0.00    -0.033 A 
ATOM     22  C   UNL     1     -11.943  -9.752  20.032  0.00  0.00    +0.008 A 
ATOM     23  C   UNL     1     -12.104 -11.160  18.076  0.00  0.00    +0.008 A 
ATOM     24  C   UNL     1     -13.168 -10.242  20.487  0.00  0.00    +0.046 A 
ATOM     25  C   UNL     1     -13.329 -11.650  18.530  0.00  0.00    +0.046 A 
ATOM     26  C   UNL     1     -13.860 -11.191  19.735  0.00  0.00    +0.117 A 
BRANCH  26   3
ATOM      3  O   UNL     1     -15.056 -11.668  20.178  0.00  0.00    -0.507 OA
ATOM     37  H   UNL     1     -15.457 -12.210  19.476  0.00  0.00    +0.292 HD
ENDBRANCH  26   3
ENDBRANCH  16  20
ENDBRANCH   5  16
BRANCH  13  17
ATOM     17  C   UNL     1      -3.842 -11.390  15.974  0.00  0.00    +0.029 C 
BRANCH  17  19
ATOM     19  C   UNL     1      -2.393 -10.956  16.088  0.00  0.00    +0.097 C 
BRANCH  19  21
ATOM      2  O   UNL     1      -1.077  -9.482  14.688  0.00  0.00    -0.276 OA
ATOM      8  N   UNL     1      -2.375 -11.127  13.690  0.00  0.00    -0.311 N 
ATOM     21  C   UNL     1      -1.862 -10.423  14.769  0.00  0.00    +0.213 C 
ATOM     36  H   UNL     1      -3.041 -11.878  13.843  0.00  0.00    +0.149 HD
BRANCH   8  27
ATOM     27  C   UNL     1      -2.023 -10.811  12.326  0.00  0.00    +0.139 C 
BRANCH  27  28
ATOM     28  C   UNL     1      -3.155 -10.135  11.596  0.00  0.00    -0.030 A 
ATOM     29  C   UNL     1      -4.438 -10.139  12.143  0.00  0.00    +0.009 A 
ATOM     30  C   UNL     1      -2.918  -9.503  10.375  0.00  0.00    +0.009 A 
ATOM     31  C   UNL     1      -5.486  -9.512  11.468  0.00  0.00    +0.046 A 
ATOM     32  C   UNL     1      -3.966  -8.876   9.701  0.00  0.00    +0.046 A 
ATOM     33  C   UNL     1      -5.249  -8.881  10.247  0.00  0.00    +0.120 A 
BRANCH  33   4
ATOM      4  O   UNL     1      -6.271  -8.269   9.589  0.00  0.00    -0.495 OA
ATOM     34  C   UNL     1      -7.591  -8.743   9.854  0.00  0.00    +0.277 C 
ENDBRANCH  33   4
ENDBRANCH  27  28
ENDBRANCH   8  27
ENDBRANCH  19  21
ENDBRANCH  17  19
ENDBRANCH  13  17
TORSDOF 9
ENDMDL
MODEL 7
REMARK VINA RESULT:      -6.7      2.514      9.548
REMARK  Name = 45360936
REMARK  11 active torsions:
REMARK  status: ('A' for Active; 'I' for Inactive)
REMARK    1  A    between atoms: O_3  and  C_26
REMARK    2  A    between atoms: O_4  and  C_33
REMARK    3  A    between atoms: O_4  and  C_34
REMARK    4  A    between atoms: N_5  and  C_16
REMARK    5  A    between atoms: N_6  and  C_18
REMARK    6  A    between atoms: N_8  and  C_27
REMARK    7  A    between atoms: C_13  and  C_17
REMARK    8  A    between atoms: C_16  and  C_20
REMARK    9  A    between atoms: C_17  and  C_19
REMARK   10  A    between atoms: C_19  and  C_21
REMARK   11  A    between atoms: C_27  and  C_28
REMARK                            x       y       z     vdW  Elec       q    Type
REMARK                         _______ _______ _______ _____ _____    ______ ____
ROOT
ATOM      1  O   UNL     1     -15.660   3.541  26.601  0.00  0.00    -0.274 OA
ATOM      5  N   UNL     1     -17.057   4.592  28.660  0.00  0.00    -0.286 NA
ATOM      6  N   UNL     1     -17.651   6.757  25.770  0.00  0.00    -0.296 NA
ATOM      7  N   UNL     1     -17.253   3.998  25.023  0.00  0.00    -0.312 N 
ATOM      9  C   UNL     1     -18.009   6.169  27.081  0.00  0.00    +0.084 C 
ATOM     10  C   UNL     1     -17.692   4.666  27.331  0.00  0.00    +0.161 C 
ATOM     11  C   UNL     1     -17.318   6.846  28.279  0.00  0.00    +0.036 C 
ATOM     12  C   UNL     1     -17.420   5.809  29.377  0.00  0.00    +0.087 C 
ATOM     13  C   UNL     1     -18.378   6.166  24.612  0.00  0.00    +0.074 C 
ATOM     14  C   UNL     1     -16.753   4.025  26.312  0.00  0.00    +0.232 C 
ATOM     15  C   UNL     1     -18.498   4.630  24.635  0.00  0.00    +0.123 C 
ATOM     18  C   UNL     1     -17.822   8.219  25.788  0.00  0.00    +0.105 C 
ATOM     35  H   UNL     1     -16.687   3.565  24.300  0.00  0.00    +0.149 HD
ENDROOT
BRANCH   5  16
ATOM     16  C   UNL     1     -17.414   3.390  29.404  0.00  0.00    +0.120 C 
BRANCH  16  20
ATOM     20  C   UNL     1     -16.228   2.485  29.609  0.00  0.00    -0.033 A 
ATOM     22  C   UNL     1     -15.025   3.008  30.083  0.00  0.00    +0.008 A 
ATOM     23  C   UNL     1     -16.332   1.124  29.322  0.00  0.00    +0.008 A 
ATOM     24  C   UNL     1     -13.926   2.170  30.272  0.00  0.00    +0.046 A 
ATOM     25  C   UNL     1     -15.233   0.286  29.511  0.00  0.00    +0.046 A 
ATOM     26  C   UNL     1     -14.030   0.809  29.985  0.00  0.00    +0.117 A 
BRANCH  26   3
ATOM      3  O   UNL     1     -12.958  -0.010  30.170  0.00  0.00    -0.507 OA
ATOM     37  H   UNL     1     -12.147   0.527  30.159  0.00  0.00    +0.292 HD
ENDBRANCH  26   3
ENDBRANCH  16  20
ENDBRANCH   5  16
BRANCH  13  17
ATOM     17  C   UNL     1     -17.690   6.558  23.287  0.00  0.00    +0.029 C 
BRANCH  17  19
ATOM     19  C   UNL     1     -17.858   5.463  22.250  0.00  0.00    +0.097 C 
BRANCH  19  21
ATOM      2  O   UNL     1     -16.469   4.707  20.417  0.00  0.00    -0.276 OA
ATOM      8  N   UNL     1     -15.461   5.363  22.403  0.00  0.00    -0.311 N 
ATOM     21  C   UNL     1     -16.544   5.131  21.568  0.00  0.00    +0.213 C 
ATOM     36  H   UNL     1     -15.612   5.690  23.352  0.00  0.00    +0.149 HD
BRANCH   8  27
ATOM     27  C   UNL     1     -14.100   5.123  21.985  0.00  0.00    +0.139 C 
BRANCH  27  28
ATOM     28  C   UNL     1     -13.410   6.394  21.563  0.00  0.00    -0.030 A 
ATOM     29  C   UNL     1     -12.136   6.341  20.997  0.00  0.00    +0.009 A 
ATOM     30  C   UNL     1     -14.047   7.623  21.735  0.00  0.00    +0.009 A 
ATOM     31  C   UNL     1     -11.497   7.517  20.605  0.00  0.00    +0.046 A 
ATOM     32  C   UNL     1     -13.408   8.799  21.342  0.00  0.00    +0.046 A 
ATOM     33  C   UNL     1     -12.134   8.746  20.778  0.00  0.00    +0.120 A 
BRANCH  33   4
ATOM      4  O   UNL     1     -11.511   9.894  20.395  0.00  0.00    -0.495 OA
ATOM     34  C   UNL     1     -10.596   9.803  19.303  0.00  0.00    +0.277 C 
ENDBRANCH  33   4
ENDBRANCH  27  28
ENDBRANCH   8  27
ENDBRANCH  19  21
ENDBRANCH  17  19
ENDBRANCH  13  17
TORSDOF 9
ENDMDL
MODEL 8
REMARK VINA RESULT:      -6.7     18.319     20.663
REMARK  Name = 45360936
REMARK  11 active torsions:
REMARK  status: ('A' for Active; 'I' for Inactive)
REMARK    1  A    between atoms: O_3  and  C_26
REMARK    2  A    between atoms: O_4  and  C_33
REMARK    3  A    between atoms: O_4  and  C_34
REMARK    4  A    between atoms: N_5  and  C_16
REMARK    5  A    between atoms: N_6  and  C_18
REMARK    6  A    between atoms: N_8  and  C_27
REMARK    7  A    between atoms: C_13  and  C_17
REMARK    8  A    between atoms: C_16  and  C_20
REMARK    9  A    between atoms: C_17  and  C_19
REMARK   10  A    between atoms: C_19  and  C_21
REMARK   11  A    between atoms: C_27  and  C_28
REMARK                            x       y       z     vdW  Elec       q    Type
REMARK                         _______ _______ _______ _____ _____    ______ ____
ROOT
ATOM      1  O   UNL     1      -7.971  -8.757  16.732  0.00  0.00    -0.274 OA
ATOM      5  N   UNL     1      -9.927 -10.617  16.639  0.00  0.00    -0.286 NA
ATOM      6  N   UNL     1      -6.817 -12.395  17.388  0.00  0.00    -0.296 NA
ATOM      7  N   UNL     1      -6.857  -9.725  18.481  0.00  0.00    -0.312 N 
ATOM      9  C   UNL     1      -8.288 -12.236  17.403  0.00  0.00    +0.084 C 
ATOM     10  C   UNL     1      -8.879 -10.818  17.657  0.00  0.00    +0.161 C 
ATOM     11  C   UNL     1      -8.974 -12.638  16.085  0.00  0.00    +0.036 C 
ATOM     12  C   UNL     1     -10.315 -11.938  16.157  0.00  0.00    +0.087 C 
ATOM     13  C   UNL     1      -6.151 -12.091  18.685  0.00  0.00    +0.074 C 
ATOM     14  C   UNL     1      -7.876  -9.672  17.549  0.00  0.00    +0.232 C 
ATOM     15  C   UNL     1      -6.670 -10.829  19.401  0.00  0.00    +0.123 C 
ATOM     18  C   UNL     1      -6.441 -13.741  16.924  0.00  0.00    +0.105 C 
ATOM     35  H   UNL     1      -6.167  -8.979  18.478  0.00  0.00    +0.149 HD
ENDROOT
BRANCH   5  16
ATOM     16  C   UNL     1     -11.069  -9.854  17.128  0.00  0.00    +0.120 C 
BRANCH  16  20
ATOM     20  C   UNL     1     -11.271  -8.585  16.345  0.00  0.00    -0.033 A 
ATOM     22  C   UNL     1     -11.666  -8.644  15.009  0.00  0.00    +0.008 A 
ATOM     23  C   UNL     1     -11.062  -7.348  16.956  0.00  0.00    +0.008 A 
ATOM     24  C   UNL     1     -11.853  -7.468  14.283  0.00  0.00    +0.046 A 
ATOM     25  C   UNL     1     -11.249  -6.172  16.231  0.00  0.00    +0.046 A 
ATOM     26  C   UNL     1     -11.644  -6.232  14.894  0.00  0.00    +0.117 A 
BRANCH  26   3
ATOM      3  O   UNL     1     -11.827  -5.084  14.187  0.00  0.00    -0.507 OA
ATOM     37  H   UNL     1     -12.628  -4.638  14.512  0.00  0.00    +0.292 HD
ENDBRANCH  26   3
ENDBRANCH  16  20
ENDBRANCH   5  16
BRANCH  13  17
ATOM     17  C   UNL     1      -4.631 -11.916  18.483  0.00  0.00    +0.029 C 
BRANCH  17  19
ATOM     19  C   UNL     1      -4.345 -10.818  17.477  0.00  0.00    +0.097 C 
BRANCH  19  21
ATOM      2  O   UNL     1      -2.068 -10.949  16.663  0.00  0.00    -0.276 OA
ATOM      8  N   UNL     1      -3.770 -11.925  15.421  0.00  0.00    -0.311 N 
ATOM     21  C   UNL     1      -3.255 -11.222  16.500  0.00  0.00    +0.213 C 
ATOM     36  H   UNL     1      -4.769 -12.086  15.350  0.00  0.00    +0.149 HD
BRANCH   8  27
ATOM     27  C   UNL     1      -2.933 -12.419  14.353  0.00  0.00    +0.139 C 
BRANCH  27  28
ATOM     28  C   UNL     1      -3.011 -11.544  13.129  0.00  0.00    -0.030 A 
ATOM     29  C   UNL     1      -4.211 -11.431  12.427  0.00  0.00    +0.009 A 
ATOM     30  C   UNL     1      -1.882 -10.846  12.699  0.00  0.00    +0.009 A 
ATOM     31  C   UNL     1      -4.283 -10.620  11.294  0.00  0.00    +0.046 A 
ATOM     32  C   UNL     1      -1.955 -10.035  11.566  0.00  0.00    +0.046 A 
ATOM     33  C   UNL     1      -3.154  -9.923  10.864  0.00  0.00    +0.120 A 
BRANCH  33   4
ATOM      4  O   UNL     1      -3.225  -9.131   9.759  0.00  0.00    -0.495 OA
ATOM     34  C   UNL     1      -4.527  -8.758   9.310  0.00  0.00    +0.277 C 
ENDBRANCH  33   4
ENDBRANCH  27  28
ENDBRANCH   8  27
ENDBRANCH  19  21
ENDBRANCH  17  19
ENDBRANCH  13  17
TORSDOF 9
ENDMDL
MODEL 9
REMARK VINA RESULT:      -6.7     16.240     17.499
REMARK  Name = 45360936
REMARK  11 active torsions:
REMARK  status: ('A' for Active; 'I' for Inactive)
REMARK    1  A    between atoms: O_3  and  C_26
REMARK    2  A    between atoms: O_4  and  C_33
REMARK    3  A    between atoms: O_4  and  C_34
REMARK    4  A    between atoms: N_5  and  C_16
REMARK    5  A    between atoms: N_6  and  C_18
REMARK    6  A    between atoms: N_8  and  C_27
REMARK    7  A    between atoms: C_13  and  C_17
REMARK    8  A    between atoms: C_16  and  C_20
REMARK    9  A    between atoms: C_17  and  C_19
REMARK   10  A    between atoms: C_19  and  C_21
REMARK   11  A    between atoms: C_27  and  C_28
REMARK                            x       y       z     vdW  Elec       q    Type
REMARK                         _______ _______ _______ _____ _____    ______ ____
ROOT
ATOM      1  O   UNL     1     -11.487  -5.563  14.558  0.00  0.00    -0.274 OA
ATOM      5  N   UNL     1     -12.391  -7.221  12.627  0.00  0.00    -0.286 NA
ATOM      6  N   UNL     1     -10.731  -9.319  15.124  0.00  0.00    -0.296 NA
ATOM      7  N   UNL     1     -11.968  -6.985  16.285  0.00  0.00    -0.312 N 
ATOM      9  C   UNL     1     -11.699  -9.075  14.032  0.00  0.00    +0.084 C 
ATOM     10  C   UNL     1     -12.470  -7.723  14.012  0.00  0.00    +0.161 C 
ATOM     11  C   UNL     1     -11.076  -9.110  12.625  0.00  0.00    +0.036 C 
ATOM     12  C   UNL     1     -12.083  -8.364  11.775  0.00  0.00    +0.087 C 
ATOM     13  C   UNL     1     -11.336  -9.372  16.484  0.00  0.00    +0.074 C 
ATOM     14  C   UNL     1     -11.916  -6.649  14.946  0.00  0.00    +0.232 C 
ATOM     15  C   UNL     1     -12.390  -8.285  16.769  0.00  0.00    +0.123 C 
ATOM     18  C   UNL     1      -9.947 -10.538  14.867  0.00  0.00    +0.105 C 
ATOM     35  H   UNL     1     -11.635  -6.305  16.962  0.00  0.00    +0.149 HD
ENDROOT
BRANCH   5  16
ATOM     16  C   UNL     1     -13.597  -6.524  12.196  0.00  0.00    +0.120 C 
BRANCH  16  20
ATOM     20  C   UNL     1     -13.303  -5.503  11.130  0.00  0.00    -0.033 A 
ATOM     22  C   UNL     1     -14.169  -5.356  10.047  0.00  0.00    +0.008 A 
ATOM     23  C   UNL     1     -12.164  -4.704  11.226  0.00  0.00    +0.008 A 
ATOM     24  C   UNL     1     -13.896  -4.410   9.059  0.00  0.00    +0.046 A 
ATOM     25  C   UNL     1     -11.891  -3.758  10.238  0.00  0.00    +0.046 A 
ATOM     26  C   UNL     1     -12.757  -3.611   9.155  0.00  0.00    +0.117 A 
BRANCH  26   3
ATOM      3  O   UNL     1     -12.491  -2.687   8.191  0.00  0.00    -0.507 OA
ATOM     37  H   UNL     1     -13.127  -2.799   7.463  0.00  0.00    +0.292 HD
ENDBRANCH  26   3
ENDBRANCH  16  20
ENDBRANCH   5  16
BRANCH  13  17
ATOM     17  C   UNL     1     -10.242  -9.251  17.567  0.00  0.00    +0.029 C 
BRANCH  17  19
ATOM     19  C   UNL     1     -10.673  -9.947  18.844  0.00  0.00    +0.097 C 
BRANCH  19  21
ATOM      2  O   UNL     1      -9.723 -11.749  20.154  0.00  0.00    -0.276 OA
ATOM      8  N   UNL     1      -8.301 -10.242  19.106  0.00  0.00    -0.311 N 
ATOM     21  C   UNL     1      -9.541 -10.759  19.448  0.00  0.00    +0.213 C 
ATOM     36  H   UNL     1      -8.239  -9.404  18.538  0.00  0.00    +0.149 HD
BRANCH   8  27
ATOM     27  C   UNL     1      -7.066 -10.838  19.558  0.00  0.00    +0.139 C 
BRANCH  27  28
ATOM     28  C   UNL     1      -5.997 -10.787  18.497  0.00  0.00    -0.030 A 
ATOM     29  C   UNL     1      -4.771 -11.416  18.713  0.00  0.00    +0.009 A 
ATOM     30  C   UNL     1      -6.235 -10.113  17.299  0.00  0.00    +0.009 A 
ATOM     31  C   UNL     1      -3.781 -11.370  17.731  0.00  0.00    +0.046 A 
ATOM     32  C   UNL     1      -5.246 -10.068  16.317  0.00  0.00    +0.046 A 
ATOM     33  C   UNL     1      -4.019 -10.695  16.533  0.00  0.00    +0.120 A 
BRANCH  33   4
ATOM      4  O   UNL     1      -3.054 -10.651  15.575  0.00  0.00    -0.495 OA
ATOM     34  C   UNL     1      -1.699 -10.609  16.019  0.00  0.00    +0.277 C 
ENDBRANCH  33   4
ENDBRANCH  27  28
ENDBRANCH   8  27
ENDBRANCH  19  21
ENDBRANCH  17  19
ENDBRANCH  13  17
TORSDOF 9
ENDMDL
MODEL 10
REMARK VINA RESULT:      -6.7     18.456     21.688
REMARK  Name = 45360936
REMARK  11 active torsions:
REMARK  status: ('A' for Active; 'I' for Inactive)
REMARK    1  A    between atoms: O_3  and  C_26
REMARK    2  A    between atoms: O_4  and  C_33
REMARK    3  A    between atoms: O_4  and  C_34
REMARK    4  A    between atoms: N_5  and  C_16
REMARK    5  A    between atoms: N_6  and  C_18
REMARK    6  A    between atoms: N_8  and  C_27
REMARK    7  A    between atoms: C_13  and  C_17
REMARK    8  A    between atoms: C_16  and  C_20
REMARK    9  A    between atoms: C_17  and  C_19
REMARK   10  A    between atoms: C_19  and  C_21
REMARK   11  A    between atoms: C_27  and  C_28
REMARK                            x       y       z     vdW  Elec       q    Type
REMARK                         _______ _______ _______ _____ _____    ______ ____
ROOT
ATOM      1  O   UNL     1      -7.137 -10.612  19.905  0.00  0.00    -0.274 OA
ATOM      5  N   UNL     1      -9.040 -11.305  18.118  0.00  0.00    -0.286 NA
ATOM      6  N   UNL     1      -6.006 -10.588  16.201  0.00  0.00    -0.296 NA
ATOM      7  N   UNL     1      -5.435 -11.680  18.810  0.00  0.00    -0.312 N 
ATOM      9  C   UNL     1      -7.319 -11.239  16.408  0.00  0.00    +0.084 C 
ATOM     10  C   UNL     1      -7.669 -11.768  17.829  0.00  0.00    +0.161 C 
ATOM     11  C   UNL     1      -8.523 -10.330  16.098  0.00  0.00    +0.036 C 
ATOM     12  C   UNL     1      -9.665 -10.994  16.838  0.00  0.00    +0.087 C 
ATOM     13  C   UNL     1      -4.834 -11.483  16.415  0.00  0.00    +0.074 C 
ATOM     14  C   UNL     1      -6.750 -11.278  18.946  0.00  0.00    +0.232 C 
ATOM     15  C   UNL     1      -4.931 -12.394  17.654  0.00  0.00    +0.123 C 
ATOM     18  C   UNL     1      -5.935  -9.964  14.870  0.00  0.00    +0.105 C 
ATOM     35  H   UNL     1      -4.774 -11.406  19.532  0.00  0.00    +0.149 HD
ENDROOT
BRANCH   5  16
ATOM     16  C   UNL     1      -9.821 -12.263  18.892  0.00  0.00    +0.120 C 
BRANCH  16  20
ATOM     20  C   UNL     1     -11.091 -11.651  19.420  0.00  0.00    -0.033 A 
ATOM     22  C   UNL     1     -11.054 -10.421  20.076  0.00  0.00    +0.008 A 
ATOM     23  C   UNL     1     -12.306 -12.317  19.254  0.00  0.00    +0.008 A 
ATOM     24  C   UNL     1     -12.231  -9.855  20.566  0.00  0.00    +0.046 A 
ATOM     25  C   UNL     1     -13.483 -11.751  19.744  0.00  0.00    +0.046 A 
ATOM     26  C   UNL     1     -13.446 -10.520  20.400  0.00  0.00    +0.117 A 
BRANCH  26   3
ATOM      3  O   UNL     1     -14.594  -9.968  20.877  0.00  0.00    -0.507 OA
ATOM     37  H   UNL     1     -15.349 -10.335  20.383  0.00  0.00    +0.292 HD
ENDBRANCH  26   3
ENDBRANCH  16  20
ENDBRANCH   5  16
BRANCH  13  17
ATOM     17  C   UNL     1      -3.539 -10.654  16.549  0.00  0.00    +0.029 C 
BRANCH  17  19
ATOM     19  C   UNL     1      -2.384 -11.347  15.851  0.00  0.00    +0.097 C 
BRANCH  19  21
ATOM      2  O   UNL     1      -1.079  -9.542  14.900  0.00  0.00    -0.276 OA
ATOM      8  N   UNL     1      -2.264 -10.947  13.483  0.00  0.00    -0.311 N 
ATOM     21  C   UNL     1      -1.825 -10.501  14.720  0.00  0.00    +0.213 C 
ATOM     36  H   UNL     1      -2.903 -11.734  13.423  0.00  0.00    +0.149 HD
BRANCH   8  27
ATOM     27  C   UNL     1      -1.872 -10.308  12.249  0.00  0.00    +0.139 C 
BRANCH  27  28
ATOM     28  C   UNL     1      -3.051 -10.071  11.341  0.00  0.00    -0.030 A 
ATOM     29  C   UNL     1      -2.920  -9.233  10.234  0.00  0.00    +0.009 A 
ATOM     30  C   UNL     1      -4.271 -10.692  11.606  0.00  0.00    +0.009 A 
ATOM     31  C   UNL     1      -4.011  -9.014   9.391  0.00  0.00    +0.046 A 
ATOM     32  C   UNL     1      -5.361 -10.474  10.764  0.00  0.00    +0.046 A 
ATOM     33  C   UNL     1      -5.232  -9.635   9.657  0.00  0.00    +0.120 A 
BRANCH  33   4
ATOM      4  O   UNL     1      -6.295  -9.422   8.836  0.00  0.00    -0.495 OA
ATOM     34  C   UNL     1      -7.031  -8.214   9.025  0.00  0.00    +0.277 C 
ENDBRANCH  33   4
ENDBRANCH  27  28
ENDBRANCH   8  27
ENDBRANCH  19  21
ENDBRANCH  17  19
ENDBRANCH  13  17
TORSDOF 9
ENDMDL
