MODEL 1
REMARK VINA RESULT:      -6.9      0.000      0.000
REMARK  Name = 40779467
REMARK  11 active torsions:
REMARK  status: ('A' for Active; 'I' for Inactive)
REMARK    1  A    between atoms: S_1  and  N_8
REMARK    2  A    between atoms: S_1  and  C_23
REMARK    3  A    between atoms: O_4  and  C_26
REMARK    4  A    between atoms: O_4  and  C_38
REMARK    5  A    between atoms: O_5  and  C_31
REMARK    6  A    between atoms: O_5  and  C_39
REMARK    7  A    between atoms: N_7  and  C_21
REMARK    8  A    between atoms: N_8  and  C_17
REMARK    9  A    between atoms: C_11  and  C_18
REMARK   10  A    between atoms: C_12  and  C_17
REMARK   11  A    between atoms: C_20  and  C_22
REMARK                            x       y       z     vdW  Elec       q    Type
REMARK                         _______ _______ _______ _____ _____    ______ ____
ROOT
ATOM      6  N   UNL     1      -6.704 -12.732  18.492  0.00  0.00    -0.297 NA
ATOM     10  C   UNL     1      -5.788 -10.384  17.837  0.00  0.00    +0.002 C 
ATOM     11  C   UNL     1      -7.124 -10.672  17.097  0.00  0.00    +0.055 C 
ATOM     12  C   UNL     1      -5.275 -12.837  18.098  0.00  0.00    +0.072 C 
ATOM     13  C   UNL     1      -4.773 -11.500  17.511  0.00  0.00    +0.024 C 
ATOM     14  C   UNL     1      -6.089 -10.472  19.348  0.00  0.00    +0.019 C 
ATOM     15  C   UNL     1      -7.498 -12.156  17.378  0.00  0.00    +0.094 C 
ATOM     16  C   UNL     1      -6.790 -11.808  19.649  0.00  0.00    +0.085 C 
ENDROOT
BRANCH  11  18
ATOM      7  N   UNL     1      -8.339  -9.808  15.044  0.00  0.00    -0.270 N 
ATOM      9  N   UNL     1      -8.217  -9.571  13.726  0.00  0.00    -0.171 NA
ATOM     18  C   UNL     1      -7.215 -10.324  15.618  0.00  0.00    +0.044 A 
ATOM     19  C   UNL     1      -6.293 -10.433  14.606  0.00  0.00    +0.053 A 
ATOM     20  C   UNL     1      -6.964  -9.955  13.465  0.00  0.00    +0.093 A 
ATOM     21  C   UNL     1      -9.591  -9.511  15.701  0.00  0.00    +0.172 C 
BRANCH  20  22
ATOM     22  C   UNL     1      -6.432  -9.858  12.130  0.00  0.00    +0.003 A 
ATOM     24  C   UNL     1      -6.694 -10.865  11.201  0.00  0.00    +0.018 A 
ATOM     25  C   UNL     1      -5.659  -8.759  11.768  0.00  0.00    +0.011 A 
ATOM     28  C   UNL     1      -6.183 -10.785   9.895  0.00  0.00    -0.017 A 
ATOM     29  C   UNL     1      -5.144  -8.664  10.475  0.00  0.00    +0.009 A 
ATOM     30  C   UNL     1      -5.396  -9.667   9.527  0.00  0.00    -0.018 A 
ATOM     34  C   UNL     1      -6.436 -11.789   8.947  0.00  0.00    +0.008 A 
ATOM     35  C   UNL     1      -4.886  -9.588   8.221  0.00  0.00    +0.008 A 
ATOM     36  C   UNL     1      -5.921 -11.694   7.654  0.00  0.00    +0.001 A 
ATOM     37  C   UNL     1      -5.147 -10.595   7.291  0.00  0.00    +0.001 A 
ENDBRANCH  20  22
ENDBRANCH  11  18
BRANCH  12  17
ATOM     17  C   UNL     1      -5.016 -14.009  17.149  0.00  0.00    +0.124 C 
BRANCH  17   8
ATOM      8  N   UNL     1      -4.113 -13.569  16.072  0.00  0.00    -0.188 NA
ATOM     40  H   UNL     1      -3.611 -12.688  16.226  0.00  0.00    +0.148 HD
BRANCH   8   1
ATOM      1  S   UNL     1      -4.448 -13.981  14.454  0.00  0.00    +0.062 S 
ATOM      2  O   UNL     1      -5.868 -13.824  14.203  0.00  0.00    -0.153 OA
ATOM      3  O   UNL     1      -3.785 -15.232  14.136  0.00  0.00    -0.153 OA
BRANCH   1  23
ATOM     23  C   UNL     1      -3.595 -12.707  13.574  0.00  0.00    +0.150 A 
ATOM     26  C   UNL     1      -3.666 -12.627  12.184  0.00  0.00    +0.147 A 
ATOM     27  C   UNL     1      -2.844 -11.775  14.289  0.00  0.00    +0.077 A 
ATOM     31  C   UNL     1      -2.163 -10.762  13.614  0.00  0.00    +0.122 A 
ATOM     32  C   UNL     1      -2.985 -11.614  11.507  0.00  0.00    +0.051 A 
ATOM     33  C   UNL     1      -2.234 -10.682  12.223  0.00  0.00    +0.049 A 
BRANCH  26   4
ATOM      4  O   UNL     1      -4.394 -13.527  11.465  0.00  0.00    -0.493 OA
ATOM     38  C   UNL     1      -3.665 -14.472  10.684  0.00  0.00    +0.277 C 
ENDBRANCH  26   4
BRANCH  31   5
ATOM      5  O   UNL     1      -1.430  -9.850  14.311  0.00  0.00    -0.495 OA
ATOM     39  C   UNL     1      -1.093 -10.182  15.656  0.00  0.00    +0.277 C 
ENDBRANCH  31   5
ENDBRANCH   1  23
ENDBRANCH   8   1
ENDBRANCH  17   8
ENDBRANCH  12  17
TORSDOF 8
ENDMDL
MODEL 2
REMARK VINA RESULT:      -6.5      0.794      2.189
REMARK  Name = 40779467
REMARK  11 active torsions:
REMARK  status: ('A' for Active; 'I' for Inactive)
REMARK    1  A    between atoms: S_1  and  N_8
REMARK    2  A    between atoms: S_1  and  C_23
REMARK    3  A    between atoms: O_4  and  C_26
REMARK    4  A    between atoms: O_4  and  C_38
REMARK    5  A    between atoms: O_5  and  C_31
REMARK    6  A    between atoms: O_5  and  C_39
REMARK    7  A    between atoms: N_7  and  C_21
REMARK    8  A    between atoms: N_8  and  C_17
REMARK    9  A    between atoms: C_11  and  C_18
REMARK   10  A    between atoms: C_12  and  C_17
REMARK   11  A    between atoms: C_20  and  C_22
REMARK                            x       y       z     vdW  Elec       q    Type
REMARK                         _______ _______ _______ _____ _____    ______ ____
ROOT
ATOM      6  N   UNL     1      -6.675 -12.680  18.468  0.00  0.00    -0.297 NA
ATOM     10  C   UNL     1      -6.022 -10.229  17.876  0.00  0.00    +0.002 C 
ATOM     11  C   UNL     1      -7.307 -10.649  17.110  0.00  0.00    +0.055 C 
ATOM     12  C   UNL     1      -5.239 -12.614  18.094  0.00  0.00    +0.072 C 
ATOM     13  C   UNL     1      -4.883 -11.216  17.543  0.00  0.00    +0.024 C 
ATOM     14  C   UNL     1      -6.330 -10.385  19.381  0.00  0.00    +0.019 C 
ATOM     15  C   UNL     1      -7.515 -12.171  17.354  0.00  0.00    +0.094 C 
ATOM     16  C   UNL     1      -6.881 -11.798  19.642  0.00  0.00    +0.085 C 
ENDROOT
BRANCH  11  18
ATOM      7  N   UNL     1      -8.573  -9.833  15.068  0.00  0.00    -0.270 N 
ATOM      9  N   UNL     1      -8.463  -9.563  13.755  0.00  0.00    -0.171 NA
ATOM     18  C   UNL     1      -7.417 -10.280  15.637  0.00  0.00    +0.044 A 
ATOM     19  C   UNL     1      -6.486 -10.305  14.628  0.00  0.00    +0.053 A 
ATOM     20  C   UNL     1      -7.186  -9.853  13.492  0.00  0.00    +0.093 A 
ATOM     21  C   UNL     1      -9.845  -9.638  15.724  0.00  0.00    +0.172 C 
BRANCH  20  22
ATOM     22  C   UNL     1      -6.658  -9.694  12.162  0.00  0.00    +0.003 A 
ATOM     24  C   UNL     1      -7.189 -10.437  11.108  0.00  0.00    +0.018 A 
ATOM     25  C   UNL     1      -5.619  -8.797  11.930  0.00  0.00    +0.011 A 
ATOM     28  C   UNL     1      -6.685 -10.293   9.805  0.00  0.00    -0.017 A 
ATOM     29  C   UNL     1      -5.107  -8.642  10.642  0.00  0.00    +0.009 A 
ATOM     30  C   UNL     1      -5.628  -9.381   9.568  0.00  0.00    -0.018 A 
ATOM     34  C   UNL     1      -7.208 -11.032   8.732  0.00  0.00    +0.008 A 
ATOM     35  C   UNL     1      -5.126  -9.237   8.265  0.00  0.00    +0.008 A 
ATOM     36  C   UNL     1      -6.696 -10.877   7.443  0.00  0.00    +0.001 A 
ATOM     37  C   UNL     1      -5.656  -9.981   7.210  0.00  0.00    +0.001 A 
ENDBRANCH  20  22
ENDBRANCH  11  18
BRANCH  12  17
ATOM     17  C   UNL     1      -4.837 -13.728  17.125  0.00  0.00    +0.124 C 
BRANCH  17   8
ATOM      8  N   UNL     1      -4.082 -13.144  16.003  0.00  0.00    -0.188 NA
ATOM     40  H   UNL     1      -4.159 -12.129  15.877  0.00  0.00    +0.148 HD
BRANCH   8   1
ATOM      1  S   UNL     1      -3.788 -14.064  14.600  0.00  0.00    +0.062 S 
ATOM      2  O   UNL     1      -5.042 -14.597  14.104  0.00  0.00    -0.153 OA
ATOM      3  O   UNL     1      -2.663 -14.948  14.840  0.00  0.00    -0.153 OA
BRANCH   1  23
ATOM     23  C   UNL     1      -3.237 -12.824  13.466  0.00  0.00    +0.150 A 
ATOM     26  C   UNL     1      -2.357 -11.821  13.873  0.00  0.00    +0.147 A 
ATOM     27  C   UNL     1      -3.694 -12.859  12.149  0.00  0.00    +0.077 A 
ATOM     31  C   UNL     1      -3.271 -11.890  11.238  0.00  0.00    +0.122 A 
ATOM     32  C   UNL     1      -1.935 -10.852  12.964  0.00  0.00    +0.051 A 
ATOM     33  C   UNL     1      -2.392 -10.887  11.646  0.00  0.00    +0.049 A 
BRANCH  26   4
ATOM      4  O   UNL     1      -1.898 -11.769  15.155  0.00  0.00    -0.493 OA
ATOM     38  C   UNL     1      -1.489 -10.493  15.644  0.00  0.00    +0.277 C 
ENDBRANCH  26   4
BRANCH  31   5
ATOM      5  O   UNL     1      -3.716 -11.923   9.952  0.00  0.00    -0.495 OA
ATOM     39  C   UNL     1      -4.235 -13.164   9.477  0.00  0.00    +0.277 C 
ENDBRANCH  31   5
ENDBRANCH   1  23
ENDBRANCH   8   1
ENDBRANCH  17   8
ENDBRANCH  12  17
TORSDOF 8
ENDMDL
MODEL 3
REMARK VINA RESULT:      -6.2     25.987     27.325
REMARK  Name = 40779467
REMARK  11 active torsions:
REMARK  status: ('A' for Active; 'I' for Inactive)
REMARK    1  A    between atoms: S_1  and  N_8
REMARK    2  A    between atoms: S_1  and  C_23
REMARK    3  A    between atoms: O_4  and  C_26
REMARK    4  A    between atoms: O_4  and  C_38
REMARK    5  A    between atoms: O_5  and  C_31
REMARK    6  A    between atoms: O_5  and  C_39
REMARK    7  A    between atoms: N_7  and  C_21
REMARK    8  A    between atoms: N_8  and  C_17
REMARK    9  A    between atoms: C_11  and  C_18
REMARK   10  A    between atoms: C_12  and  C_17
REMARK   11  A    between atoms: C_20  and  C_22
REMARK                            x       y       z     vdW  Elec       q    Type
REMARK                         _______ _______ _______ _____ _____    ______ ____
ROOT
ATOM      6  N   UNL     1      15.202  -7.516  32.003  0.00  0.00    -0.297 NA
ATOM     10  C   UNL     1      13.628  -7.307  29.939  0.00  0.00    +0.002 C 
ATOM     11  C   UNL     1      14.921  -8.083  29.561  0.00  0.00    +0.055 C 
ATOM     12  C   UNL     1      14.772  -6.103  31.834  0.00  0.00    +0.072 C 
ATOM     13  C   UNL     1      14.010  -5.922  30.503  0.00  0.00    +0.024 C 
ATOM     14  C   UNL     1      12.957  -8.094  31.085  0.00  0.00    +0.019 C 
ATOM     15  C   UNL     1      15.889  -7.990  30.775  0.00  0.00    +0.094 C 
ATOM     16  C   UNL     1      13.987  -8.341  32.202  0.00  0.00    +0.085 C 
ENDROOT
BRANCH  11  18
ATOM      7  N   UNL     1      16.218  -8.667  27.460  0.00  0.00    -0.270 N 
ATOM      9  N   UNL     1      16.767  -8.158  26.343  0.00  0.00    -0.171 NA
ATOM     18  C   UNL     1      15.608  -7.736  28.248  0.00  0.00    +0.044 A 
ATOM     19  C   UNL     1      15.767  -6.535  27.601  0.00  0.00    +0.053 A 
ATOM     20  C   UNL     1      16.488  -6.855  26.435  0.00  0.00    +0.093 A 
ATOM     21  C   UNL     1      16.323 -10.085  27.714  0.00  0.00    +0.172 C 
BRANCH  20  22
ATOM     22  C   UNL     1      16.915  -5.941  25.408  0.00  0.00    +0.003 A 
ATOM     24  C   UNL     1      16.460  -4.623  25.415  0.00  0.00    +0.018 A 
ATOM     25  C   UNL     1      17.783  -6.374  24.410  0.00  0.00    +0.011 A 
ATOM     28  C   UNL     1      16.868  -3.718  24.420  0.00  0.00    -0.017 A 
ATOM     29  C   UNL     1      18.199  -5.489  23.414  0.00  0.00    +0.009 A 
ATOM     30  C   UNL     1      17.751  -4.158  23.405  0.00  0.00    -0.018 A 
ATOM     34  C   UNL     1      16.420  -2.388  24.412  0.00  0.00    +0.008 A 
ATOM     35  C   UNL     1      18.159  -3.254  22.411  0.00  0.00    +0.008 A 
ATOM     36  C   UNL     1      16.835  -1.503  23.416  0.00  0.00    +0.001 A 
ATOM     37  C   UNL     1      17.703  -1.935  22.417  0.00  0.00    +0.001 A 
ENDBRANCH  20  22
ENDBRANCH  11  18
BRANCH  12  17
ATOM     17  C   UNL     1      15.937  -5.120  31.963  0.00  0.00    +0.124 C 
BRANCH  17   8
ATOM      8  N   UNL     1      16.137  -4.436  30.674  0.00  0.00    -0.188 NA
ATOM     40  H   UNL     1      16.062  -5.015  29.830  0.00  0.00    +0.148 HD
BRANCH   8   1
ATOM      1  S   UNL     1      17.163  -3.080  30.575  0.00  0.00    +0.062 S 
ATOM      2  O   UNL     1      18.025  -3.045  31.741  0.00  0.00    -0.153 OA
ATOM      3  O   UNL     1      16.376  -1.915  30.215  0.00  0.00    -0.153 OA
BRANCH   1  23
ATOM     23  C   UNL     1      18.160  -3.483  29.172  0.00  0.00    +0.150 A 
ATOM     26  C   UNL     1      18.720  -4.753  29.033  0.00  0.00    +0.147 A 
ATOM     27  C   UNL     1      18.383  -2.512  28.197  0.00  0.00    +0.077 A 
ATOM     31  C   UNL     1      19.168  -2.810  27.082  0.00  0.00    +0.122 A 
ATOM     32  C   UNL     1      19.505  -5.051  27.920  0.00  0.00    +0.051 A 
ATOM     33  C   UNL     1      19.728  -4.079  26.944  0.00  0.00    +0.049 A 
BRANCH  26   4
ATOM      4  O   UNL     1      18.515  -5.717  29.974  0.00  0.00    -0.493 OA
ATOM     38  C   UNL     1      19.644  -6.502  30.353  0.00  0.00    +0.277 C 
ENDBRANCH  26   4
BRANCH  31   5
ATOM      5  O   UNL     1      19.385  -1.862  26.129  0.00  0.00    -0.495 OA
ATOM     39  C   UNL     1      20.399  -2.134  25.164  0.00  0.00    +0.277 C 
ENDBRANCH  31   5
ENDBRANCH   1  23
ENDBRANCH   8   1
ENDBRANCH  17   8
ENDBRANCH  12  17
TORSDOF 8
ENDMDL
MODEL 4
REMARK VINA RESULT:      -6.2      2.146      3.483
REMARK  Name = 40779467
REMARK  11 active torsions:
REMARK  status: ('A' for Active; 'I' for Inactive)
REMARK    1  A    between atoms: S_1  and  N_8
REMARK    2  A    between atoms: S_1  and  C_23
REMARK    3  A    between atoms: O_4  and  C_26
REMARK    4  A    between atoms: O_4  and  C_38
REMARK    5  A    between atoms: O_5  and  C_31
REMARK    6  A    between atoms: O_5  and  C_39
REMARK    7  A    between atoms: N_7  and  C_21
REMARK    8  A    between atoms: N_8  and  C_17
REMARK    9  A    between atoms: C_11  and  C_18
REMARK   10  A    between atoms: C_12  and  C_17
REMARK   11  A    between atoms: C_20  and  C_22
REMARK                            x       y       z     vdW  Elec       q    Type
REMARK                         _______ _______ _______ _____ _____    ______ ____
ROOT
ATOM      6  N   UNL     1      -6.435 -11.193  18.551  0.00  0.00    -0.297 NA
ATOM     10  C   UNL     1      -4.178 -12.253  17.798  0.00  0.00    +0.002 C 
ATOM     11  C   UNL     1      -4.353 -10.843  17.169  0.00  0.00    +0.055 C 
ATOM     12  C   UNL     1      -6.665 -12.572  18.047  0.00  0.00    +0.072 C 
ATOM     13  C   UNL     1      -5.379 -13.139  17.407  0.00  0.00    +0.024 C 
ATOM     14  C   UNL     1      -4.232 -12.066  19.329  0.00  0.00    +0.019 C 
ATOM     15  C   UNL     1      -5.797 -10.365  17.496  0.00  0.00    +0.094 C 
ATOM     16  C   UNL     1      -5.501 -11.278  19.699  0.00  0.00    +0.085 C 
ENDROOT
BRANCH  11  18
ATOM      7  N   UNL     1      -2.723 -10.614  15.237  0.00  0.00    -0.270 N 
ATOM      9  N   UNL     1      -2.629 -10.452  13.906  0.00  0.00    -0.171 NA
ATOM     18  C   UNL     1      -4.006 -10.665  15.697  0.00  0.00    +0.044 A 
ATOM     19  C   UNL     1      -4.808 -10.527  14.590  0.00  0.00    +0.053 A 
ATOM     20  C   UNL     1      -3.906 -10.399  13.516  0.00  0.00    +0.093 A 
ATOM     21  C   UNL     1      -1.515 -10.712  16.023  0.00  0.00    +0.172 C 
BRANCH  20  22
ATOM     22  C   UNL     1      -4.241 -10.227  12.127  0.00  0.00    +0.003 A 
ATOM     24  C   UNL     1      -5.494  -9.732  11.768  0.00  0.00    +0.018 A 
ATOM     25  C   UNL     1      -3.312 -10.554  11.143  0.00  0.00    +0.011 A 
ATOM     28  C   UNL     1      -5.836  -9.558  10.416  0.00  0.00    -0.017 A 
ATOM     29  C   UNL     1      -3.635 -10.387   9.796  0.00  0.00    +0.009 A 
ATOM     30  C   UNL     1      -4.892  -9.890   9.415  0.00  0.00    -0.018 A 
ATOM     34  C   UNL     1      -7.093  -9.060  10.036  0.00  0.00    +0.008 A 
ATOM     35  C   UNL     1      -5.233  -9.715   8.065  0.00  0.00    +0.008 A 
ATOM     36  C   UNL     1      -7.416  -8.894   8.690  0.00  0.00    +0.001 A 
ATOM     37  C   UNL     1      -6.488  -9.221   7.705  0.00  0.00    +0.001 A 
ENDBRANCH  20  22
ENDBRANCH  11  18
BRANCH  12  17
ATOM     17  C   UNL     1      -7.860 -12.653  17.095  0.00  0.00    +0.124 C 
BRANCH  17   8
ATOM      8  N   UNL     1      -7.474 -13.422  15.899  0.00  0.00    -0.188 NA
ATOM     40  H   UNL     1      -6.556 -13.879  15.924  0.00  0.00    +0.148 HD
BRANCH   8   1
ATOM      1  S   UNL     1      -8.053 -12.964  14.365  0.00  0.00    +0.062 S 
ATOM      2  O   UNL     1      -8.237 -11.525  14.331  0.00  0.00    -0.153 OA
ATOM      3  O   UNL     1      -9.140 -13.847  13.985  0.00  0.00    -0.153 OA
BRANCH   1  23
ATOM     23  C   UNL     1      -6.679 -13.362  13.327  0.00  0.00    +0.150 A 
ATOM     26  C   UNL     1      -6.733 -13.142  11.951  0.00  0.00    +0.147 A 
ATOM     27  C   UNL     1      -5.529 -13.904  13.902  0.00  0.00    +0.077 A 
ATOM     31  C   UNL     1      -4.433 -14.225  13.100  0.00  0.00    +0.122 A 
ATOM     32  C   UNL     1      -5.638 -13.464  11.148  0.00  0.00    +0.051 A 
ATOM     33  C   UNL     1      -4.489 -14.005  11.724  0.00  0.00    +0.049 A 
BRANCH  26   4
ATOM      4  O   UNL     1      -7.846 -12.614  11.368  0.00  0.00    -0.493 OA
ATOM     38  C   UNL     1      -7.918 -12.665   9.945  0.00  0.00    +0.277 C 
ENDBRANCH  26   4
BRANCH  31   5
ATOM      5  O   UNL     1      -3.311 -14.753  13.660  0.00  0.00    -0.495 OA
ATOM     39  C   UNL     1      -2.117 -13.978  13.574  0.00  0.00    +0.277 C 
ENDBRANCH  31   5
ENDBRANCH   1  23
ENDBRANCH   8   1
ENDBRANCH  17   8
ENDBRANCH  12  17
TORSDOF 8
ENDMDL
MODEL 5
REMARK VINA RESULT:      -6.1      2.700      5.356
REMARK  Name = 40779467
REMARK  11 active torsions:
REMARK  status: ('A' for Active; 'I' for Inactive)
REMARK    1  A    between atoms: S_1  and  N_8
REMARK    2  A    between atoms: S_1  and  C_23
REMARK    3  A    between atoms: O_4  and  C_26
REMARK    4  A    between atoms: O_4  and  C_38
REMARK    5  A    between atoms: O_5  and  C_31
REMARK    6  A    between atoms: O_5  and  C_39
REMARK    7  A    between atoms: N_7  and  C_21
REMARK    8  A    between atoms: N_8  and  C_17
REMARK    9  A    between atoms: C_11  and  C_18
REMARK   10  A    between atoms: C_12  and  C_17
REMARK   11  A    between atoms: C_20  and  C_22
REMARK                            x       y       z     vdW  Elec       q    Type
REMARK                         _______ _______ _______ _____ _____    ______ ____
ROOT
ATOM      6  N   UNL     1      -5.206 -12.703  17.000  0.00  0.00    -0.297 NA
ATOM     10  C   UNL     1      -5.660 -10.740  18.650  0.00  0.00    +0.002 C 
ATOM     11  C   UNL     1      -6.988 -11.453  18.274  0.00  0.00    +0.055 C 
ATOM     12  C   UNL     1      -4.537 -11.468  16.515  0.00  0.00    +0.072 C 
ATOM     13  C   UNL     1      -4.962 -10.250  17.363  0.00  0.00    +0.024 C 
ATOM     14  C   UNL     1      -4.744 -11.810  19.282  0.00  0.00    +0.019 C 
ATOM     15  C   UNL     1      -6.665 -12.470  17.142  0.00  0.00    +0.094 C 
ATOM     16  C   UNL     1      -4.656 -13.023  18.339  0.00  0.00    +0.085 C 
ENDROOT
BRANCH  11  18
ATOM      7  N   UNL     1      -9.340 -10.596  18.691  0.00  0.00    -0.270 N 
ATOM      9  N   UNL     1     -10.292  -9.763  18.234  0.00  0.00    -0.171 NA
ATOM     18  C   UNL     1      -8.198 -10.589  17.946  0.00  0.00    +0.044 A 
ATOM     19  C   UNL     1      -8.417  -9.690  16.931  0.00  0.00    +0.053 A 
ATOM     20  C   UNL     1      -9.722  -9.213  17.159  0.00  0.00    +0.093 A 
ATOM     21  C   UNL     1      -9.602 -11.387  19.871  0.00  0.00    +0.172 C 
BRANCH  20  22
ATOM     22  C   UNL     1     -10.435  -8.242  16.369  0.00  0.00    +0.003 A 
ATOM     24  C   UNL     1     -10.905  -8.585  15.102  0.00  0.00    +0.018 A 
ATOM     25  C   UNL     1     -10.654  -6.963  16.873  0.00  0.00    +0.011 A 
ATOM     28  C   UNL     1     -11.602  -7.649  14.319  0.00  0.00    -0.017 A 
ATOM     29  C   UNL     1     -11.345  -6.022  16.109  0.00  0.00    +0.009 A 
ATOM     30  C   UNL     1     -11.826  -6.348  14.831  0.00  0.00    -0.018 A 
ATOM     34  C   UNL     1     -12.083  -7.977  13.041  0.00  0.00    +0.008 A 
ATOM     35  C   UNL     1     -12.523  -5.414  14.048  0.00  0.00    +0.008 A 
ATOM     36  C   UNL     1     -12.773  -7.036  12.277  0.00  0.00    +0.001 A 
ATOM     37  C   UNL     1     -12.993  -5.756  12.779  0.00  0.00    +0.001 A 
ENDBRANCH  20  22
ENDBRANCH  11  18
BRANCH  12  17
ATOM     17  C   UNL     1      -4.765 -11.230  15.021  0.00  0.00    +0.124 C 
BRANCH  17   8
ATOM      8  N   UNL     1      -3.713 -10.336  14.508  0.00  0.00    -0.188 NA
ATOM     40  H   UNL     1      -4.022  -9.431  14.136  0.00  0.00    +0.148 HD
BRANCH   8   1
ATOM      1  S   UNL     1      -2.288 -10.986  13.840  0.00  0.00    +0.062 S 
ATOM      2  O   UNL     1      -1.721 -11.950  14.764  0.00  0.00    -0.153 OA
ATOM      3  O   UNL     1      -1.470  -9.905  13.322  0.00  0.00    -0.153 OA
BRANCH   1  23
ATOM     23  C   UNL     1      -2.915 -11.873  12.445  0.00  0.00    +0.150 A 
ATOM     26  C   UNL     1      -3.552 -11.205  11.400  0.00  0.00    +0.147 A 
ATOM     27  C   UNL     1      -2.767 -13.259  12.400  0.00  0.00    +0.077 A 
ATOM     31  C   UNL     1      -3.255 -13.977  11.308  0.00  0.00    +0.122 A 
ATOM     32  C   UNL     1      -4.041 -11.922  10.308  0.00  0.00    +0.051 A 
ATOM     33  C   UNL     1      -3.892 -13.308  10.262  0.00  0.00    +0.049 A 
BRANCH  26   4
ATOM      4  O   UNL     1      -3.708  -9.851  11.424  0.00  0.00    -0.493 OA
ATOM     38  C   UNL     1      -3.502  -9.154  10.196  0.00  0.00    +0.277 C 
ENDBRANCH  26   4
BRANCH  31   5
ATOM      5  O   UNL     1      -3.110 -15.330  11.262  0.00  0.00    -0.495 OA
ATOM     39  C   UNL     1      -2.859 -15.998  12.496  0.00  0.00    +0.277 C 
ENDBRANCH  31   5
ENDBRANCH   1  23
ENDBRANCH   8   1
ENDBRANCH  17   8
ENDBRANCH  12  17
TORSDOF 8
ENDMDL
MODEL 6
REMARK VINA RESULT:      -6.0      2.715      4.704
REMARK  Name = 40779467
REMARK  11 active torsions:
REMARK  status: ('A' for Active; 'I' for Inactive)
REMARK    1  A    between atoms: S_1  and  N_8
REMARK    2  A    between atoms: S_1  and  C_23
REMARK    3  A    between atoms: O_4  and  C_26
REMARK    4  A    between atoms: O_4  and  C_38
REMARK    5  A    between atoms: O_5  and  C_31
REMARK    6  A    between atoms: O_5  and  C_39
REMARK    7  A    between atoms: N_7  and  C_21
REMARK    8  A    between atoms: N_8  and  C_17
REMARK    9  A    between atoms: C_11  and  C_18
REMARK   10  A    between atoms: C_12  and  C_17
REMARK   11  A    between atoms: C_20  and  C_22
REMARK                            x       y       z     vdW  Elec       q    Type
REMARK                         _______ _______ _______ _____ _____    ______ ____
ROOT
ATOM      6  N   UNL     1      -6.114 -10.321  18.037  0.00  0.00    -0.297 NA
ATOM     10  C   UNL     1      -4.748 -12.280  16.997  0.00  0.00    +0.002 C 
ATOM     11  C   UNL     1      -4.182 -10.911  16.525  0.00  0.00    +0.055 C 
ATOM     12  C   UNL     1      -7.035 -11.312  17.422  0.00  0.00    +0.072 C 
ATOM     13  C   UNL     1      -6.243 -12.370  16.624  0.00  0.00    +0.024 C 
ATOM     14  C   UNL     1      -4.664 -12.288  18.538  0.00  0.00    +0.019 C 
ATOM     15  C   UNL     1      -5.164  -9.809  17.018  0.00  0.00    +0.094 C 
ATOM     16  C   UNL     1      -5.334 -11.017  19.089  0.00  0.00    +0.085 C 
ENDROOT
BRANCH  11  18
ATOM      7  N   UNL     1      -2.544 -10.598  14.612  0.00  0.00    -0.270 N 
ATOM      9  N   UNL     1      -2.441 -10.471  13.278  0.00  0.00    -0.171 NA
ATOM     18  C   UNL     1      -3.826 -10.751  15.054  0.00  0.00    +0.044 A 
ATOM     19  C   UNL     1      -4.616 -10.722  13.931  0.00  0.00    +0.053 A 
ATOM     20  C   UNL     1      -3.710 -10.547  12.868  0.00  0.00    +0.093 A 
ATOM     21  C   UNL     1      -1.347 -10.560  15.419  0.00  0.00    +0.172 C 
BRANCH  20  22
ATOM     22  C   UNL     1      -4.033 -10.451  11.468  0.00  0.00    +0.003 A 
ATOM     24  C   UNL     1      -3.973 -11.585  10.659  0.00  0.00    +0.018 A 
ATOM     25  C   UNL     1      -4.408  -9.225  10.924  0.00  0.00    +0.011 A 
ATOM     28  C   UNL     1      -4.286 -11.508   9.292  0.00  0.00    -0.017 A 
ATOM     29  C   UNL     1      -4.722  -9.131   9.568  0.00  0.00    +0.009 A 
ATOM     30  C   UNL     1      -4.666 -10.262   8.738  0.00  0.00    -0.018 A 
ATOM     34  C   UNL     1      -4.231 -12.640   8.462  0.00  0.00    +0.008 A 
ATOM     35  C   UNL     1      -4.980 -10.185   7.371  0.00  0.00    +0.008 A 
ATOM     36  C   UNL     1      -4.545 -12.545   7.106  0.00  0.00    +0.001 A 
ATOM     37  C   UNL     1      -4.919 -11.320   6.561  0.00  0.00    +0.001 A 
ENDBRANCH  20  22
ENDBRANCH  11  18
BRANCH  12  17
ATOM     17  C   UNL     1      -8.120 -10.650  16.571  0.00  0.00    +0.124 C 
BRANCH  17   8
ATOM      8  N   UNL     1      -8.289 -11.413  15.323  0.00  0.00    -0.188 NA
ATOM     40  H   UNL     1      -7.434 -11.630  14.799  0.00  0.00    +0.148 HD
BRANCH   8   1
ATOM      1  S   UNL     1      -9.720 -11.259  14.413  0.00  0.00    +0.062 S 
ATOM      2  O   UNL     1     -10.443 -10.080  14.852  0.00  0.00    -0.153 OA
ATOM      3  O   UNL     1     -10.388 -12.546  14.357  0.00  0.00    -0.153 OA
BRANCH   1  23
ATOM     23  C   UNL     1      -9.085 -10.937  12.795  0.00  0.00    +0.150 A 
ATOM     26  C   UNL     1      -8.056 -11.713  12.262  0.00  0.00    +0.147 A 
ATOM     27  C   UNL     1      -9.627  -9.890  12.049  0.00  0.00    +0.077 A 
ATOM     31  C   UNL     1      -9.140  -9.619  10.770  0.00  0.00    +0.122 A 
ATOM     32  C   UNL     1      -7.568 -11.442  10.983  0.00  0.00    +0.051 A 
ATOM     33  C   UNL     1      -8.111 -10.395  10.238  0.00  0.00    +0.049 A 
BRANCH  26   4
ATOM      4  O   UNL     1      -7.512 -12.740  12.972  0.00  0.00    -0.493 OA
ATOM     38  C   UNL     1      -6.655 -13.634  12.265  0.00  0.00    +0.277 C 
ENDBRANCH  26   4
BRANCH  31   5
ATOM      5  O   UNL     1      -9.669  -8.598  10.042  0.00  0.00    -0.495 OA
ATOM     39  C   UNL     1      -8.831  -8.005   9.052  0.00  0.00    +0.277 C 
ENDBRANCH  31   5
ENDBRANCH   1  23
ENDBRANCH   8   1
ENDBRANCH  17   8
ENDBRANCH  12  17
TORSDOF 8
ENDMDL
MODEL 7
REMARK VINA RESULT:      -5.9     24.086     26.622
REMARK  Name = 40779467
REMARK  11 active torsions:
REMARK  status: ('A' for Active; 'I' for Inactive)
REMARK    1  A    between atoms: S_1  and  N_8
REMARK    2  A    between atoms: S_1  and  C_23
REMARK    3  A    between atoms: O_4  and  C_26
REMARK    4  A    between atoms: O_4  and  C_38
REMARK    5  A    between atoms: O_5  and  C_31
REMARK    6  A    between atoms: O_5  and  C_39
REMARK    7  A    between atoms: N_7  and  C_21
REMARK    8  A    between atoms: N_8  and  C_17
REMARK    9  A    between atoms: C_11  and  C_18
REMARK   10  A    between atoms: C_12  and  C_17
REMARK   11  A    between atoms: C_20  and  C_22
REMARK                            x       y       z     vdW  Elec       q    Type
REMARK                         _______ _______ _______ _____ _____    ______ ____
ROOT
ATOM      6  N   UNL     1      10.012   7.457   7.399  0.00  0.00    -0.297 NA
ATOM     10  C   UNL     1       9.563   5.203   6.174  0.00  0.00    +0.002 C 
ATOM     11  C   UNL     1      10.895   5.833   5.682  0.00  0.00    +0.055 C 
ATOM     12  C   UNL     1       8.628   7.441   6.857  0.00  0.00    +0.072 C 
ATOM     13  C   UNL     1       8.412   6.207   5.955  0.00  0.00    +0.024 C 
ATOM     14  C   UNL     1       9.703   5.001   7.698  0.00  0.00    +0.019 C 
ATOM     15  C   UNL     1      10.991   7.257   6.301  0.00  0.00    +0.094 C 
ATOM     16  C   UNL     1      10.143   6.325   8.347  0.00  0.00    +0.085 C 
ENDROOT
BRANCH  11  18
ATOM      7  N   UNL     1      12.204   6.537   3.625  0.00  0.00    -0.270 N 
ATOM      9  N   UNL     1      12.286   6.406   2.289  0.00  0.00    -0.171 NA
ATOM     18  C   UNL     1      11.180   5.833   4.187  0.00  0.00    +0.044 A 
ATOM     19  C   UNL     1      10.547   5.198   3.147  0.00  0.00    +0.053 A 
ATOM     20  C   UNL     1      11.270   5.587   2.003  0.00  0.00    +0.093 A 
ATOM     21  C   UNL     1      13.161   7.374   4.311  0.00  0.00    +0.172 C 
BRANCH  20  22
ATOM     22  C   UNL     1      11.010   5.191   0.643  0.00  0.00    +0.003 A 
ATOM     24  C   UNL     1      11.797   4.211   0.039  0.00  0.00    +0.018 A 
ATOM     25  C   UNL     1       9.971   5.787  -0.066  0.00  0.00    +0.011 A 
ATOM     28  C   UNL     1      11.556   3.814  -1.286  0.00  0.00    -0.017 A 
ATOM     29  C   UNL     1       9.717   5.404  -1.384  0.00  0.00    +0.009 A 
ATOM     30  C   UNL     1      10.499   4.420  -2.008  0.00  0.00    -0.018 A 
ATOM     34  C   UNL     1      12.338   2.829  -1.910  0.00  0.00    +0.008 A 
ATOM     35  C   UNL     1      10.258   4.022  -3.333  0.00  0.00    +0.008 A 
ATOM     36  C   UNL     1      12.084   2.447  -3.228  0.00  0.00    +0.001 A 
ATOM     37  C   UNL     1      11.046   3.042  -3.938  0.00  0.00    +0.001 A 
ENDBRANCH  20  22
ENDBRANCH  11  18
BRANCH  12  17
ATOM     17  C   UNL     1       8.268   8.743   6.139  0.00  0.00    +0.124 C 
BRANCH  17   8
ATOM      8  N   UNL     1       7.837   8.434   4.765  0.00  0.00    -0.188 NA
ATOM     40  H   UNL     1       7.588   7.458   4.571  0.00  0.00    +0.148 HD
BRANCH   8   1
ATOM      1  S   UNL     1       8.440   9.339   3.455  0.00  0.00    +0.062 S 
ATOM      2  O   UNL     1       9.364   8.522   2.692  0.00  0.00    -0.153 OA
ATOM      3  O   UNL     1       8.846  10.649   3.930  0.00  0.00    -0.153 OA
BRANCH   1  23
ATOM     23  C   UNL     1       6.985   9.573   2.478  0.00  0.00    +0.150 A 
ATOM     26  C   UNL     1       5.801  10.030   3.055  0.00  0.00    +0.147 A 
ATOM     27  C   UNL     1       7.033   9.293   1.112  0.00  0.00    +0.077 A 
ATOM     31  C   UNL     1       5.896   9.471   0.323  0.00  0.00    +0.122 A 
ATOM     32  C   UNL     1       4.663  10.207   2.267  0.00  0.00    +0.051 A 
ATOM     33  C   UNL     1       4.712   9.928   0.901  0.00  0.00    +0.049 A 
BRANCH  26   4
ATOM      4  O   UNL     1       5.732  10.309   4.387  0.00  0.00    -0.493 OA
ATOM     38  C   UNL     1       5.412  11.651   4.751  0.00  0.00    +0.277 C 
ENDBRANCH  26   4
BRANCH  31   5
ATOM      5  O   UNL     1       5.942   9.200  -1.010  0.00  0.00    -0.495 OA
ATOM     39  C   UNL     1       4.698   8.976  -1.670  0.00  0.00    +0.277 C 
ENDBRANCH  31   5
ENDBRANCH   1  23
ENDBRANCH   8   1
ENDBRANCH  17   8
ENDBRANCH  12  17
TORSDOF 8
ENDMDL
MODEL 8
REMARK VINA RESULT:      -5.9      2.606      5.257
REMARK  Name = 40779467
REMARK  11 active torsions:
REMARK  status: ('A' for Active; 'I' for Inactive)
REMARK    1  A    between atoms: S_1  and  N_8
REMARK    2  A    between atoms: S_1  and  C_23
REMARK    3  A    between atoms: O_4  and  C_26
REMARK    4  A    between atoms: O_4  and  C_38
REMARK    5  A    between atoms: O_5  and  C_31
REMARK    6  A    between atoms: O_5  and  C_39
REMARK    7  A    between atoms: N_7  and  C_21
REMARK    8  A    between atoms: N_8  and  C_17
REMARK    9  A    between atoms: C_11  and  C_18
REMARK   10  A    between atoms: C_12  and  C_17
REMARK   11  A    between atoms: C_20  and  C_22
REMARK                            x       y       z     vdW  Elec       q    Type
REMARK                         _______ _______ _______ _____ _____    ______ ____
ROOT
ATOM      6  N   UNL     1      -4.963 -12.724  17.223  0.00  0.00    -0.297 NA
ATOM     10  C   UNL     1      -5.508 -10.709  18.782  0.00  0.00    +0.002 C 
ATOM     11  C   UNL     1      -6.805 -11.489  18.427  0.00  0.00    +0.055 C 
ATOM     12  C   UNL     1      -4.337 -11.486  16.690  0.00  0.00    +0.072 C 
ATOM     13  C   UNL     1      -4.817 -10.249  17.480  0.00  0.00    +0.024 C 
ATOM     14  C   UNL     1      -4.559 -11.715  19.468  0.00  0.00    +0.019 C 
ATOM     15  C   UNL     1      -6.431 -12.541  17.343  0.00  0.00    +0.094 C 
ATOM     16  C   UNL     1      -4.414 -12.963  18.580  0.00  0.00    +0.085 C 
ENDROOT
BRANCH  11  18
ATOM      7  N   UNL     1      -9.241 -10.828  18.690  0.00  0.00    -0.270 N 
ATOM      9  N   UNL     1     -10.210 -10.031  18.208  0.00  0.00    -0.171 NA
ATOM     18  C   UNL     1      -8.044 -10.688  18.051  0.00  0.00    +0.044 A 
ATOM     19  C   UNL     1      -8.243  -9.734  17.084  0.00  0.00    +0.053 A 
ATOM     20  C   UNL     1      -9.595  -9.365  17.226  0.00  0.00    +0.093 A 
ATOM     21  C   UNL     1      -9.541 -11.719  19.786  0.00  0.00    +0.172 C 
BRANCH  20  22
ATOM     22  C   UNL     1     -10.309  -8.390  16.443  0.00  0.00    +0.003 A 
ATOM     24  C   UNL     1     -10.811  -8.736  15.190  0.00  0.00    +0.018 A 
ATOM     25  C   UNL     1     -10.497  -7.104  16.940  0.00  0.00    +0.011 A 
ATOM     28  C   UNL     1     -11.511  -7.797  14.414  0.00  0.00    -0.017 A 
ATOM     29  C   UNL     1     -11.189  -6.158  16.183  0.00  0.00    +0.009 A 
ATOM     30  C   UNL     1     -11.703  -6.488  14.918  0.00  0.00    -0.018 A 
ATOM     34  C   UNL     1     -12.024  -8.127  13.150  0.00  0.00    +0.008 A 
ATOM     35  C   UNL     1     -12.402  -5.549  14.143  0.00  0.00    +0.008 A 
ATOM     36  C   UNL     1     -12.716  -7.182  12.392  0.00  0.00    +0.001 A 
ATOM     37  C   UNL     1     -12.905  -5.895  12.888  0.00  0.00    +0.001 A 
ENDBRANCH  20  22
ENDBRANCH  11  18
BRANCH  12  17
ATOM     17  C   UNL     1      -4.560 -11.322  15.185  0.00  0.00    +0.124 C 
BRANCH  17   8
ATOM      8  N   UNL     1      -3.705 -12.280  14.463  0.00  0.00    -0.188 NA
ATOM     40  H   UNL     1      -3.576 -13.200  14.899  0.00  0.00    +0.148 HD
BRANCH   8   1
ATOM      1  S   UNL     1      -2.429 -11.718  13.484  0.00  0.00    +0.062 S 
ATOM      2  O   UNL     1      -1.313 -12.640  13.575  0.00  0.00    -0.153 OA
ATOM      3  O   UNL     1      -2.228 -10.303  13.732  0.00  0.00    -0.153 OA
BRANCH   1  23
ATOM     23  C   UNL     1      -3.125 -11.864  11.866  0.00  0.00    +0.150 A 
ATOM     26  C   UNL     1      -3.507 -13.106  11.360  0.00  0.00    +0.147 A 
ATOM     27  C   UNL     1      -3.290 -10.715  11.092  0.00  0.00    +0.077 A 
ATOM     31  C   UNL     1      -3.838 -10.809   9.812  0.00  0.00    +0.122 A 
ATOM     32  C   UNL     1      -4.054 -13.201  10.080  0.00  0.00    +0.051 A 
ATOM     33  C   UNL     1      -4.219 -12.052   9.307  0.00  0.00    +0.049 A 
BRANCH  26   4
ATOM      4  O   UNL     1      -3.354 -14.242  12.099  0.00  0.00    -0.493 OA
ATOM     38  C   UNL     1      -2.560 -15.281  11.531  0.00  0.00    +0.277 C 
ENDBRANCH  26   4
BRANCH  31   5
ATOM      5  O   UNL     1      -4.001  -9.689   9.057  0.00  0.00    -0.495 OA
ATOM     39  C   UNL     1      -5.191  -9.599   8.277  0.00  0.00    +0.277 C 
ENDBRANCH  31   5
ENDBRANCH   1  23
ENDBRANCH   8   1
ENDBRANCH  17   8
ENDBRANCH  12  17
TORSDOF 8
ENDMDL
MODEL 9
REMARK VINA RESULT:      -5.8     21.740     25.429
REMARK  Name = 40779467
REMARK  11 active torsions:
REMARK  status: ('A' for Active; 'I' for Inactive)
REMARK    1  A    between atoms: S_1  and  N_8
REMARK    2  A    between atoms: S_1  and  C_23
REMARK    3  A    between atoms: O_4  and  C_26
REMARK    4  A    between atoms: O_4  and  C_38
REMARK    5  A    between atoms: O_5  and  C_31
REMARK    6  A    between atoms: O_5  and  C_39
REMARK    7  A    between atoms: N_7  and  C_21
REMARK    8  A    between atoms: N_8  and  C_17
REMARK    9  A    between atoms: C_11  and  C_18
REMARK   10  A    between atoms: C_12  and  C_17
REMARK   11  A    between atoms: C_20  and  C_22
REMARK                            x       y       z     vdW  Elec       q    Type
REMARK                         _______ _______ _______ _____ _____    ______ ____
ROOT
ATOM      6  N   UNL     1       5.586  -3.679  38.201  0.00  0.00    -0.297 NA
ATOM     10  C   UNL     1       7.981  -4.700  38.274  0.00  0.00    +0.002 C 
ATOM     11  C   UNL     1       7.629  -4.243  36.832  0.00  0.00    +0.055 C 
ATOM     12  C   UNL     1       5.556  -4.995  38.892  0.00  0.00    +0.072 C 
ATOM     13  C   UNL     1       6.920  -5.708  38.764  0.00  0.00    +0.024 C 
ATOM     14  C   UNL     1       7.871  -3.452  39.176  0.00  0.00    +0.019 C 
ATOM     15  C   UNL     1       6.127  -3.838  36.828  0.00  0.00    +0.094 C 
ATOM     16  C   UNL     1       6.499  -2.789  38.958  0.00  0.00    +0.085 C 
ENDROOT
BRANCH  11  18
ATOM      7  N   UNL     1       9.233  -5.264  35.152  0.00  0.00    -0.270 N 
ATOM      9  N   UNL     1       9.335  -6.142  34.139  0.00  0.00    -0.171 NA
ATOM     18  C   UNL     1       7.979  -5.173  35.678  0.00  0.00    +0.044 A 
ATOM     19  C   UNL     1       7.205  -6.052  34.960  0.00  0.00    +0.053 A 
ATOM     20  C   UNL     1       8.092  -6.620  34.026  0.00  0.00    +0.093 A 
ATOM     21  C   UNL     1      10.405  -4.530  35.569  0.00  0.00    +0.172 C 
BRANCH  20  22
ATOM     22  C   UNL     1       7.776  -7.609  33.029  0.00  0.00    +0.003 A 
ATOM     24  C   UNL     1       8.650  -8.671  32.798  0.00  0.00    +0.018 A 
ATOM     25  C   UNL     1       6.596  -7.505  32.298  0.00  0.00    +0.011 A 
ATOM     28  C   UNL     1       8.356  -9.645  31.830  0.00  0.00    -0.017 A 
ATOM     29  C   UNL     1       6.288  -8.463  31.331  0.00  0.00    +0.009 A 
ATOM     30  C   UNL     1       7.156  -9.539  31.085  0.00  0.00    -0.018 A 
ATOM     34  C   UNL     1       9.224 -10.720  31.584  0.00  0.00    +0.008 A 
ATOM     35  C   UNL     1       6.862 -10.513  30.117  0.00  0.00    +0.008 A 
ATOM     36  C   UNL     1       8.916 -11.678  30.618  0.00  0.00    +0.001 A 
ATOM     37  C   UNL     1       7.737 -11.575  29.885  0.00  0.00    +0.001 A 
ENDBRANCH  20  22
ENDBRANCH  11  18
BRANCH  12  17
ATOM     17  C   UNL     1       4.404  -5.879  38.413  0.00  0.00    +0.124 C 
BRANCH  17   8
ATOM      8  N   UNL     1       4.953  -7.061  37.728  0.00  0.00    -0.188 NA
ATOM     40  H   UNL     1       5.349  -6.908  36.794  0.00  0.00    +0.148 HD
BRANCH   8   1
ATOM      1  S   UNL     1       4.305  -8.606  38.035  0.00  0.00    +0.062 S 
ATOM      2  O   UNL     1       2.865  -8.564  37.866  0.00  0.00    -0.153 OA
ATOM      3  O   UNL     1       4.880  -9.127  39.260  0.00  0.00    -0.153 OA
BRANCH   1  23
ATOM     23  C   UNL     1       4.982  -9.552  36.704  0.00  0.00    +0.150 A 
ATOM     26  C   UNL     1       6.343  -9.498  36.407  0.00  0.00    +0.147 A 
ATOM     27  C   UNL     1       4.134 -10.360  35.946  0.00  0.00    +0.077 A 
ATOM     31  C   UNL     1       4.649 -11.115  34.891  0.00  0.00    +0.122 A 
ATOM     32  C   UNL     1       6.858 -10.251  35.352  0.00  0.00    +0.051 A 
ATOM     33  C   UNL     1       6.011 -11.060  34.595  0.00  0.00    +0.049 A 
BRANCH  26   4
ATOM      4  O   UNL     1       7.189  -8.715  37.134  0.00  0.00    -0.493 OA
ATOM     38  C   UNL     1       8.588  -8.922  36.942  0.00  0.00    +0.277 C 
ENDBRANCH  26   4
BRANCH  31   5
ATOM      5  O   UNL     1       3.823 -11.905  34.152  0.00  0.00    -0.495 OA
ATOM     39  C   UNL     1       2.776 -12.578  34.847  0.00  0.00    +0.277 C 
ENDBRANCH  31   5
ENDBRANCH   1  23
ENDBRANCH   8   1
ENDBRANCH  17   8
ENDBRANCH  12  17
TORSDOF 8
ENDMDL
MODEL 10
REMARK VINA RESULT:      -5.8      2.164      3.111
REMARK  Name = 40779467
REMARK  11 active torsions:
REMARK  status: ('A' for Active; 'I' for Inactive)
REMARK    1  A    between atoms: S_1  and  N_8
REMARK    2  A    between atoms: S_1  and  C_23
REMARK    3  A    between atoms: O_4  and  C_26
REMARK    4  A    between atoms: O_4  and  C_38
REMARK    5  A    between atoms: O_5  and  C_31
REMARK    6  A    between atoms: O_5  and  C_39
REMARK    7  A    between atoms: N_7  and  C_21
REMARK    8  A    between atoms: N_8  and  C_17
REMARK    9  A    between atoms: C_11  and  C_18
REMARK   10  A    between atoms: C_12  and  C_17
REMARK   11  A    between atoms: C_20  and  C_22
REMARK                            x       y       z     vdW  Elec       q    Type
REMARK                         _______ _______ _______ _____ _____    ______ ____
ROOT
ATOM      6  N   UNL     1      -9.957 -12.459  18.765  0.00  0.00    -0.297 NA
ATOM     10  C   UNL     1      -9.808  -9.919  18.210  0.00  0.00    +0.002 C 
ATOM     11  C   UNL     1     -10.382 -10.707  17.000  0.00  0.00    +0.055 C 
ATOM     12  C   UNL     1      -8.603 -11.946  19.099  0.00  0.00    +0.072 C 
ATOM     13  C   UNL     1      -8.429 -10.499  18.589  0.00  0.00    +0.024 C 
ATOM     14  C   UNL     1     -10.753 -10.183  19.402  0.00  0.00    +0.019 C 
ATOM     15  C   UNL     1     -10.251 -12.222  17.329  0.00  0.00    +0.094 C 
ATOM     16  C   UNL     1     -10.944 -11.701  19.571  0.00  0.00    +0.085 C 
ENDROOT
BRANCH  11  18
ATOM      7  N   UNL     1     -10.415  -9.409  14.820  0.00  0.00    -0.270 N 
ATOM      9  N   UNL     1      -9.808  -9.266  13.629  0.00  0.00    -0.171 NA
ATOM     18  C   UNL     1      -9.859 -10.371  15.611  0.00  0.00    +0.044 A 
ATOM     19  C   UNL     1      -8.815 -10.894  14.888  0.00  0.00    +0.053 A 
ATOM     20  C   UNL     1      -8.831 -10.176  13.677  0.00  0.00    +0.093 A 
ATOM     21  C   UNL     1     -11.550  -8.573  15.137  0.00  0.00    +0.172 C 
BRANCH  20  22
ATOM     22  C   UNL     1      -7.931 -10.344  12.565  0.00  0.00    +0.003 A 
ATOM     24  C   UNL     1      -6.983  -9.361  12.281  0.00  0.00    +0.018 A 
ATOM     25  C   UNL     1      -8.008 -11.488  11.775  0.00  0.00    +0.011 A 
ATOM     28  C   UNL     1      -6.098  -9.510  11.200  0.00  0.00    -0.017 A 
ATOM     29  C   UNL     1      -7.138 -11.651  10.698  0.00  0.00    +0.009 A 
ATOM     30  C   UNL     1      -6.177 -10.673  10.397  0.00  0.00    -0.018 A 
ATOM     34  C   UNL     1      -5.138  -8.531  10.900  0.00  0.00    +0.008 A 
ATOM     35  C   UNL     1      -5.292 -10.821   9.317  0.00  0.00    +0.008 A 
ATOM     36  C   UNL     1      -4.267  -8.695   9.822  0.00  0.00    +0.001 A 
ATOM     37  C   UNL     1      -4.343  -9.838   9.032  0.00  0.00    +0.001 A 
ENDBRANCH  20  22
ENDBRANCH  11  18
BRANCH  12  17
ATOM     17  C   UNL     1      -7.490 -12.866  18.597  0.00  0.00    +0.124 C 
BRANCH  17   8
ATOM      8  N   UNL     1      -6.573 -12.094  17.742  0.00  0.00    -0.188 NA
ATOM     40  H   UNL     1      -6.966 -11.710  16.876  0.00  0.00    +0.148 HD
BRANCH   8   1
ATOM      1  S   UNL     1      -4.909 -12.458  17.725  0.00  0.00    +0.062 S 
ATOM      2  O   UNL     1      -4.729 -13.889  17.877  0.00  0.00    -0.153 OA
ATOM      3  O   UNL     1      -4.213 -11.538  18.606  0.00  0.00    -0.153 OA
BRANCH   1  23
ATOM     23  C   UNL     1      -4.462 -12.025  16.070  0.00  0.00    +0.150 A 
ATOM     26  C   UNL     1      -5.225 -12.457  14.986  0.00  0.00    +0.147 A 
ATOM     27  C   UNL     1      -3.328 -11.240  15.857  0.00  0.00    +0.077 A 
ATOM     31  C   UNL     1      -2.958 -10.888  14.559  0.00  0.00    +0.122 A 
ATOM     32  C   UNL     1      -4.855 -12.106  13.688  0.00  0.00    +0.051 A 
ATOM     33  C   UNL     1      -3.722 -11.321  13.475  0.00  0.00    +0.049 A 
BRANCH  26   4
ATOM      4  O   UNL     1      -6.336 -13.225  15.172  0.00  0.00    -0.493 OA
ATOM     38  C   UNL     1      -6.333 -14.522  14.578  0.00  0.00    +0.277 C 
ENDBRANCH  26   4
BRANCH  31   5
ATOM      5  O   UNL     1      -1.853 -10.121  14.350  0.00  0.00    -0.495 OA
ATOM     39  C   UNL     1      -0.976  -9.931  15.458  0.00  0.00    +0.277 C 
ENDBRANCH  31   5
ENDBRANCH   1  23
ENDBRANCH   8   1
ENDBRANCH  17   8
ENDBRANCH  12  17
TORSDOF 8
ENDMDL
