REMARK  Name = 7144220
REMARK  7 active torsions:
REMARK  status: ('A' for Active; 'I' for Inactive)
REMARK    1  A    between atoms: S_1  and  C_27
REMARK    2  A    between atoms: S_1  and  C_28
REMARK    3  A    between atoms: N_6  and  C_20
REMARK    4  A    between atoms: N_6  and  C_25
REMARK    5  A    between atoms: N_6  and  C_26
REMARK    6  A    between atoms: C_14  and  C_19
REMARK    7  A    between atoms: C_16  and  C_20
REMARK                            x       y       z     vdW  Elec       q    Type
REMARK                         _______ _______ _______ _____ _____    ______ ____
ROOT
ATOM      2  O   UNL     1      -3.079   2.584   1.572  0.00  0.00    -0.268 OA
ATOM      3  O   UNL     1      -3.426  -2.489  -1.105  0.00  0.00    -0.274 OA
ATOM      4  N   UNL     1      -1.730  -0.993  -1.633  0.00  0.00    -0.299 N 
ATOM      5  N   UNL     1      -1.536   1.704   0.045  0.00  0.00    -0.311 N 
ATOM      7  C   UNL     1      -2.148   1.334  -2.417  0.00  0.00    +0.027 C 
ATOM      8  C   UNL     1       0.085   0.711  -1.601  0.00  0.00    +0.054 C 
ATOM      9  C   UNL     1      -0.659   1.516  -2.665  0.00  0.00    +0.018 C 
ATOM     10  C   UNL     1      -2.540  -0.150  -2.512  0.00  0.00    +0.113 C 
ATOM     11  C   UNL     1      -2.490   1.929  -1.050  0.00  0.00    +0.130 C 
ATOM     12  C   UNL     1      -0.280  -0.782  -1.738  0.00  0.00    +0.117 C 
ATOM     13  C   UNL     1      -0.238   1.207  -0.189  0.00  0.00    +0.034 A 
ATOM     14  C   UNL     1       0.660   1.157   0.829  0.00  0.00    +0.002 A 
ATOM     15  C   UNL     1      -1.964   2.130   1.315  0.00  0.00    +0.252 A 
ATOM     16  C   UNL     1      -2.348  -1.954  -0.834  0.00  0.00    +0.230 C 
ATOM     17  C   UNL     1       0.254   1.585   2.155  0.00  0.00    +0.015 A 
ATOM     18  C   UNL     1      -0.975   2.031   2.413  0.00  0.00    +0.071 A 
ENDROOT
BRANCH  14  19
ATOM     19  C   UNL     1       2.039   0.661   0.628  0.00  0.00    -0.016 A 
ATOM     21  C   UNL     1       2.315  -0.694   0.784  0.00  0.00    +0.009 A 
ATOM     22  C   UNL     1       3.051   1.553   0.286  0.00  0.00    +0.009 A 
ATOM     23  C   UNL     1       3.616  -1.161   0.595  0.00  0.00    +0.015 A 
ATOM     24  C   UNL     1       4.352   1.085   0.097  0.00  0.00    +0.015 A 
ATOM     27  C   UNL     1       4.634  -0.272   0.251  0.00  0.00    +0.008 A 
BRANCH  27   1
ATOM      1  S   UNL     1       6.295  -0.870   0.011  0.00  0.00    -0.129 S 
ATOM     28  C   UNL     1       6.070  -2.053  -1.346  0.00  0.00    +0.090 C 
ENDBRANCH  27   1
ENDBRANCH  14  19
BRANCH  16  20
ATOM     20  C   UNL     1      -1.635  -2.335   0.439  0.00  0.00    +0.180 C 
BRANCH  20   6
ATOM      6  N   UNL     1      -2.665  -2.702   1.386  0.00  0.00    -0.300 NA
ATOM     25  C   UNL     1      -3.579  -1.580   1.631  0.00  0.00    +0.105 C 
ATOM     26  C   UNL     1      -2.078  -3.152   2.655  0.00  0.00    +0.105 C 
ENDBRANCH  20   6
ENDBRANCH  16  20
TORSDOF 4
