MODEL 1
REMARK VINA RESULT:      -6.9      0.000      0.000
REMARK  Name = 40776831
REMARK  10 active torsions:
REMARK  status: ('A' for Active; 'I' for Inactive)
REMARK    1  A    between atoms: O_2  and  C_29
REMARK    2  A    between atoms: O_2  and  C_32
REMARK    3  A    between atoms: O_3  and  C_31
REMARK    4  A    between atoms: O_3  and  C_33
REMARK    5  A    between atoms: N_5  and  C_15
REMARK    6  A    between atoms: C_9  and  C_16
REMARK    7  A    between atoms: C_10  and  C_15
REMARK    8  A    between atoms: C_17  and  C_19
REMARK    9  A    between atoms: C_23  and  C_25
REMARK   10  A    between atoms: C_24  and  C_26
REMARK                            x       y       z     vdW  Elec       q    Type
REMARK                         _______ _______ _______ _____ _____    ______ ____
ROOT
ATOM      4  N   UNL     1      10.634   5.273   7.989  0.00  0.00    -0.297 NA
ATOM      8  C   UNL     1       9.290   7.340   7.152  0.00  0.00    +0.002 C 
ATOM      9  C   UNL     1       9.140   6.154   6.159  0.00  0.00    +0.055 C 
ATOM     10  C   UNL     1      11.497   6.483   8.012  0.00  0.00    +0.074 C 
ATOM     11  C   UNL     1      10.787   7.672   7.328  0.00  0.00    +0.024 C 
ATOM     12  C   UNL     1       8.771   6.844   8.519  0.00  0.00    +0.019 C 
ATOM     13  C   UNL     1      10.122   5.039   6.616  0.00  0.00    +0.094 C 
ATOM     14  C   UNL     1       9.475   5.524   8.879  0.00  0.00    +0.085 C 
ENDROOT
BRANCH   9  16
ATOM      6  N   UNL     1       8.606   7.543   4.217  0.00  0.00    -0.237 NA
ATOM      7  N   UNL     1       9.412   7.022   2.005  0.00  0.00    -0.232 NA
ATOM     16  C   UNL     1       9.251   6.446   4.669  0.00  0.00    +0.050 A 
ATOM     18  C   UNL     1       9.984   5.602   3.862  0.00  0.00    +0.052 A 
ATOM     23  C   UNL     1      10.031   5.942   2.525  0.00  0.00    +0.075 A 
ATOM     24  C   UNL     1       8.727   7.767   2.894  0.00  0.00    +0.127 A 
ATOM     26  C   UNL     1       8.028   8.970   2.356  0.00  0.00    +0.088 C 
BRANCH  23  25
ATOM     25  C   UNL     1      10.763   5.138   1.577  0.00  0.00    +0.004 A 
ATOM     27  C   UNL     1      11.876   4.408   1.993  0.00  0.00    +0.059 A 
ATOM     28  C   UNL     1      10.359   5.091   0.243  0.00  0.00    +0.014 A 
ATOM     29  C   UNL     1      12.584   3.631   1.078  0.00  0.00    +0.162 A 
ATOM     30  C   UNL     1      11.067   4.314  -0.674  0.00  0.00    +0.050 A 
ATOM     31  C   UNL     1      12.179   3.583  -0.256  0.00  0.00    +0.162 A 
BRANCH  29   2
ATOM      2  O   UNL     1      13.668   2.919   1.498  0.00  0.00    -0.491 OA
ATOM     32  C   UNL     1      14.882   3.643   1.690  0.00  0.00    +0.277 C 
ENDBRANCH  29   2
BRANCH  31   3
ATOM      3  O   UNL     1      12.863   2.828  -1.161  0.00  0.00    -0.491 OA
ATOM     33  C   UNL     1      12.111   2.264  -2.235  0.00  0.00    +0.277 C 
ENDBRANCH  31   3
ENDBRANCH  23  25
ENDBRANCH   9  16
BRANCH  10  15
ATOM     15  C   UNL     1      12.881   6.224   7.412  0.00  0.00    +0.123 C 
BRANCH  15   5
ATOM      1  O   UNL     1      15.212   7.515   6.343  0.00  0.00    -0.276 OA
ATOM      5  N   UNL     1      13.006   6.846   6.130  0.00  0.00    -0.314 N 
ATOM     19  C   UNL     1      14.175   7.457   5.675  0.00  0.00    +0.216 C 
ATOM     34  H   UNL     1      12.192   6.845   5.521  0.00  0.00    +0.149 HD
BRANCH  19  17
ATOM     17  C   UNL     1      14.053   8.062   4.264  0.00  0.00    +0.075 C 
ATOM     20  C   UNL     1      14.243   7.109   3.064  0.00  0.00    +0.013 C 
ATOM     21  C   UNL     1      12.631   8.329   3.727  0.00  0.00    +0.013 C 
ATOM     22  C   UNL     1      13.167   7.938   2.334  0.00  0.00    +0.001 C 
ENDBRANCH  19  17
ENDBRANCH  15   5
ENDBRANCH  10  15
TORSDOF 7
ENDMDL
MODEL 2
REMARK VINA RESULT:      -6.4     23.693     26.479
REMARK  Name = 40776831
REMARK  10 active torsions:
REMARK  status: ('A' for Active; 'I' for Inactive)
REMARK    1  A    between atoms: O_2  and  C_29
REMARK    2  A    between atoms: O_2  and  C_32
REMARK    3  A    between atoms: O_3  and  C_31
REMARK    4  A    between atoms: O_3  and  C_33
REMARK    5  A    between atoms: N_5  and  C_15
REMARK    6  A    between atoms: C_9  and  C_16
REMARK    7  A    between atoms: C_10  and  C_15
REMARK    8  A    between atoms: C_17  and  C_19
REMARK    9  A    between atoms: C_23  and  C_25
REMARK   10  A    between atoms: C_24  and  C_26
REMARK                            x       y       z     vdW  Elec       q    Type
REMARK                         _______ _______ _______ _____ _____    ______ ____
ROOT
ATOM      4  N   UNL     1      -7.489 -11.670  17.741  0.00  0.00    -0.297 NA
ATOM      8  C   UNL     1      -4.976 -11.488  18.400  0.00  0.00    +0.002 C 
ATOM      9  C   UNL     1      -5.292 -10.557  17.196  0.00  0.00    +0.055 C 
ATOM     10  C   UNL     1      -6.894 -13.028  17.853  0.00  0.00    +0.074 C 
ATOM     11  C   UNL     1      -5.363 -12.938  18.038  0.00  0.00    +0.024 C 
ATOM     12  C   UNL     1      -5.898 -11.047  19.557  0.00  0.00    +0.019 C 
ATOM     13  C   UNL     1      -6.745 -10.870  16.737  0.00  0.00    +0.094 C 
ATOM     14  C   UNL     1      -7.352 -11.003  19.058  0.00  0.00    +0.085 C 
ENDROOT
BRANCH   9  16
ATOM      6  N   UNL     1      -3.001 -10.612  16.342  0.00  0.00    -0.237 NA
ATOM      7  N   UNL     1      -2.505 -10.483  13.987  0.00  0.00    -0.232 NA
ATOM     16  C   UNL     1      -4.312 -10.529  16.032  0.00  0.00    +0.050 A 
ATOM     18  C   UNL     1      -4.789 -10.422  14.742  0.00  0.00    +0.052 A 
ATOM     23  C   UNL     1      -3.831 -10.404  13.750  0.00  0.00    +0.075 A 
ATOM     24  C   UNL     1      -2.165 -10.584  15.286  0.00  0.00    +0.127 A 
ATOM     26  C   UNL     1      -0.707 -10.672  15.589  0.00  0.00    +0.088 C 
BRANCH  23  25
ATOM     25  C   UNL     1      -4.200 -10.294  12.359  0.00  0.00    +0.004 A 
ATOM     27  C   UNL     1      -5.436  -9.752  12.006  0.00  0.00    +0.059 A 
ATOM     28  C   UNL     1      -3.321 -10.728  11.367  0.00  0.00    +0.014 A 
ATOM     29  C   UNL     1      -5.792  -9.644  10.663  0.00  0.00    +0.162 A 
ATOM     30  C   UNL     1      -3.678 -10.622  10.023  0.00  0.00    +0.050 A 
ATOM     31  C   UNL     1      -4.914 -10.078   9.671  0.00  0.00    +0.162 A 
BRANCH  29   2
ATOM      2  O   UNL     1      -7.002  -9.110  10.331  0.00  0.00    -0.491 OA
ATOM     32  C   UNL     1      -8.131  -9.547  11.084  0.00  0.00    +0.277 C 
ENDBRANCH  29   2
BRANCH  31   3
ATOM      3  O   UNL     1      -5.251  -9.979   8.355  0.00  0.00    -0.491 OA
ATOM     33  C   UNL     1      -4.867 -11.057   7.503  0.00  0.00    +0.277 C 
ENDBRANCH  31   3
ENDBRANCH  23  25
ENDBRANCH   9  16
BRANCH  10  15
ATOM     15  C   UNL     1      -7.274 -13.930  16.677  0.00  0.00    +0.123 C 
BRANCH  15   5
ATOM      1  O   UNL     1      -6.688 -13.304  13.936  0.00  0.00    -0.276 OA
ATOM      5  N   UNL     1      -6.113 -14.319  15.937  0.00  0.00    -0.314 N 
ATOM     19  C   UNL     1      -5.894 -13.977  14.602  0.00  0.00    +0.216 C 
ATOM     34  H   UNL     1      -5.414 -14.881  16.413  0.00  0.00    +0.149 HD
BRANCH  19  17
ATOM     17  C   UNL     1      -4.574 -14.525  14.028  0.00  0.00    +0.075 C 
ATOM     20  C   UNL     1      -4.133 -14.005  12.642  0.00  0.00    +0.013 C 
ATOM     21  C   UNL     1      -3.260 -13.936  14.581  0.00  0.00    +0.013 C 
ATOM     22  C   UNL     1      -2.682 -14.088  13.159  0.00  0.00    +0.001 C 
ENDBRANCH  19  17
ENDBRANCH  15   5
ENDBRANCH  10  15
TORSDOF 7
ENDMDL
MODEL 3
REMARK VINA RESULT:      -6.1      2.319      4.057
REMARK  Name = 40776831
REMARK  10 active torsions:
REMARK  status: ('A' for Active; 'I' for Inactive)
REMARK    1  A    between atoms: O_2  and  C_29
REMARK    2  A    between atoms: O_2  and  C_32
REMARK    3  A    between atoms: O_3  and  C_31
REMARK    4  A    between atoms: O_3  and  C_33
REMARK    5  A    between atoms: N_5  and  C_15
REMARK    6  A    between atoms: C_9  and  C_16
REMARK    7  A    between atoms: C_10  and  C_15
REMARK    8  A    between atoms: C_17  and  C_19
REMARK    9  A    between atoms: C_23  and  C_25
REMARK   10  A    between atoms: C_24  and  C_26
REMARK                            x       y       z     vdW  Elec       q    Type
REMARK                         _______ _______ _______ _____ _____    ______ ____
ROOT
ATOM      4  N   UNL     1       9.793   7.332   7.543  0.00  0.00    -0.297 NA
ATOM      8  C   UNL     1       9.905   5.300   5.917  0.00  0.00    +0.002 C 
ATOM      9  C   UNL     1      11.199   6.155   5.810  0.00  0.00    +0.055 C 
ATOM     10  C   UNL     1       8.548   7.259   6.734  0.00  0.00    +0.074 C 
ATOM     11  C   UNL     1       8.680   6.192   5.625  0.00  0.00    +0.024 C 
ATOM     12  C   UNL     1       9.794   4.842   7.387  0.00  0.00    +0.019 C 
ATOM     13  C   UNL     1      10.973   7.444   6.650  0.00  0.00    +0.094 C 
ATOM     14  C   UNL     1       9.912   6.068   8.309  0.00  0.00    +0.085 C 
ENDROOT
BRANCH   9  16
ATOM      6  N   UNL     1      12.362   7.649   4.261  0.00  0.00    -0.237 NA
ATOM      7  N   UNL     1      12.755   7.059   1.958  0.00  0.00    -0.232 NA
ATOM     16  C   UNL     1      11.749   6.458   4.423  0.00  0.00    +0.050 A 
ATOM     18  C   UNL     1      11.601   5.529   3.415  0.00  0.00    +0.052 A 
ATOM     23  C   UNL     1      12.129   5.886   2.191  0.00  0.00    +0.075 A 
ATOM     24  C   UNL     1      12.834   7.881   3.022  0.00  0.00    +0.127 A 
ATOM     26  C   UNL     1      13.518   9.188   2.803  0.00  0.00    +0.088 C 
BRANCH  23  25
ATOM     25  C   UNL     1      12.039   5.003   1.053  0.00  0.00    +0.004 A 
ATOM     27  C   UNL     1      10.946   5.086   0.189  0.00  0.00    +0.059 A 
ATOM     28  C   UNL     1      13.043   4.065   0.816  0.00  0.00    +0.014 A 
ATOM     29  C   UNL     1      10.859   4.234  -0.910  0.00  0.00    +0.162 A 
ATOM     30  C   UNL     1      12.956   3.211  -0.283  0.00  0.00    +0.050 A 
ATOM     31  C   UNL     1      11.864   3.296  -1.147  0.00  0.00    +0.162 A 
BRANCH  29   2
ATOM      2  O   UNL     1       9.788   4.328  -1.748  0.00  0.00    -0.491 OA
ATOM     32  C   UNL     1       9.284   5.637  -2.011  0.00  0.00    +0.277 C 
ENDBRANCH  29   2
BRANCH  31   3
ATOM      3  O   UNL     1      11.789   2.458  -2.218  0.00  0.00    -0.491 OA
ATOM     33  C   UNL     1      12.548   2.812  -3.373  0.00  0.00    +0.277 C 
ENDBRANCH  31   3
ENDBRANCH  23  25
ENDBRANCH   9  16
BRANCH  10  15
ATOM     15  C   UNL     1       8.139   8.621   6.169  0.00  0.00    +0.123 C 
BRANCH  15   5
ATOM      1  O   UNL     1       6.423   9.632   4.100  0.00  0.00    -0.276 OA
ATOM      5  N   UNL     1       8.436   8.704   4.772  0.00  0.00    -0.314 N 
ATOM     19  C   UNL     1       7.549   9.209   3.820  0.00  0.00    +0.216 C 
ATOM     34  H   UNL     1       9.343   8.370   4.459  0.00  0.00    +0.149 HD
BRANCH  19  17
ATOM     17  C   UNL     1       8.100   9.183   2.381  0.00  0.00    +0.075 C 
ATOM     20  C   UNL     1       9.271  10.133   2.053  0.00  0.00    +0.013 C 
ATOM     21  C   UNL     1       9.039   8.019   2.002  0.00  0.00    +0.013 C 
ATOM     22  C   UNL     1       9.806   9.026   1.120  0.00  0.00    +0.001 C 
ENDBRANCH  19  17
ENDBRANCH  15   5
ENDBRANCH  10  15
TORSDOF 7
ENDMDL
MODEL 4
REMARK VINA RESULT:      -6.1      2.006      3.677
REMARK  Name = 40776831
REMARK  10 active torsions:
REMARK  status: ('A' for Active; 'I' for Inactive)
REMARK    1  A    between atoms: O_2  and  C_29
REMARK    2  A    between atoms: O_2  and  C_32
REMARK    3  A    between atoms: O_3  and  C_31
REMARK    4  A    between atoms: O_3  and  C_33
REMARK    5  A    between atoms: N_5  and  C_15
REMARK    6  A    between atoms: C_9  and  C_16
REMARK    7  A    between atoms: C_10  and  C_15
REMARK    8  A    between atoms: C_17  and  C_19
REMARK    9  A    between atoms: C_23  and  C_25
REMARK   10  A    between atoms: C_24  and  C_26
REMARK                            x       y       z     vdW  Elec       q    Type
REMARK                         _______ _______ _______ _____ _____    ______ ____
ROOT
ATOM      4  N   UNL     1       7.901  10.611   5.391  0.00  0.00    -0.297 NA
ATOM      8  C   UNL     1       8.457   9.482   3.111  0.00  0.00    +0.002 C 
ATOM      9  C   UNL     1       8.031   8.414   4.158  0.00  0.00    +0.055 C 
ATOM     10  C   UNL     1       9.219  11.087   4.897  0.00  0.00    +0.074 C 
ATOM     11  C   UNL     1       9.661  10.279   3.657  0.00  0.00    +0.024 C 
ATOM     12  C   UNL     1       7.279  10.470   2.980  0.00  0.00    +0.019 C 
ATOM     13  C   UNL     1       7.914   9.133   5.532  0.00  0.00    +0.094 C 
ATOM     14  C   UNL     1       6.878  10.970   4.379  0.00  0.00    +0.085 C 
ENDROOT
BRANCH   9  16
ATOM      6  N   UNL     1       8.923   6.545   5.459  0.00  0.00    -0.237 NA
ATOM      7  N   UNL     1      10.286   4.823   4.467  0.00  0.00    -0.232 NA
ATOM     16  C   UNL     1       8.843   7.130   4.246  0.00  0.00    +0.050 A 
ATOM     18  C   UNL     1       9.449   6.628   3.113  0.00  0.00    +0.052 A 
ATOM     23  C   UNL     1      10.165   5.461   3.284  0.00  0.00    +0.075 A 
ATOM     24  C   UNL     1       9.649   5.412   5.497  0.00  0.00    +0.127 A 
ATOM     26  C   UNL     1       9.761   4.736   6.822  0.00  0.00    +0.088 C 
BRANCH  23  25
ATOM     25  C   UNL     1      10.847   4.836   2.177  0.00  0.00    +0.004 A 
ATOM     27  C   UNL     1      12.028   4.126   2.396  0.00  0.00    +0.059 A 
ATOM     28  C   UNL     1      10.327   4.939   0.887  0.00  0.00    +0.014 A 
ATOM     29  C   UNL     1      12.688   3.521   1.328  0.00  0.00    +0.162 A 
ATOM     30  C   UNL     1      10.987   4.335  -0.183  0.00  0.00    +0.050 A 
ATOM     31  C   UNL     1      12.167   3.625   0.038  0.00  0.00    +0.162 A 
BRANCH  29   2
ATOM      2  O   UNL     1      13.839   2.828   1.555  0.00  0.00    -0.491 OA
ATOM     32  C   UNL     1      15.032   3.592   1.723  0.00  0.00    +0.277 C 
ENDBRANCH  29   2
BRANCH  31   3
ATOM      3  O   UNL     1      12.802   3.038  -1.014  0.00  0.00    -0.491 OA
ATOM     33  C   UNL     1      11.984   2.550  -2.076  0.00  0.00    +0.277 C 
ENDBRANCH  31   3
ENDBRANCH  23  25
ENDBRANCH   9  16
BRANCH  10  15
ATOM     15  C   UNL     1      10.289  11.082   5.991  0.00  0.00    +0.123 C 
BRANCH  15   5
ATOM      1  O   UNL     1      10.619   8.853   7.773  0.00  0.00    -0.276 OA
ATOM      5  N   UNL     1      11.181   9.976   5.827  0.00  0.00    -0.314 N 
ATOM     19  C   UNL     1      11.289   8.924   6.737  0.00  0.00    +0.216 C 
ATOM     34  H   UNL     1      11.773   9.963   5.001  0.00  0.00    +0.149 HD
BRANCH  19  17
ATOM     17  C   UNL     1      12.329   7.860   6.339  0.00  0.00    +0.075 C 
ATOM     20  C   UNL     1      12.666   7.724   4.839  0.00  0.00    +0.013 C 
ATOM     21  C   UNL     1      13.816   8.202   6.564  0.00  0.00    +0.013 C 
ATOM     22  C   UNL     1      14.114   7.413   5.272  0.00  0.00    +0.001 C 
ENDBRANCH  19  17
ENDBRANCH  15   5
ENDBRANCH  10  15
TORSDOF 7
ENDMDL
MODEL 5
REMARK VINA RESULT:      -5.9     16.077     19.262
REMARK  Name = 40776831
REMARK  10 active torsions:
REMARK  status: ('A' for Active; 'I' for Inactive)
REMARK    1  A    between atoms: O_2  and  C_29
REMARK    2  A    between atoms: O_2  and  C_32
REMARK    3  A    between atoms: O_3  and  C_31
REMARK    4  A    between atoms: O_3  and  C_33
REMARK    5  A    between atoms: N_5  and  C_15
REMARK    6  A    between atoms: C_9  and  C_16
REMARK    7  A    between atoms: C_10  and  C_15
REMARK    8  A    between atoms: C_17  and  C_19
REMARK    9  A    between atoms: C_23  and  C_25
REMARK   10  A    between atoms: C_24  and  C_26
REMARK                            x       y       z     vdW  Elec       q    Type
REMARK                         _______ _______ _______ _____ _____    ______ ____
ROOT
ATOM      4  N   UNL     1      14.664  12.597  21.286  0.00  0.00    -0.297 NA
ATOM      8  C   UNL     1      15.357  10.741  22.977  0.00  0.00    +0.002 C 
ATOM      9  C   UNL     1      16.266  10.696  21.717  0.00  0.00    +0.055 C 
ATOM     10  C   UNL     1      13.468  11.824  21.710  0.00  0.00    +0.074 C 
ATOM     11  C   UNL     1      13.882  10.593  22.547  0.00  0.00    +0.024 C 
ATOM     12  C   UNL     1      15.514  12.150  23.588  0.00  0.00    +0.019 C 
ATOM     13  C   UNL     1      15.668  11.687  20.679  0.00  0.00    +0.094 C 
ATOM     14  C   UNL     1      15.266  13.205  22.497  0.00  0.00    +0.085 C 
ENDROOT
BRANCH   9  16
ATOM      6  N   UNL     1      15.702   8.868  20.193  0.00  0.00    -0.237 NA
ATOM      7  N   UNL     1      17.087   6.907  19.971  0.00  0.00    -0.232 NA
ATOM     16  C   UNL     1      16.579   9.338  21.104  0.00  0.00    +0.050 A 
ATOM     18  C   UNL     1      17.715   8.660  21.495  0.00  0.00    +0.052 A 
ATOM     23  C   UNL     1      17.921   7.438  20.890  0.00  0.00    +0.075 A 
ATOM     24  C   UNL     1      16.013   7.664  19.674  0.00  0.00    +0.127 A 
ATOM     26  C   UNL     1      15.067   7.110  18.663  0.00  0.00    +0.088 C 
BRANCH  23  25
ATOM     25  C   UNL     1      19.071   6.629  21.213  0.00  0.00    +0.004 A 
ATOM     27  C   UNL     1      19.683   6.754  22.461  0.00  0.00    +0.059 A 
ATOM     28  C   UNL     1      19.572   5.722  20.280  0.00  0.00    +0.014 A 
ATOM     29  C   UNL     1      20.794   5.973  22.774  0.00  0.00    +0.162 A 
ATOM     30  C   UNL     1      20.684   4.941  20.593  0.00  0.00    +0.050 A 
ATOM     31  C   UNL     1      21.295   5.065  21.841  0.00  0.00    +0.162 A 
BRANCH  29   2
ATOM      2  O   UNL     1      21.381   6.102  23.998  0.00  0.00    -0.491 OA
ATOM     32  C   UNL     1      22.189   7.259  24.209  0.00  0.00    +0.277 C 
ENDBRANCH  29   2
BRANCH  31   3
ATOM      3  O   UNL     1      22.380   4.297  22.136  0.00  0.00    -0.491 OA
ATOM     33  C   UNL     1      23.169   3.841  21.038  0.00  0.00    +0.277 C 
ENDBRANCH  31   3
ENDBRANCH  23  25
ENDBRANCH   9  16
BRANCH  10  15
ATOM     15  C   UNL     1      12.576  11.435  20.529  0.00  0.00    +0.123 C 
BRANCH  15   5
ATOM      1  O   UNL     1      12.424   9.354  18.556  0.00  0.00    -0.276 OA
ATOM      5  N   UNL     1      12.038  10.122  20.706  0.00  0.00    -0.314 N 
ATOM     19  C   UNL     1      11.997   9.158  19.698  0.00  0.00    +0.216 C 
ATOM     34  H   UNL     1      11.660   9.884  21.618  0.00  0.00    +0.149 HD
BRANCH  19  17
ATOM     17  C   UNL     1      11.359   7.826  20.135  0.00  0.00    +0.075 C 
ATOM     20  C   UNL     1      12.287   6.771  20.775  0.00  0.00    +0.013 C 
ATOM     21  C   UNL     1      10.567   7.819  21.460  0.00  0.00    +0.013 C 
ATOM     22  C   UNL     1      11.100   6.388  21.682  0.00  0.00    +0.001 C 
ENDBRANCH  19  17
ENDBRANCH  15   5
ENDBRANCH  10  15
TORSDOF 7
ENDMDL
MODEL 6
REMARK VINA RESULT:      -5.9     16.652     20.100
REMARK  Name = 40776831
REMARK  10 active torsions:
REMARK  status: ('A' for Active; 'I' for Inactive)
REMARK    1  A    between atoms: O_2  and  C_29
REMARK    2  A    between atoms: O_2  and  C_32
REMARK    3  A    between atoms: O_3  and  C_31
REMARK    4  A    between atoms: O_3  and  C_33
REMARK    5  A    between atoms: N_5  and  C_15
REMARK    6  A    between atoms: C_9  and  C_16
REMARK    7  A    between atoms: C_10  and  C_15
REMARK    8  A    between atoms: C_17  and  C_19
REMARK    9  A    between atoms: C_23  and  C_25
REMARK   10  A    between atoms: C_24  and  C_26
REMARK                            x       y       z     vdW  Elec       q    Type
REMARK                         _______ _______ _______ _____ _____    ______ ____
ROOT
ATOM      4  N   UNL     1      21.687   6.271  22.530  0.00  0.00    -0.297 NA
ATOM      8  C   UNL     1      20.698   8.455  21.512  0.00  0.00    +0.002 C 
ATOM      9  C   UNL     1      19.564   7.560  22.085  0.00  0.00    +0.055 C 
ATOM     10  C   UNL     1      22.227   6.484  21.161  0.00  0.00    +0.074 C 
ATOM     11  C   UNL     1      21.499   7.654  20.464  0.00  0.00    +0.024 C 
ATOM     12  C   UNL     1      21.657   8.761  22.682  0.00  0.00    +0.019 C 
ATOM     13  C   UNL     1      20.204   6.201  22.486  0.00  0.00    +0.094 C 
ATOM     14  C   UNL     1      22.069   7.441  23.357  0.00  0.00    +0.085 C 
ENDROOT
BRANCH   9  16
ATOM      6  N   UNL     1      18.375   6.523  20.215  0.00  0.00    -0.237 NA
ATOM      7  N   UNL     1      16.067   7.016  19.729  0.00  0.00    -0.232 NA
ATOM     16  C   UNL     1      18.301   7.380  21.255  0.00  0.00    +0.050 A 
ATOM     18  C   UNL     1      17.161   8.082  21.589  0.00  0.00    +0.052 A 
ATOM     23  C   UNL     1      16.063   7.859  20.783  0.00  0.00    +0.075 A 
ATOM     24  C   UNL     1      17.239   6.391  19.505  0.00  0.00    +0.127 A 
ATOM     26  C   UNL     1      17.282   5.453  18.347  0.00  0.00    +0.088 C 
BRANCH  23  25
ATOM     25  C   UNL     1      14.811   8.533  21.025  0.00  0.00    +0.004 A 
ATOM     27  C   UNL     1      13.682   7.799  21.388  0.00  0.00    +0.059 A 
ATOM     28  C   UNL     1      14.729   9.919  20.897  0.00  0.00    +0.014 A 
ATOM     29  C   UNL     1      12.472   8.450  21.623  0.00  0.00    +0.162 A 
ATOM     30  C   UNL     1      13.518  10.571  21.132  0.00  0.00    +0.050 A 
ATOM     31  C   UNL     1      12.389   9.836  21.496  0.00  0.00    +0.162 A 
BRANCH  29   2
ATOM      2  O   UNL     1      11.376   7.721  21.980  0.00  0.00    -0.491 OA
ATOM     32  C   UNL     1      11.355   6.349  21.589  0.00  0.00    +0.277 C 
ENDBRANCH  29   2
BRANCH  31   3
ATOM      3  O   UNL     1      11.213  10.483  21.723  0.00  0.00    -0.491 OA
ATOM     33  C   UNL     1      11.292  11.813  22.233  0.00  0.00    +0.277 C 
ENDBRANCH  31   3
ENDBRANCH  23  25
ENDBRANCH   9  16
BRANCH  10  15
ATOM     15  C   UNL     1      22.194   5.208  20.317  0.00  0.00    +0.123 C 
BRANCH  15   5
ATOM      1  O   UNL     1      24.783   4.253  19.523  0.00  0.00    -0.276 OA
ATOM      5  N   UNL     1      22.952   4.166  20.938  0.00  0.00    -0.314 N 
ATOM     19  C   UNL     1      24.210   3.753  20.496  0.00  0.00    +0.216 C 
ATOM     34  H   UNL     1      22.545   3.699  21.743  0.00  0.00    +0.149 HD
BRANCH  19  17
ATOM     17  C   UNL     1      24.816   2.606  21.326  0.00  0.00    +0.075 C 
ATOM     20  C   UNL     1      24.474   2.562  22.831  0.00  0.00    +0.013 C 
ATOM     21  C   UNL     1      24.149   1.219  21.214  0.00  0.00    +0.013 C 
ATOM     22  C   UNL     1      24.478   1.024  22.709  0.00  0.00    +0.001 C 
ENDBRANCH  19  17
ENDBRANCH  15   5
ENDBRANCH  10  15
TORSDOF 7
ENDMDL
MODEL 7
REMARK VINA RESULT:      -5.8     15.480     18.963
REMARK  Name = 40776831
REMARK  10 active torsions:
REMARK  status: ('A' for Active; 'I' for Inactive)
REMARK    1  A    between atoms: O_2  and  C_29
REMARK    2  A    between atoms: O_2  and  C_32
REMARK    3  A    between atoms: O_3  and  C_31
REMARK    4  A    between atoms: O_3  and  C_33
REMARK    5  A    between atoms: N_5  and  C_15
REMARK    6  A    between atoms: C_9  and  C_16
REMARK    7  A    between atoms: C_10  and  C_15
REMARK    8  A    between atoms: C_17  and  C_19
REMARK    9  A    between atoms: C_23  and  C_25
REMARK   10  A    between atoms: C_24  and  C_26
REMARK                            x       y       z     vdW  Elec       q    Type
REMARK                         _______ _______ _______ _____ _____    ______ ____
ROOT
ATOM      4  N   UNL     1      11.597  13.028  22.641  0.00  0.00    -0.297 NA
ATOM      8  C   UNL     1      14.059  12.306  23.094  0.00  0.00    +0.002 C 
ATOM      9  C   UNL     1      13.774  12.344  21.566  0.00  0.00    +0.055 C 
ATOM     10  C   UNL     1      11.629  11.933  23.647  0.00  0.00    +0.074 C 
ATOM     11  C   UNL     1      13.054  11.352  23.775  0.00  0.00    +0.024 C 
ATOM     12  C   UNL     1      13.777  13.724  23.634  0.00  0.00    +0.019 C 
ATOM     13  C   UNL     1      12.249  12.582  21.384  0.00  0.00    +0.094 C 
ATOM     14  C   UNL     1      12.374  14.168  23.185  0.00  0.00    +0.085 C 
ENDROOT
BRANCH   9  16
ATOM      6  N   UNL     1      13.622  10.952  19.561  0.00  0.00    -0.237 NA
ATOM      7  N   UNL     1      15.154   9.141  19.135  0.00  0.00    -0.232 NA
ATOM     16  C   UNL     1      14.285  11.193  20.711  0.00  0.00    +0.050 A 
ATOM     18  C   UNL     1      15.375  10.461  21.134  0.00  0.00    +0.052 A 
ATOM     23  C   UNL     1      15.770   9.437  20.298  0.00  0.00    +0.075 A 
ATOM     24  C   UNL     1      14.103   9.926  18.832  0.00  0.00    +0.127 A 
ATOM     26  C   UNL     1      13.396   9.629  17.553  0.00  0.00    +0.088 C 
BRANCH  23  25
ATOM     25  C   UNL     1      16.895   8.597  20.628  0.00  0.00    +0.004 A 
ATOM     27  C   UNL     1      17.951   9.109  21.383  0.00  0.00    +0.059 A 
ATOM     28  C   UNL     1      16.928   7.272  20.195  0.00  0.00    +0.014 A 
ATOM     29  C   UNL     1      19.038   8.297  21.703  0.00  0.00    +0.162 A 
ATOM     30  C   UNL     1      18.016   6.459  20.514  0.00  0.00    +0.050 A 
ATOM     31  C   UNL     1      19.071   6.972  21.269  0.00  0.00    +0.162 A 
BRANCH  29   2
ATOM      2  O   UNL     1      20.063   8.808  22.443  0.00  0.00    -0.491 OA
ATOM     32  C   UNL     1      20.014  10.203  22.739  0.00  0.00    +0.277 C 
ENDBRANCH  29   2
BRANCH  31   3
ATOM      3  O   UNL     1      20.128   6.169  21.576  0.00  0.00    -0.491 OA
ATOM     33  C   UNL     1      20.784   5.517  20.489  0.00  0.00    +0.277 C 
ENDBRANCH  31   3
ENDBRANCH  23  25
ENDBRANCH   9  16
BRANCH  10  15
ATOM     15  C   UNL     1      10.594  10.845  23.357  0.00  0.00    +0.123 C 
BRANCH  15   5
ATOM      1  O   UNL     1      10.553   9.469  20.837  0.00  0.00    -0.276 OA
ATOM      5  N   UNL     1      11.231   9.603  23.047  0.00  0.00    -0.314 N 
ATOM     19  C   UNL     1      11.169   8.990  21.795  0.00  0.00    +0.216 C 
ATOM     34  H   UNL     1      11.755   9.142  23.785  0.00  0.00    +0.149 HD
BRANCH  19  17
ATOM     17  C   UNL     1      11.931   7.654  21.717  0.00  0.00    +0.075 C 
ATOM     20  C   UNL     1      12.250   7.101  20.311  0.00  0.00    +0.013 C 
ATOM     21  C   UNL     1      13.454   7.690  21.963  0.00  0.00    +0.013 C 
ATOM     22  C   UNL     1      13.574   6.576  20.903  0.00  0.00    +0.001 C 
ENDBRANCH  19  17
ENDBRANCH  15   5
ENDBRANCH  10  15
TORSDOF 7
ENDMDL
MODEL 8
REMARK VINA RESULT:      -5.7     22.663     26.791
REMARK  Name = 40776831
REMARK  10 active torsions:
REMARK  status: ('A' for Active; 'I' for Inactive)
REMARK    1  A    between atoms: O_2  and  C_29
REMARK    2  A    between atoms: O_2  and  C_32
REMARK    3  A    between atoms: O_3  and  C_31
REMARK    4  A    between atoms: O_3  and  C_33
REMARK    5  A    between atoms: N_5  and  C_15
REMARK    6  A    between atoms: C_9  and  C_16
REMARK    7  A    between atoms: C_10  and  C_15
REMARK    8  A    between atoms: C_17  and  C_19
REMARK    9  A    between atoms: C_23  and  C_25
REMARK   10  A    between atoms: C_24  and  C_26
REMARK                            x       y       z     vdW  Elec       q    Type
REMARK                         _______ _______ _______ _____ _____    ______ ____
ROOT
ATOM      4  N   UNL     1      20.039  -7.585  24.136  0.00  0.00    -0.297 NA
ATOM      8  C   UNL     1      21.475  -5.419  23.964  0.00  0.00    +0.002 C 
ATOM      9  C   UNL     1      20.867  -5.558  25.387  0.00  0.00    +0.055 C 
ATOM     10  C   UNL     1      19.647  -6.810  22.929  0.00  0.00    +0.074 C 
ATOM     11  C   UNL     1      20.338  -5.429  22.921  0.00  0.00    +0.024 C 
ATOM     12  C   UNL     1      22.327  -6.683  23.720  0.00  0.00    +0.019 C 
ATOM     13  C   UNL     1      19.871  -6.751  25.352  0.00  0.00    +0.094 C 
ATOM     14  C   UNL     1      21.475  -7.931  24.008  0.00  0.00    +0.085 C 
ENDROOT
BRANCH   9  16
ATOM      6  N   UNL     1      20.661  -3.125  25.548  0.00  0.00    -0.237 NA
ATOM      7  N   UNL     1      19.212  -2.062  27.154  0.00  0.00    -0.232 NA
ATOM     16  C   UNL     1      20.262  -4.319  26.034  0.00  0.00    +0.050 A 
ATOM     18  C   UNL     1      19.355  -4.463  27.064  0.00  0.00    +0.052 A 
ATOM     23  C   UNL     1      18.858  -3.289  27.591  0.00  0.00    +0.075 A 
ATOM     24  C   UNL     1      20.105  -2.054  26.146  0.00  0.00    +0.127 A 
ATOM     26  C   UNL     1      20.522  -0.716  25.637  0.00  0.00    +0.088 C 
BRANCH  23  25
ATOM     25  C   UNL     1      17.904  -3.303  28.673  0.00  0.00    +0.004 A 
ATOM     27  C   UNL     1      17.367  -4.512  29.115  0.00  0.00    +0.059 A 
ATOM     28  C   UNL     1      17.518  -2.107  29.279  0.00  0.00    +0.014 A 
ATOM     29  C   UNL     1      16.446  -4.527  30.162  0.00  0.00    +0.162 A 
ATOM     30  C   UNL     1      16.595  -2.121  30.325  0.00  0.00    +0.050 A 
ATOM     31  C   UNL     1      16.060  -3.331  30.767  0.00  0.00    +0.162 A 
BRANCH  29   2
ATOM      2  O   UNL     1      15.931  -5.715  30.586  0.00  0.00    -0.491 OA
ATOM     32  C   UNL     1      16.659  -6.894  30.245  0.00  0.00    +0.277 C 
ENDBRANCH  29   2
BRANCH  31   3
ATOM      3  O   UNL     1      15.161  -3.332  31.790  0.00  0.00    -0.491 OA
ATOM     33  C   UNL     1      15.687  -3.329  33.117  0.00  0.00    +0.277 C 
ENDBRANCH  31   3
ENDBRANCH  23  25
ENDBRANCH   9  16
BRANCH  10  15
ATOM     15  C   UNL     1      18.129  -6.690  22.781  0.00  0.00    +0.123 C 
BRANCH  15   5
ATOM      1  O   UNL     1      16.888  -5.206  24.903  0.00  0.00    -0.276 OA
ATOM      5  N   UNL     1      17.727  -5.318  22.747  0.00  0.00    -0.314 N 
ATOM     19  C   UNL     1      17.127  -4.659  23.821  0.00  0.00    +0.216 C 
ATOM     34  H   UNL     1      17.884  -4.799  21.888  0.00  0.00    +0.149 HD
BRANCH  19  17
ATOM     17  C   UNL     1      16.778  -3.187  23.533  0.00  0.00    +0.075 C 
ATOM     20  C   UNL     1      16.610  -2.247  24.746  0.00  0.00    +0.013 C 
ATOM     21  C   UNL     1      17.925  -2.262  23.074  0.00  0.00    +0.013 C 
ATOM     22  C   UNL     1      17.238  -1.138  23.876  0.00  0.00    +0.001 C 
ENDBRANCH  19  17
ENDBRANCH  15   5
ENDBRANCH  10  15
TORSDOF 7
ENDMDL
MODEL 9
REMARK VINA RESULT:      -5.6     15.979     20.309
REMARK  Name = 40776831
REMARK  10 active torsions:
REMARK  status: ('A' for Active; 'I' for Inactive)
REMARK    1  A    between atoms: O_2  and  C_29
REMARK    2  A    between atoms: O_2  and  C_32
REMARK    3  A    between atoms: O_3  and  C_31
REMARK    4  A    between atoms: O_3  and  C_33
REMARK    5  A    between atoms: N_5  and  C_15
REMARK    6  A    between atoms: C_9  and  C_16
REMARK    7  A    between atoms: C_10  and  C_15
REMARK    8  A    between atoms: C_17  and  C_19
REMARK    9  A    between atoms: C_23  and  C_25
REMARK   10  A    between atoms: C_24  and  C_26
REMARK                            x       y       z     vdW  Elec       q    Type
REMARK                         _______ _______ _______ _____ _____    ______ ____
ROOT
ATOM      4  N   UNL     1      12.280   7.027  19.468  0.00  0.00    -0.297 NA
ATOM      8  C   UNL     1      12.497   7.860  21.926  0.00  0.00    +0.002 C 
ATOM      9  C   UNL     1      11.770   8.921  21.054  0.00  0.00    +0.055 C 
ATOM     10  C   UNL     1      13.684   6.877  19.933  0.00  0.00    +0.074 C 
ATOM     11  C   UNL     1      13.878   7.552  21.309  0.00  0.00    +0.024 C 
ATOM     12  C   UNL     1      11.662   6.565  21.839  0.00  0.00    +0.019 C 
ATOM     13  C   UNL     1      11.859   8.447  19.576  0.00  0.00    +0.094 C 
ATOM     14  C   UNL     1      11.415   6.219  20.361  0.00  0.00    +0.085 C 
ENDROOT
BRANCH   9  16
ATOM      6  N   UNL     1      12.520  11.042  20.094  0.00  0.00    -0.237 NA
ATOM      7  N   UNL     1      12.895  13.003  21.445  0.00  0.00    -0.232 NA
ATOM     16  C   UNL     1      12.169  10.381  21.217  0.00  0.00    +0.050 A 
ATOM     18  C   UNL     1      12.157  10.954  22.472  0.00  0.00    +0.052 A 
ATOM     23  C   UNL     1      12.533  12.281  22.527  0.00  0.00    +0.075 A 
ATOM     24  C   UNL     1      12.866  12.330  20.279  0.00  0.00    +0.127 A 
ATOM     26  C   UNL     1      13.262  13.094  19.061  0.00  0.00    +0.088 C 
BRANCH  23  25
ATOM     25  C   UNL     1      12.564  12.996  23.780  0.00  0.00    +0.004 A 
ATOM     27  C   UNL     1      13.256  12.465  24.869  0.00  0.00    +0.059 A 
ATOM     28  C   UNL     1      11.903  14.217  23.903  0.00  0.00    +0.014 A 
ATOM     29  C   UNL     1      13.287  13.156  26.079  0.00  0.00    +0.162 A 
ATOM     30  C   UNL     1      11.933  14.908  25.114  0.00  0.00    +0.050 A 
ATOM     31  C   UNL     1      12.627  14.378  26.203  0.00  0.00    +0.162 A 
BRANCH  29   2
ATOM      2  O   UNL     1      13.969  12.628  27.135  0.00  0.00    -0.491 OA
ATOM     32  C   UNL     1      14.986  11.673  26.837  0.00  0.00    +0.277 C 
ENDBRANCH  29   2
BRANCH  31   3
ATOM      3  O   UNL     1      12.650  15.062  27.380  0.00  0.00    -0.491 OA
ATOM     33  C   UNL     1      11.395  15.493  27.905  0.00  0.00    +0.277 C 
ENDBRANCH  31   3
ENDBRANCH  23  25
ENDBRANCH   9  16
BRANCH  10  15
ATOM     15  C   UNL     1      14.697   7.380  18.903  0.00  0.00    +0.123 C 
BRANCH  15   5
ATOM      1  O   UNL     1      16.786   5.416  18.741  0.00  0.00    -0.276 OA
ATOM      5  N   UNL     1      16.005   7.469  19.475  0.00  0.00    -0.314 N 
ATOM     19  C   UNL     1      16.974   6.471  19.355  0.00  0.00    +0.216 C 
ATOM     34  H   UNL     1      16.237   8.306  20.002  0.00  0.00    +0.149 HD
BRANCH  19  17
ATOM     17  C   UNL     1      18.299   6.800  20.068  0.00  0.00    +0.075 C 
ATOM     20  C   UNL     1      18.238   7.079  21.585  0.00  0.00    +0.013 C 
ATOM     21  C   UNL     1      19.238   5.622  20.401  0.00  0.00    +0.013 C 
ATOM     22  C   UNL     1      19.610   6.383  21.690  0.00  0.00    +0.001 C 
ENDBRANCH  19  17
ENDBRANCH  15   5
ENDBRANCH  10  15
TORSDOF 7
ENDMDL
MODEL 10
REMARK VINA RESULT:      -5.6     24.953     29.348
REMARK  Name = 40776831
REMARK  10 active torsions:
REMARK  status: ('A' for Active; 'I' for Inactive)
REMARK    1  A    between atoms: O_2  and  C_29
REMARK    2  A    between atoms: O_2  and  C_32
REMARK    3  A    between atoms: O_3  and  C_31
REMARK    4  A    between atoms: O_3  and  C_33
REMARK    5  A    between atoms: N_5  and  C_15
REMARK    6  A    between atoms: C_9  and  C_16
REMARK    7  A    between atoms: C_10  and  C_15
REMARK    8  A    between atoms: C_17  and  C_19
REMARK    9  A    between atoms: C_23  and  C_25
REMARK   10  A    between atoms: C_24  and  C_26
REMARK                            x       y       z     vdW  Elec       q    Type
REMARK                         _______ _______ _______ _____ _____    ______ ____
ROOT
ATOM      4  N   UNL     1      18.685  -2.801  30.884  0.00  0.00    -0.297 NA
ATOM      8  C   UNL     1      16.196  -2.088  31.164  0.00  0.00    +0.002 C 
ATOM      9  C   UNL     1      16.395  -3.561  31.618  0.00  0.00    +0.055 C 
ATOM     10  C   UNL     1      18.191  -2.178  29.628  0.00  0.00    +0.074 C 
ATOM     11  C   UNL     1      16.667  -1.938  29.702  0.00  0.00    +0.024 C 
ATOM     12  C   UNL     1      17.133  -1.224  32.035  0.00  0.00    +0.019 C 
ATOM     13  C   UNL     1      17.844  -3.973  31.235  0.00  0.00    +0.094 C 
ATOM     14  C   UNL     1      18.558  -1.800  31.970  0.00  0.00    +0.085 C 
ENDROOT
BRANCH   9  16
ATOM      6  N   UNL     1      15.639  -5.280  30.050  0.00  0.00    -0.237 NA
ATOM      7  N   UNL     1      13.557  -6.459  30.342  0.00  0.00    -0.232 NA
ATOM     16  C   UNL     1      15.365  -4.594  31.180  0.00  0.00    +0.050 A 
ATOM     18  C   UNL     1      14.226  -4.782  31.934  0.00  0.00    +0.052 A 
ATOM     23  C   UNL     1      13.348  -5.737  31.463  0.00  0.00    +0.075 A 
ATOM     24  C   UNL     1      14.705  -6.183  29.695  0.00  0.00    +0.127 A 
ATOM     26  C   UNL     1      14.971  -6.961  28.450  0.00  0.00    +0.088 C 
BRANCH  23  25
ATOM     25  C   UNL     1      12.118  -6.028  32.159  0.00  0.00    +0.004 A 
ATOM     27  C   UNL     1      11.557  -5.076  33.010  0.00  0.00    +0.059 A 
ATOM     28  C   UNL     1      11.490  -7.260  31.981  0.00  0.00    +0.014 A 
ATOM     29  C   UNL     1      10.368  -5.355  33.682  0.00  0.00    +0.162 A 
ATOM     30  C   UNL     1      10.301  -7.540  32.654  0.00  0.00    +0.050 A 
ATOM     31  C   UNL     1       9.739  -6.587  33.505  0.00  0.00    +0.162 A 
BRANCH  29   2
ATOM      2  O   UNL     1       9.828  -4.416  34.509  0.00  0.00    -0.491 OA
ATOM     32  C   UNL     1      10.322  -4.369  35.847  0.00  0.00    +0.277 C 
ENDBRANCH  29   2
BRANCH  31   3
ATOM      3  O   UNL     1       8.577  -6.872  34.156  0.00  0.00    -0.491 OA
ATOM     33  C   UNL     1       7.381  -6.875  33.378  0.00  0.00    +0.277 C 
ENDBRANCH  31   3
ENDBRANCH  23  25
ENDBRANCH   9  16
BRANCH  10  15
ATOM     15  C   UNL     1      18.582  -2.981  28.386  0.00  0.00    +0.123 C 
BRANCH  15   5
ATOM      1  O   UNL     1      19.146  -1.761  25.848  0.00  0.00    -0.276 OA
ATOM      5  N   UNL     1      17.657  -2.752  27.319  0.00  0.00    -0.314 N 
ATOM     19  C   UNL     1      18.004  -2.152  26.107  0.00  0.00    +0.216 C 
ATOM     34  H   UNL     1      16.693  -3.041  27.457  0.00  0.00    +0.149 HD
BRANCH  19  17
ATOM     17  C   UNL     1      16.827  -2.010  25.124  0.00  0.00    +0.075 C 
ATOM     20  C   UNL     1      17.109  -1.311  23.776  0.00  0.00    +0.013 C 
ATOM     21  C   UNL     1      16.431  -3.257  24.306  0.00  0.00    +0.013 C 
ATOM     22  C   UNL     1      16.105  -2.297  23.143  0.00  0.00    +0.001 C 
ENDBRANCH  19  17
ENDBRANCH  15   5
ENDBRANCH  10  15
TORSDOF 7
ENDMDL
