REMARK  Name = 71693893
REMARK  7 active torsions:
REMARK  status: ('A' for Active; 'I' for Inactive)
REMARK    1  A    between atoms: O_2  and  C_9
REMARK    2  A    between atoms: O_3  and  C_11
REMARK    3  A    between atoms: O_5  and  C_19
REMARK    4  A    between atoms: O_5  and  C_25
REMARK    5  A    between atoms: N_6  and  C_8
REMARK    6  A    between atoms: C_7  and  C_12
REMARK    7  A    between atoms: C_15  and  C_18
REMARK                            x       y       z     vdW  Elec       q    Type
REMARK                         _______ _______ _______ _____ _____    ______ ____
ROOT
ATOM      7  C   UNL     1       1.997   1.263   1.010  0.00  0.00    +0.044 C 
ATOM      8  C   UNL     1       1.125   1.769  -0.161  0.00  0.00    +0.112 C 
ATOM      9  C   UNL     1       1.287   3.287  -0.096  0.00  0.00    +0.164 C 
ATOM     10  C   UNL     1       3.032   2.386   1.282  0.00  0.00    +0.044 C 
ATOM     11  C   UNL     1       2.765   3.463   0.232  0.00  0.00    +0.145 C 
ENDROOT
BRANCH   7  12
ATOM     12  C   UNL     1       2.607  -0.098   0.749  0.00  0.00    -0.042 A 
ATOM     13  C   UNL     1       3.455  -0.284  -0.344  0.00  0.00    +0.007 A 
ATOM     14  C   UNL     1       2.322  -1.166   1.600  0.00  0.00    +0.007 A 
ATOM     16  C   UNL     1       4.017  -1.537  -0.585  0.00  0.00    +0.046 A 
ATOM     17  C   UNL     1       2.884  -2.419   1.359  0.00  0.00    +0.046 A 
ATOM     19  C   UNL     1       3.732  -2.605   0.266  0.00  0.00    +0.120 A 
BRANCH  19   5
ATOM      5  O   UNL     1       4.280  -3.828   0.031  0.00  0.00    -0.495 OA
ATOM     25  C   UNL     1       5.137  -3.948  -1.103  0.00  0.00    +0.277 C 
ENDBRANCH  19   5
ENDBRANCH   7  12
BRANCH   8   6
ATOM      4  O   UNL     1      -0.102  -0.575  -1.277  0.00  0.00    -0.270 OA
ATOM      6  N   UNL     1      -0.253   1.369  -0.021  0.00  0.00    -0.305 N 
ATOM     15  C   UNL     1      -0.758   0.212  -0.600  0.00  0.00    +0.251 C 
ATOM     28  H   UNL     1      -0.848   1.947   0.562  0.00  0.00    +0.149 HD
BRANCH  15  18
ATOM      1  S   UNL     1      -2.909  -1.445  -1.057  0.00  0.00    -0.084 S 
ATOM     18  C   UNL     1      -2.204  -0.046  -0.384  0.00  0.00    +0.075 A 
ATOM     20  C   UNL     1      -3.118   0.707   0.314  0.00  0.00    +0.029 A 
ATOM     21  C   UNL     1      -4.435   0.135   0.308  0.00  0.00    -0.010 A 
ATOM     22  C   UNL     1      -4.464  -1.060  -0.417  0.00  0.00    +0.020 A 
ATOM     23  C   UNL     1      -5.639   0.589   0.899  0.00  0.00    +0.009 A 
ATOM     24  C   UNL     1      -5.651  -1.804  -0.563  0.00  0.00    +0.015 A 
ATOM     26  C   UNL     1      -6.818  -0.147   0.756  0.00  0.00    +0.001 A 
ATOM     27  C   UNL     1      -6.822  -1.331   0.032  0.00  0.00    +0.001 A 
ENDBRANCH  15  18
ENDBRANCH   8   6
BRANCH   9   2
ATOM      2  O   UNL     1       0.957   3.915  -1.320  0.00  0.00    -0.387 OA
ATOM     29  H   UNL     1       1.174   4.859  -1.232  0.00  0.00    +0.210 HD
ENDBRANCH   9   2
BRANCH  11   3
ATOM      3  O   UNL     1       3.576   3.200  -0.909  0.00  0.00    -0.389 OA
ATOM     30  H   UNL     1       4.504   3.287  -0.634  0.00  0.00    +0.210 HD
ENDBRANCH  11   3
TORSDOF 6
