MODEL 1
REMARK VINA RESULT:      -7.3      0.000      0.000
REMARK  Name = 45361709
REMARK  11 active torsions:
REMARK  status: ('A' for Active; 'I' for Inactive)
REMARK    1  A    between atoms: S_1  and  N_7
REMARK    2  A    between atoms: S_1  and  C_20
REMARK    3  A    between atoms: N_9  and  C_19
REMARK    4  A    between atoms: N_12  and  C_33
REMARK    5  A    between atoms: N_12  and  C_37
REMARK    6  A    between atoms: N_12  and  C_38
REMARK    7  A    between atoms: C_13  and  C_17
REMARK    8  A    between atoms: C_18  and  C_22
REMARK    9  A    between atoms: C_19  and  C_21
REMARK   10  A    between atoms: C_19  and  C_24
REMARK   11  A    between atoms: C_21  and  C_23
REMARK                            x       y       z     vdW  Elec       q    Type
REMARK                         _______ _______ _______ _____ _____    ______ ____
ROOT
ATOM      5  O   UNL     1     -17.055   0.291  28.712  0.00  0.00    -0.270 OA
ATOM      7  N   UNL     1     -17.337   2.624  24.359  0.00  0.00    -0.167 NA
ATOM      8  N   UNL     1     -16.542   1.739  26.952  0.00  0.00    -0.294 N 
ATOM     13  C   UNL     1     -17.068   3.616  25.452  0.00  0.00    +0.182 C 
ATOM     14  C   UNL     1     -16.067   3.030  26.447  0.00  0.00    +0.138 C 
ATOM     15  C   UNL     1     -17.825   1.316  24.912  0.00  0.00    +0.129 C 
ATOM     16  C   UNL     1     -16.815   0.758  25.906  0.00  0.00    +0.125 C 
ATOM     18  C   UNL     1     -16.696   1.391  28.294  0.00  0.00    +0.247 C 
ENDROOT
BRANCH  18  22
ATOM     22  C   UNL     1     -16.426   2.414  29.312  0.00  0.00    +0.037 A 
ATOM     28  C   UNL     1     -15.126   2.600  29.785  0.00  0.00    +0.015 A 
ATOM     29  C   UNL     1     -17.466   3.200  29.806  0.00  0.00    +0.015 A 
ATOM     31  C   UNL     1     -14.869   3.571  30.754  0.00  0.00    +0.024 A 
ATOM     32  C   UNL     1     -17.209   4.172  30.774  0.00  0.00    +0.024 A 
ATOM     33  C   UNL     1     -15.910   4.356  31.248  0.00  0.00    +0.029 A 
BRANCH  33  12
ATOM     12  N   UNL     1     -15.650   5.338  32.225  0.00  0.00    -0.336 N 
ATOM     37  C   UNL     1     -14.286   5.662  32.596  0.00  0.00    +0.129 C 
ATOM     38  C   UNL     1     -16.742   6.042  32.868  0.00  0.00    +0.129 C 
ENDBRANCH  33  12
ENDBRANCH  18  22
BRANCH   7   1
ATOM      1  S   UNL     1     -18.252   3.183  23.010  0.00  0.00    +0.030 S 
ATOM      2  O   UNL     1     -17.333   3.675  22.011  0.00  0.00    -0.158 OA
ATOM      3  O   UNL     1     -19.350   3.977  23.502  0.00  0.00    -0.158 OA
ATOM     20  C   UNL     1     -18.895   1.627  22.453  0.00  0.00    +0.215 C 
ENDBRANCH   7   1
BRANCH  13  17
ATOM      4  O   UNL     1     -17.012   5.947  24.974  0.00  0.00    -0.274 OA
ATOM      9  N   UNL     1     -15.301   4.588  24.173  0.00  0.00    -0.302 N 
ATOM     17  C   UNL     1     -16.475   4.849  24.859  0.00  0.00    +0.234 C 
ATOM     39  H   UNL     1     -14.923   3.644  24.168  0.00  0.00    +0.150 HD
BRANCH   9  19
ATOM     19  C   UNL     1     -14.542   5.608  23.488  0.00  0.00    +0.163 C 
BRANCH  19  24
ATOM      6  O   UNL     1     -14.146   4.730  21.257  0.00  0.00    -0.274 OA
ATOM     11  N   UNL     1     -12.472   4.552  22.821  0.00  0.00    -0.328 N 
ATOM     24  C   UNL     1     -13.736   4.912  22.400  0.00  0.00    +0.231 C 
ATOM     41  H   UNL     1     -11.825   4.091  22.188  0.00  0.00    +0.145 HD
ATOM     42  H   UNL     1     -12.138   4.730  23.762  0.00  0.00    +0.145 HD
ENDBRANCH  19  24
BRANCH  19  21
ATOM     21  C   UNL     1     -15.440   6.689  22.877  0.00  0.00    +0.069 C 
BRANCH  21  23
ATOM     10  N   UNL     1     -14.417  10.145  23.636  0.00  0.00    -0.360 N 
ATOM     23  C   UNL     1     -14.839   8.070  22.969  0.00  0.00    -0.020 A 
ATOM     25  C   UNL     1     -13.813   8.605  22.141  0.00  0.00    +0.003 A 
ATOM     26  C   UNL     1     -15.190   9.041  23.879  0.00  0.00    +0.087 A 
ATOM     27  C   UNL     1     -13.567   9.906  22.580  0.00  0.00    +0.047 A 
ATOM     30  C   UNL     1     -13.066   8.102  21.056  0.00  0.00    +0.010 A 
ATOM     34  C   UNL     1     -12.609  10.737  21.986  0.00  0.00    +0.026 A 
ATOM     35  C   UNL     1     -12.105   8.921  20.452  0.00  0.00    +0.001 A 
ATOM     36  C   UNL     1     -11.882  10.218  20.911  0.00  0.00    +0.002 A 
ATOM     40  H   UNL     1     -14.464  11.010  24.155  0.00  0.00    +0.165 HD
ENDBRANCH  21  23
ENDBRANCH  19  21
ENDBRANCH   9  19
ENDBRANCH  13  17
TORSDOF 8
ENDMDL
MODEL 2
REMARK VINA RESULT:      -7.2     18.492     21.272
REMARK  Name = 45361709
REMARK  11 active torsions:
REMARK  status: ('A' for Active; 'I' for Inactive)
REMARK    1  A    between atoms: S_1  and  N_7
REMARK    2  A    between atoms: S_1  and  C_20
REMARK    3  A    between atoms: N_9  and  C_19
REMARK    4  A    between atoms: N_12  and  C_33
REMARK    5  A    between atoms: N_12  and  C_37
REMARK    6  A    between atoms: N_12  and  C_38
REMARK    7  A    between atoms: C_13  and  C_17
REMARK    8  A    between atoms: C_18  and  C_22
REMARK    9  A    between atoms: C_19  and  C_21
REMARK   10  A    between atoms: C_19  and  C_24
REMARK   11  A    between atoms: C_21  and  C_23
REMARK                            x       y       z     vdW  Elec       q    Type
REMARK                         _______ _______ _______ _____ _____    ______ ____
ROOT
ATOM      5  O   UNL     1      -3.368 -11.795  18.880  0.00  0.00    -0.270 OA
ATOM      7  N   UNL     1      -3.639 -10.925  14.017  0.00  0.00    -0.167 NA
ATOM      8  N   UNL     1      -4.066 -10.899  16.838  0.00  0.00    -0.294 N 
ATOM     13  C   UNL     1      -5.018 -11.108  14.579  0.00  0.00    +0.182 C 
ATOM     14  C   UNL     1      -5.118 -10.417  15.939  0.00  0.00    +0.138 C 
ATOM     15  C   UNL     1      -2.588 -11.432  14.962  0.00  0.00    +0.129 C 
ATOM     16  C   UNL     1      -2.715 -10.735  16.311  0.00  0.00    +0.125 C 
ATOM     18  C   UNL     1      -4.259 -11.432  18.113  0.00  0.00    +0.247 C 
ENDROOT
BRANCH  18  22
ATOM     22  C   UNL     1      -5.636 -11.593  18.596  0.00  0.00    +0.037 A 
ATOM     28  C   UNL     1      -6.367 -12.730  18.250  0.00  0.00    +0.015 A 
ATOM     29  C   UNL     1      -6.214 -10.610  19.400  0.00  0.00    +0.015 A 
ATOM     31  C   UNL     1      -7.677 -12.883  18.707  0.00  0.00    +0.024 A 
ATOM     32  C   UNL     1      -7.523 -10.763  19.857  0.00  0.00    +0.024 A 
ATOM     33  C   UNL     1      -8.254 -11.899  19.510  0.00  0.00    +0.029 A 
BRANCH  33  12
ATOM     12  N   UNL     1      -9.577 -12.054  19.974  0.00  0.00    -0.336 N 
ATOM     37  C   UNL     1     -10.466 -10.912  20.053  0.00  0.00    +0.129 C 
ATOM     38  C   UNL     1     -10.067 -13.359  20.371  0.00  0.00    +0.129 C 
ENDBRANCH  33  12
ENDBRANCH  18  22
BRANCH   7   1
ATOM      1  S   UNL     1      -3.393 -11.420  12.385  0.00  0.00    +0.030 S 
ATOM      2  O   UNL     1      -3.152 -10.243  11.585  0.00  0.00    -0.158 OA
ATOM      3  O   UNL     1      -4.407 -12.387  12.045  0.00  0.00    -0.158 OA
ATOM     20  C   UNL     1      -1.854 -12.276  12.590  0.00  0.00    +0.215 C 
ENDBRANCH   7   1
BRANCH  13  17
ATOM      4  O   UNL     1      -5.934  -9.300  13.331  0.00  0.00    -0.274 OA
ATOM      9  N   UNL     1      -6.993 -11.371  13.263  0.00  0.00    -0.302 N 
ATOM     17  C   UNL     1      -6.010 -10.481  13.659  0.00  0.00    +0.234 C 
ATOM     39  H   UNL     1      -6.943 -12.341  13.566  0.00  0.00    +0.150 HD
BRANCH   9  19
ATOM     19  C   UNL     1      -8.085 -11.007  12.390  0.00  0.00    +0.163 C 
BRANCH  19  24
ATOM      6  O   UNL     1      -8.660 -12.716  10.760  0.00  0.00    -0.274 OA
ATOM     11  N   UNL     1      -6.860 -11.351  10.335  0.00  0.00    -0.328 N 
ATOM     24  C   UNL     1      -7.914 -11.802  11.103  0.00  0.00    +0.231 C 
ATOM     41  H   UNL     1      -6.645 -11.786   9.443  0.00  0.00    +0.145 HD
ATOM     42  H   UNL     1      -6.267 -10.580  10.620  0.00  0.00    +0.145 HD
ENDBRANCH  19  24
BRANCH  19  21
ATOM     21  C   UNL     1      -9.453 -11.297  13.019  0.00  0.00    +0.069 C 
BRANCH  21  23
ATOM     10  N   UNL     1     -11.364  -8.292  13.959  0.00  0.00    -0.360 N 
ATOM     23  C   UNL     1     -10.079 -10.075  13.644  0.00  0.00    -0.020 A 
ATOM     25  C   UNL     1      -9.760  -9.514  14.913  0.00  0.00    +0.003 A 
ATOM     26  C   UNL     1     -11.069  -9.301  13.082  0.00  0.00    +0.087 A 
ATOM     27  C   UNL     1     -10.580  -8.397  15.085  0.00  0.00    +0.047 A 
ATOM     30  C   UNL     1      -8.850  -9.852  15.934  0.00  0.00    +0.010 A 
ATOM     34  C   UNL     1     -10.535  -7.597  16.233  0.00  0.00    +0.026 A 
ATOM     35  C   UNL     1      -8.793  -9.060  17.087  0.00  0.00    +0.001 A 
ATOM     36  C   UNL     1      -9.624  -7.950  17.232  0.00  0.00    +0.002 A 
ATOM     40  H   UNL     1     -12.055  -7.572  13.802  0.00  0.00    +0.165 HD
ENDBRANCH  21  23
ENDBRANCH  19  21
ENDBRANCH   9  19
ENDBRANCH  13  17
TORSDOF 8
ENDMDL
MODEL 3
REMARK VINA RESULT:      -7.1     27.934     31.817
REMARK  Name = 45361709
REMARK  11 active torsions:
REMARK  status: ('A' for Active; 'I' for Inactive)
REMARK    1  A    between atoms: S_1  and  N_7
REMARK    2  A    between atoms: S_1  and  C_20
REMARK    3  A    between atoms: N_9  and  C_19
REMARK    4  A    between atoms: N_12  and  C_33
REMARK    5  A    between atoms: N_12  and  C_37
REMARK    6  A    between atoms: N_12  and  C_38
REMARK    7  A    between atoms: C_13  and  C_17
REMARK    8  A    between atoms: C_18  and  C_22
REMARK    9  A    between atoms: C_19  and  C_21
REMARK   10  A    between atoms: C_19  and  C_24
REMARK   11  A    between atoms: C_21  and  C_23
REMARK                            x       y       z     vdW  Elec       q    Type
REMARK                         _______ _______ _______ _____ _____    ______ ____
ROOT
ATOM      5  O   UNL     1      14.304   8.446  14.839  0.00  0.00    -0.270 OA
ATOM      7  N   UNL     1      14.644   9.040  19.739  0.00  0.00    -0.167 NA
ATOM      8  N   UNL     1      14.072   9.387  16.965  0.00  0.00    -0.294 N 
ATOM     13  C   UNL     1      14.993  10.324  19.045  0.00  0.00    +0.182 C 
ATOM     14  C   UNL     1      14.050  10.545  17.862  0.00  0.00    +0.138 C 
ATOM     15  C   UNL     1      14.680   7.876  18.791  0.00  0.00    +0.129 C 
ATOM     16  C   UNL     1      13.740   8.125  17.619  0.00  0.00    +0.125 C 
ATOM     18  C   UNL     1      14.330   9.417  15.594  0.00  0.00    +0.247 C 
ENDROOT
BRANCH  18  22
ATOM     22  C   UNL     1      14.675  10.706  14.982  0.00  0.00    +0.037 A 
ATOM     28  C   UNL     1      16.011  11.097  14.888  0.00  0.00    +0.015 A 
ATOM     29  C   UNL     1      13.668  11.541  14.496  0.00  0.00    +0.015 A 
ATOM     31  C   UNL     1      16.340  12.323  14.308  0.00  0.00    +0.024 A 
ATOM     32  C   UNL     1      13.997  12.766  13.916  0.00  0.00    +0.024 A 
ATOM     33  C   UNL     1      15.332  13.157  13.823  0.00  0.00    +0.029 A 
BRANCH  33  12
ATOM     12  N   UNL     1      15.664  14.396  13.235  0.00  0.00    -0.336 N 
ATOM     37  C   UNL     1      16.955  15.006  13.487  0.00  0.00    +0.129 C 
ATOM     38  C   UNL     1      14.722  15.072  12.366  0.00  0.00    +0.129 C 
ENDBRANCH  33  12
ENDBRANCH  18  22
BRANCH   7   1
ATOM      1  S   UNL     1      15.432   8.729  21.240  0.00  0.00    +0.030 S 
ATOM      2  O   UNL     1      14.665   9.353  22.292  0.00  0.00    -0.158 OA
ATOM      3  O   UNL     1      16.844   8.968  21.071  0.00  0.00    -0.158 OA
ATOM     20  C   UNL     1      15.170   6.978  21.327  0.00  0.00    +0.215 C 
ENDBRANCH   7   1
BRANCH  13  17
ATOM      4  O   UNL     1      15.788  12.019  20.515  0.00  0.00    -0.274 OA
ATOM      9  N   UNL     1      13.493  11.758  20.226  0.00  0.00    -0.302 N 
ATOM     17  C   UNL     1      14.825  11.458  19.998  0.00  0.00    +0.234 C 
ATOM     39  H   UNL     1      12.772  11.252  19.718  0.00  0.00    +0.150 HD
BRANCH   9  19
ATOM     19  C   UNL     1      13.060  12.801  21.127  0.00  0.00    +0.163 C 
BRANCH  19  24
ATOM      6  O   UNL     1      12.488  14.519  19.506  0.00  0.00    -0.274 OA
ATOM     11  N   UNL     1      14.297  14.863  20.881  0.00  0.00    -0.328 N 
ATOM     24  C   UNL     1      13.236  14.125  20.398  0.00  0.00    +0.231 C 
ATOM     41  H   UNL     1      14.516  15.774  20.491  0.00  0.00    +0.145 HD
ATOM     42  H   UNL     1      14.892  14.536  21.635  0.00  0.00    +0.145 HD
ENDBRANCH  19  24
BRANCH  19  21
ATOM     21  C   UNL     1      11.602  12.622  21.564  0.00  0.00    +0.069 C 
BRANCH  21  23
ATOM     10  N   UNL     1      11.028   9.843  23.913  0.00  0.00    -0.360 N 
ATOM     23  C   UNL     1      11.365  11.320  22.290  0.00  0.00    -0.020 A 
ATOM     25  C   UNL     1      11.244  10.030  21.701  0.00  0.00    +0.003 A 
ATOM     26  C   UNL     1      11.228  11.172  23.652  0.00  0.00    +0.087 A 
ATOM     27  C   UNL     1      11.032   9.123  22.740  0.00  0.00    +0.047 A 
ATOM     30  C   UNL     1      11.292   9.548  20.377  0.00  0.00    +0.010 A 
ATOM     34  C   UNL     1      10.867   7.749  22.522  0.00  0.00    +0.026 A 
ATOM     35  C   UNL     1      11.129   8.177  20.144  0.00  0.00    +0.001 A 
ATOM     36  C   UNL     1      10.920   7.294  21.202  0.00  0.00    +0.002 A 
ATOM     40  H   UNL     1      10.897   9.446  24.833  0.00  0.00    +0.165 HD
ENDBRANCH  21  23
ENDBRANCH  19  21
ENDBRANCH   9  19
ENDBRANCH  13  17
TORSDOF 8
ENDMDL
MODEL 4
REMARK VINA RESULT:      -7.0     17.241     20.195
REMARK  Name = 45361709
REMARK  11 active torsions:
REMARK  status: ('A' for Active; 'I' for Inactive)
REMARK    1  A    between atoms: S_1  and  N_7
REMARK    2  A    between atoms: S_1  and  C_20
REMARK    3  A    between atoms: N_9  and  C_19
REMARK    4  A    between atoms: N_12  and  C_33
REMARK    5  A    between atoms: N_12  and  C_37
REMARK    6  A    between atoms: N_12  and  C_38
REMARK    7  A    between atoms: C_13  and  C_17
REMARK    8  A    between atoms: C_18  and  C_22
REMARK    9  A    between atoms: C_19  and  C_21
REMARK   10  A    between atoms: C_19  and  C_24
REMARK   11  A    between atoms: C_21  and  C_23
REMARK                            x       y       z     vdW  Elec       q    Type
REMARK                         _______ _______ _______ _____ _____    ______ ____
ROOT
ATOM      5  O   UNL     1     -13.353  -9.170  18.145  0.00  0.00    -0.270 OA
ATOM      7  N   UNL     1      -8.816 -11.071  18.679  0.00  0.00    -0.167 NA
ATOM      8  N   UNL     1     -11.023  -9.341  18.149  0.00  0.00    -0.294 N 
ATOM     13  C   UNL     1      -8.909 -10.335  17.375  0.00  0.00    +0.182 C 
ATOM     14  C   UNL     1      -9.711  -9.047  17.564  0.00  0.00    +0.138 C 
ATOM     15  C   UNL     1     -10.176 -11.358  19.246  0.00  0.00    +0.129 C 
ATOM     16  C   UNL     1     -10.957 -10.061  19.417  0.00  0.00    +0.125 C 
ATOM     18  C   UNL     1     -12.258  -8.958  17.626  0.00  0.00    +0.247 C 
ENDROOT
BRANCH  18  22
ATOM     22  C   UNL     1     -12.276  -8.249  16.340  0.00  0.00    +0.037 A 
ATOM     28  C   UNL     1     -12.294  -8.971  15.146  0.00  0.00    +0.015 A 
ATOM     29  C   UNL     1     -12.273  -6.854  16.311  0.00  0.00    +0.015 A 
ATOM     31  C   UNL     1     -12.309  -8.298  13.924  0.00  0.00    +0.024 A 
ATOM     32  C   UNL     1     -12.289  -6.181  15.089  0.00  0.00    +0.024 A 
ATOM     33  C   UNL     1     -12.306  -6.903  13.896  0.00  0.00    +0.029 A 
BRANCH  33  12
ATOM     12  N   UNL     1     -12.323  -6.223  12.661  0.00  0.00    -0.336 N 
ATOM     37  C   UNL     1     -12.340  -6.963  11.415  0.00  0.00    +0.129 C 
ATOM     38  C   UNL     1     -12.331  -4.774  12.621  0.00  0.00    +0.129 C 
ENDBRANCH  33  12
ENDBRANCH  18  22
BRANCH   7   1
ATOM      1  S   UNL     1      -7.750 -12.424  18.733  0.00  0.00    +0.030 S 
ATOM      2  O   UNL     1      -6.489 -11.985  19.283  0.00  0.00    -0.158 OA
ATOM      3  O   UNL     1      -7.839 -13.124  17.476  0.00  0.00    -0.158 OA
ATOM     20  C   UNL     1      -8.590 -13.383  19.965  0.00  0.00    +0.215 C 
ENDBRANCH   7   1
BRANCH  13  17
ATOM      4  O   UNL     1      -6.853  -9.144  17.514  0.00  0.00    -0.274 OA
ATOM      9  N   UNL     1      -7.171 -10.650  15.769  0.00  0.00    -0.302 N 
ATOM     17  C   UNL     1      -7.537  -9.971  16.918  0.00  0.00    +0.234 C 
ATOM     39  H   UNL     1      -7.801 -11.342  15.373  0.00  0.00    +0.150 HD
BRANCH   9  19
ATOM     19  C   UNL     1      -5.899 -10.460  15.110  0.00  0.00    +0.163 C 
BRANCH  19  24
ATOM      6  O   UNL     1      -4.675 -12.116  16.401  0.00  0.00    -0.274 OA
ATOM     11  N   UNL     1      -3.988  -9.925  16.491  0.00  0.00    -0.328 N 
ATOM     24  C   UNL     1      -4.821 -10.942  16.070  0.00  0.00    +0.231 C 
ATOM     41  H   UNL     1      -3.218 -10.113  17.124  0.00  0.00    +0.145 HD
ATOM     42  H   UNL     1      -4.106  -8.963  16.190  0.00  0.00    +0.145 HD
ENDBRANCH  19  24
BRANCH  19  21
ATOM     21  C   UNL     1      -5.813 -11.224  13.784  0.00  0.00    +0.069 C 
BRANCH  21  23
ATOM     10  N   UNL     1      -7.053  -9.050  11.082  0.00  0.00    -0.360 N 
ATOM     23  C   UNL     1      -6.049 -10.340  12.584  0.00  0.00    -0.020 A 
ATOM     25  C   UNL     1      -5.078  -9.932  11.627  0.00  0.00    +0.003 A 
ATOM     26  C   UNL     1      -7.254  -9.782  12.221  0.00  0.00    +0.087 A 
ATOM     27  C   UNL     1      -5.733  -9.124  10.696  0.00  0.00    +0.047 A 
ATOM     30  C   UNL     1      -3.699 -10.173  11.465  0.00  0.00    +0.010 A 
ATOM     34  C   UNL     1      -5.076  -8.542   9.605  0.00  0.00    +0.026 A 
ATOM     35  C   UNL     1      -3.029  -9.598  10.378  0.00  0.00    +0.001 A 
ATOM     36  C   UNL     1      -3.710  -8.796   9.464  0.00  0.00    +0.002 A 
ATOM     40  H   UNL     1      -7.769  -8.532  10.592  0.00  0.00    +0.165 HD
ENDBRANCH  21  23
ENDBRANCH  19  21
ENDBRANCH   9  19
ENDBRANCH  13  17
TORSDOF 8
ENDMDL
MODEL 5
REMARK VINA RESULT:      -7.0     19.015     22.771
REMARK  Name = 45361709
REMARK  11 active torsions:
REMARK  status: ('A' for Active; 'I' for Inactive)
REMARK    1  A    between atoms: S_1  and  N_7
REMARK    2  A    between atoms: S_1  and  C_20
REMARK    3  A    between atoms: N_9  and  C_19
REMARK    4  A    between atoms: N_12  and  C_33
REMARK    5  A    between atoms: N_12  and  C_37
REMARK    6  A    between atoms: N_12  and  C_38
REMARK    7  A    between atoms: C_13  and  C_17
REMARK    8  A    between atoms: C_18  and  C_22
REMARK    9  A    between atoms: C_19  and  C_21
REMARK   10  A    between atoms: C_19  and  C_24
REMARK   11  A    between atoms: C_21  and  C_23
REMARK                            x       y       z     vdW  Elec       q    Type
REMARK                         _______ _______ _______ _____ _____    ______ ____
ROOT
ATOM      5  O   UNL     1      -2.090  -9.212  10.256  0.00  0.00    -0.270 OA
ATOM      7  N   UNL     1      -3.627 -11.140  14.545  0.00  0.00    -0.167 NA
ATOM      8  N   UNL     1      -3.306 -10.494  11.785  0.00  0.00    -0.294 N 
ATOM     13  C   UNL     1      -4.810 -10.734  13.716  0.00  0.00    +0.182 C 
ATOM     14  C   UNL     1      -4.561 -11.090  12.251  0.00  0.00    +0.138 C 
ATOM     15  C   UNL     1      -2.361 -10.510  14.041  0.00  0.00    +0.129 C 
ATOM     16  C   UNL     1      -2.141 -10.872  12.578  0.00  0.00    +0.125 C 
ATOM     18  C   UNL     1      -3.154  -9.674  10.666  0.00  0.00    +0.247 C 
ENDROOT
BRANCH  18  22
ATOM     22  C   UNL     1      -4.355  -9.307   9.907  0.00  0.00    +0.037 A 
ATOM     28  C   UNL     1      -4.698 -10.019   8.757  0.00  0.00    +0.015 A 
ATOM     29  C   UNL     1      -5.154  -8.245  10.333  0.00  0.00    +0.015 A 
ATOM     31  C   UNL     1      -5.838  -9.669   8.033  0.00  0.00    +0.024 A 
ATOM     32  C   UNL     1      -6.295  -7.896   9.610  0.00  0.00    +0.024 A 
ATOM     33  C   UNL     1      -6.636  -8.607   8.460  0.00  0.00    +0.029 A 
BRANCH  33  12
ATOM     12  N   UNL     1      -7.790  -8.255   7.730  0.00  0.00    -0.336 N 
ATOM     37  C   UNL     1      -9.026  -7.938   8.418  0.00  0.00    +0.129 C 
ATOM     38  C   UNL     1      -7.754  -8.199   6.282  0.00  0.00    +0.129 C 
ENDBRANCH  33  12
ENDBRANCH  18  22
BRANCH   7   1
ATOM      1  S   UNL     1      -3.808 -11.047  16.256  0.00  0.00    +0.030 S 
ATOM      2  O   UNL     1      -4.259 -12.332  16.735  0.00  0.00    -0.158 OA
ATOM      3  O   UNL     1      -4.498  -9.821  16.574  0.00  0.00    -0.158 OA
ATOM     20  C   UNL     1      -2.102 -10.857  16.700  0.00  0.00    +0.215 C 
ENDBRANCH   7   1
BRANCH  13  17
ATOM      4  O   UNL     1      -6.285 -12.601  13.764  0.00  0.00    -0.274 OA
ATOM      9  N   UNL     1      -6.760 -10.751  15.095  0.00  0.00    -0.302 N 
ATOM     17  C   UNL     1      -6.014 -11.479  14.183  0.00  0.00    +0.234 C 
ATOM     39  H   UNL     1      -6.426  -9.841  15.402  0.00  0.00    +0.150 HD
BRANCH   9  19
ATOM     19  C   UNL     1      -7.986 -11.239  15.682  0.00  0.00    +0.163 C 
BRANCH  19  24
ATOM      6  O   UNL     1      -7.776 -13.465  16.634  0.00  0.00    -0.274 OA
ATOM     11  N   UNL     1      -6.982 -11.675  17.837  0.00  0.00    -0.328 N 
ATOM     24  C   UNL     1      -7.600 -12.255  16.748  0.00  0.00    +0.231 C 
ATOM     41  H   UNL     1      -6.660 -12.243  18.615  0.00  0.00    +0.145 HD
ATOM     42  H   UNL     1      -6.822 -10.676  17.907  0.00  0.00    +0.145 HD
ENDBRANCH  19  24
BRANCH  19  21
ATOM     21  C   UNL     1      -8.824 -10.112  16.297  0.00  0.00    +0.069 C 
BRANCH  21  23
ATOM     10  N   UNL     1     -11.101  -9.231  13.539  0.00  0.00    -0.360 N 
ATOM     23  C   UNL     1      -9.803  -9.512  15.319  0.00  0.00    -0.020 A 
ATOM     25  C   UNL     1     -10.469  -8.260  15.445  0.00  0.00    +0.003 A 
ATOM     26  C   UNL     1     -10.212 -10.085  14.135  0.00  0.00    +0.087 A 
ATOM     27  C   UNL     1     -11.277  -8.109  14.317  0.00  0.00    +0.047 A 
ATOM     30  C   UNL     1     -10.462  -7.239  16.417  0.00  0.00    +0.010 A 
ATOM     34  C   UNL     1     -12.081  -6.982  14.109  0.00  0.00    +0.026 A 
ATOM     35  C   UNL     1     -11.261  -6.107  16.223  0.00  0.00    +0.001 A 
ATOM     36  C   UNL     1     -12.058  -5.982  15.085  0.00  0.00    +0.002 A 
ATOM     40  H   UNL     1     -11.561  -9.398  12.655  0.00  0.00    +0.165 HD
ENDBRANCH  21  23
ENDBRANCH  19  21
ENDBRANCH   9  19
ENDBRANCH  13  17
TORSDOF 8
ENDMDL
MODEL 6
REMARK VINA RESULT:      -6.9     19.211     22.078
REMARK  Name = 45361709
REMARK  11 active torsions:
REMARK  status: ('A' for Active; 'I' for Inactive)
REMARK    1  A    between atoms: S_1  and  N_7
REMARK    2  A    between atoms: S_1  and  C_20
REMARK    3  A    between atoms: N_9  and  C_19
REMARK    4  A    between atoms: N_12  and  C_33
REMARK    5  A    between atoms: N_12  and  C_37
REMARK    6  A    between atoms: N_12  and  C_38
REMARK    7  A    between atoms: C_13  and  C_17
REMARK    8  A    between atoms: C_18  and  C_22
REMARK    9  A    between atoms: C_19  and  C_21
REMARK   10  A    between atoms: C_19  and  C_24
REMARK   11  A    between atoms: C_21  and  C_23
REMARK                            x       y       z     vdW  Elec       q    Type
REMARK                         _______ _______ _______ _____ _____    ______ ____
ROOT
ATOM      5  O   UNL     1      -2.021 -12.683  14.461  0.00  0.00    -0.270 OA
ATOM      7  N   UNL     1      -4.521 -10.815  10.623  0.00  0.00    -0.167 NA
ATOM      8  N   UNL     1      -3.349 -11.242  13.188  0.00  0.00    -0.294 N 
ATOM     13  C   UNL     1      -5.358 -10.731  11.865  0.00  0.00    +0.182 C 
ATOM     14  C   UNL     1      -4.483 -10.325  13.051  0.00  0.00    +0.138 C 
ATOM     15  C   UNL     1      -3.371 -11.764  10.798  0.00  0.00    +0.129 C 
ATOM     16  C   UNL     1      -2.521 -11.344  11.991  0.00  0.00    +0.125 C 
ATOM     18  C   UNL     1      -3.000 -11.948  14.340  0.00  0.00    +0.247 C 
ENDROOT
BRANCH  18  22
ATOM     22  C   UNL     1      -3.870 -11.828  15.517  0.00  0.00    +0.037 A 
ATOM     28  C   UNL     1      -4.901 -12.747  15.718  0.00  0.00    +0.015 A 
ATOM     29  C   UNL     1      -3.669 -10.795  16.432  0.00  0.00    +0.015 A 
ATOM     31  C   UNL     1      -5.730 -12.632  16.835  0.00  0.00    +0.024 A 
ATOM     32  C   UNL     1      -4.497 -10.680  17.549  0.00  0.00    +0.024 A 
ATOM     33  C   UNL     1      -5.527 -11.599  17.749  0.00  0.00    +0.029 A 
BRANCH  33  12
ATOM     12  N   UNL     1      -6.364 -11.483  18.879  0.00  0.00    -0.336 N 
ATOM     37  C   UNL     1      -6.317 -10.296  19.710  0.00  0.00    +0.129 C 
ATOM     38  C   UNL     1      -7.286 -12.548  19.222  0.00  0.00    +0.129 C 
ENDBRANCH  33  12
ENDBRANCH  18  22
BRANCH   7   1
ATOM      1  S   UNL     1      -5.360 -11.020   9.132  0.00  0.00    +0.030 S 
ATOM      2  O   UNL     1      -5.496  -9.726   8.506  0.00  0.00    -0.158 OA
ATOM      3  O   UNL     1      -6.490 -11.887   9.362  0.00  0.00    -0.158 OA
ATOM     20  C   UNL     1      -4.126 -11.937   8.248  0.00  0.00    +0.215 C 
ENDBRANCH   7   1
BRANCH  13  17
ATOM      4  O   UNL     1      -6.132  -8.496  11.597  0.00  0.00    -0.274 OA
ATOM      9  N   UNL     1      -7.682 -10.231  11.633  0.00  0.00    -0.302 N 
ATOM     17  C   UNL     1      -6.409  -9.689  11.678  0.00  0.00    +0.234 C 
ATOM     39  H   UNL     1      -7.798 -11.241  11.674  0.00  0.00    +0.150 HD
BRANCH   9  19
ATOM     19  C   UNL     1      -8.877  -9.434  11.482  0.00  0.00    +0.163 C 
BRANCH  19  24
ATOM      6  O   UNL     1      -9.409  -8.316   9.391  0.00  0.00    -0.274 OA
ATOM     11  N   UNL     1      -9.127 -10.596   9.377  0.00  0.00    -0.328 N 
ATOM     24  C   UNL     1      -9.183  -9.362   9.992  0.00  0.00    +0.231 C 
ATOM     41  H   UNL     1      -9.298 -10.688   8.381  0.00  0.00    +0.145 HD
ATOM     42  H   UNL     1      -8.916 -11.450   9.883  0.00  0.00    +0.145 HD
ENDBRANCH  19  24
BRANCH  19  21
ATOM     21  C   UNL     1     -10.068 -10.023  12.244  0.00  0.00    +0.069 C 
BRANCH  21  23
ATOM     10  N   UNL     1     -11.482  -7.873  14.880  0.00  0.00    -0.360 N 
ATOM     23  C   UNL     1     -10.422  -9.230  13.478  0.00  0.00    -0.020 A 
ATOM     25  C   UNL     1      -9.694  -9.194  14.701  0.00  0.00    +0.003 A 
ATOM     26  C   UNL     1     -11.517  -8.407  13.620  0.00  0.00    +0.087 A 
ATOM     27  C   UNL     1     -10.381  -8.337  15.562  0.00  0.00    +0.047 A 
ATOM     30  C   UNL     1      -8.514  -9.813  15.158  0.00  0.00    +0.010 A 
ATOM     34  C   UNL     1      -9.943  -8.064  16.864  0.00  0.00    +0.026 A 
ATOM     35  C   UNL     1      -8.064  -9.550  16.457  0.00  0.00    +0.001 A 
ATOM     36  C   UNL     1      -8.770  -8.688  17.295  0.00  0.00    +0.002 A 
ATOM     40  H   UNL     1     -12.165  -7.231  15.255  0.00  0.00    +0.165 HD
ENDBRANCH  21  23
ENDBRANCH  19  21
ENDBRANCH   9  19
ENDBRANCH  13  17
TORSDOF 8
ENDMDL
MODEL 7
REMARK VINA RESULT:      -6.8     19.037     22.361
REMARK  Name = 45361709
REMARK  11 active torsions:
REMARK  status: ('A' for Active; 'I' for Inactive)
REMARK    1  A    between atoms: S_1  and  N_7
REMARK    2  A    between atoms: S_1  and  C_20
REMARK    3  A    between atoms: N_9  and  C_19
REMARK    4  A    between atoms: N_12  and  C_33
REMARK    5  A    between atoms: N_12  and  C_37
REMARK    6  A    between atoms: N_12  and  C_38
REMARK    7  A    between atoms: C_13  and  C_17
REMARK    8  A    between atoms: C_18  and  C_22
REMARK    9  A    between atoms: C_19  and  C_21
REMARK   10  A    between atoms: C_19  and  C_24
REMARK   11  A    between atoms: C_21  and  C_23
REMARK                            x       y       z     vdW  Elec       q    Type
REMARK                         _______ _______ _______ _____ _____    ______ ____
ROOT
ATOM      5  O   UNL     1     -10.403  -9.984  11.500  0.00  0.00    -0.270 OA
ATOM      7  N   UNL     1     -10.071 -10.405  16.418  0.00  0.00    -0.167 NA
ATOM      8  N   UNL     1      -9.629  -9.708  13.687  0.00  0.00    -0.294 N 
ATOM     13  C   UNL     1      -8.715 -10.575  15.800  0.00  0.00    +0.182 C 
ATOM     14  C   UNL     1      -8.539  -9.576  14.657  0.00  0.00    +0.138 C 
ATOM     15  C   UNL     1     -11.163 -10.550  15.397  0.00  0.00    +0.129 C 
ATOM     16  C   UNL     1     -10.959  -9.550  14.266  0.00  0.00    +0.125 C 
ATOM     18  C   UNL     1      -9.484  -9.917  12.315  0.00  0.00    +0.247 C 
ENDROOT
BRANCH  18  22
ATOM     22  C   UNL     1      -8.128 -10.086  11.779  0.00  0.00    +0.037 A 
ATOM     28  C   UNL     1      -7.419  -8.977  11.315  0.00  0.00    +0.015 A 
ATOM     29  C   UNL     1      -7.549 -11.354  11.730  0.00  0.00    +0.015 A 
ATOM     31  C   UNL     1      -6.131  -9.137  10.803  0.00  0.00    +0.024 A 
ATOM     32  C   UNL     1      -6.261 -11.514  11.218  0.00  0.00    +0.024 A 
ATOM     33  C   UNL     1      -5.553 -10.406  10.755  0.00  0.00    +0.029 A 
BRANCH  33  12
ATOM     12  N   UNL     1      -4.250 -10.567  10.239  0.00  0.00    -0.336 N 
ATOM     37  C   UNL     1      -3.420  -9.411   9.964  0.00  0.00    +0.129 C 
ATOM     38  C   UNL     1      -3.722 -11.893   9.982  0.00  0.00    +0.129 C 
ENDBRANCH  33  12
ENDBRANCH  18  22
BRANCH   7   1
ATOM      1  S   UNL     1     -10.375 -11.271  17.877  0.00  0.00    +0.030 S 
ATOM      2  O   UNL     1      -9.963 -10.447  18.988  0.00  0.00    -0.158 OA
ATOM      3  O   UNL     1      -9.908 -12.625  17.708  0.00  0.00    -0.158 OA
ATOM     20  C   UNL     1     -12.147 -11.283  17.822  0.00  0.00    +0.215 C 
ENDBRANCH   7   1
BRANCH  13  17
ATOM      4  O   UNL     1      -7.457  -9.170  17.252  0.00  0.00    -0.274 OA
ATOM      9  N   UNL     1      -6.991 -11.450  17.202  0.00  0.00    -0.302 N 
ATOM     17  C   UNL     1      -7.670 -10.303  16.828  0.00  0.00    +0.234 C 
ATOM     39  H   UNL     1      -7.272 -12.347  16.813  0.00  0.00    +0.150 HD
BRANCH   9  19
ATOM     19  C   UNL     1      -5.916 -11.454  18.167  0.00  0.00    +0.163 C 
BRANCH  19  24
ATOM      6  O   UNL     1      -6.334 -10.783  20.464  0.00  0.00    -0.274 OA
ATOM     11  N   UNL     1      -7.439 -12.620  19.638  0.00  0.00    -0.328 N 
ATOM     24  C   UNL     1      -6.551 -11.568  19.545  0.00  0.00    +0.231 C 
ATOM     41  H   UNL     1      -7.942 -12.800  20.501  0.00  0.00    +0.145 HD
ATOM     42  H   UNL     1      -7.626 -13.247  18.862  0.00  0.00    +0.145 HD
ENDBRANCH  19  24
BRANCH  19  21
ATOM     21  C   UNL     1      -4.932 -12.606  17.935  0.00  0.00    +0.069 C 
BRANCH  21  23
ATOM     10  N   UNL     1      -4.197 -13.368  14.407  0.00  0.00    -0.360 N 
ATOM     23  C   UNL     1      -4.458 -12.690  16.505  0.00  0.00    -0.020 A 
ATOM     25  C   UNL     1      -3.533 -11.817  15.865  0.00  0.00    +0.003 A 
ATOM     26  C   UNL     1      -4.848 -13.634  15.581  0.00  0.00    +0.087 A 
ATOM     27  C   UNL     1      -3.388 -12.264  14.551  0.00  0.00    +0.047 A 
ATOM     30  C   UNL     1      -2.805 -10.684  16.281  0.00  0.00    +0.010 A 
ATOM     34  C   UNL     1      -2.546 -11.634  13.627  0.00  0.00    +0.026 A 
ATOM     35  C   UNL     1      -1.959 -10.044  15.368  0.00  0.00    +0.001 A 
ATOM     36  C   UNL     1      -1.833 -10.513  14.062  0.00  0.00    +0.002 A 
ATOM     40  H   UNL     1      -4.295 -13.905  13.556  0.00  0.00    +0.165 HD
ENDBRANCH  21  23
ENDBRANCH  19  21
ENDBRANCH   9  19
ENDBRANCH  13  17
TORSDOF 8
ENDMDL
MODEL 8
REMARK VINA RESULT:      -6.7     20.209     23.117
REMARK  Name = 45361709
REMARK  11 active torsions:
REMARK  status: ('A' for Active; 'I' for Inactive)
REMARK    1  A    between atoms: S_1  and  N_7
REMARK    2  A    between atoms: S_1  and  C_20
REMARK    3  A    between atoms: N_9  and  C_19
REMARK    4  A    between atoms: N_12  and  C_33
REMARK    5  A    between atoms: N_12  and  C_37
REMARK    6  A    between atoms: N_12  and  C_38
REMARK    7  A    between atoms: C_13  and  C_17
REMARK    8  A    between atoms: C_18  and  C_22
REMARK    9  A    between atoms: C_19  and  C_21
REMARK   10  A    between atoms: C_19  and  C_24
REMARK   11  A    between atoms: C_21  and  C_23
REMARK                            x       y       z     vdW  Elec       q    Type
REMARK                         _______ _______ _______ _____ _____    ______ ____
ROOT
ATOM      5  O   UNL     1     -10.238  -9.734  14.381  0.00  0.00    -0.270 OA
ATOM      7  N   UNL     1      -7.109  -9.800  10.549  0.00  0.00    -0.167 NA
ATOM      8  N   UNL     1      -8.524 -10.418  12.948  0.00  0.00    -0.294 N 
ATOM     13  C   UNL     1      -6.364 -10.083  11.820  0.00  0.00    +0.182 C 
ATOM     14  C   UNL     1      -7.198 -10.998  12.716  0.00  0.00    +0.138 C 
ATOM     15  C   UNL     1      -8.460  -9.204  10.825  0.00  0.00    +0.129 C 
ATOM     16  C   UNL     1      -9.267 -10.130  11.726  0.00  0.00    +0.125 C 
ATOM     18  C   UNL     1      -9.108 -10.181  14.193  0.00  0.00    +0.247 C 
ENDROOT
BRANCH  18  22
ATOM     22  C   UNL     1      -8.317 -10.471  15.396  0.00  0.00    +0.037 A 
ATOM     28  C   UNL     1      -7.256  -9.637  15.751  0.00  0.00    +0.015 A 
ATOM     29  C   UNL     1      -8.625 -11.581  16.183  0.00  0.00    +0.015 A 
ATOM     31  C   UNL     1      -6.504  -9.914  16.893  0.00  0.00    +0.024 A 
ATOM     32  C   UNL     1      -7.873 -11.857  17.325  0.00  0.00    +0.024 A 
ATOM     33  C   UNL     1      -6.812 -11.024  17.679  0.00  0.00    +0.029 A 
BRANCH  33  12
ATOM     12  N   UNL     1      -6.052 -11.303  18.834  0.00  0.00    -0.336 N 
ATOM     37  C   UNL     1      -6.351 -10.639  20.088  0.00  0.00    +0.129 C 
ATOM     38  C   UNL     1      -4.966 -12.261  18.785  0.00  0.00    +0.129 C 
ENDBRANCH  33  12
ENDBRANCH  18  22
BRANCH   7   1
ATOM      1  S   UNL     1      -6.241  -8.985   9.303  0.00  0.00    +0.030 S 
ATOM      2  O   UNL     1      -5.827  -9.963   8.325  0.00  0.00    -0.158 OA
ATOM      3  O   UNL     1      -5.310  -8.073   9.920  0.00  0.00    -0.158 OA
ATOM     20  C   UNL     1      -7.573  -8.041   8.615  0.00  0.00    +0.215 C 
ENDBRANCH   7   1
BRANCH  13  17
ATOM      4  O   UNL     1      -5.067 -11.843  10.878  0.00  0.00    -0.274 OA
ATOM      9  N   UNL     1      -3.982 -10.106  11.982  0.00  0.00    -0.302 N 
ATOM     17  C   UNL     1      -5.087 -10.781  11.494  0.00  0.00    +0.234 C 
ATOM     39  H   UNL     1      -4.107  -9.212  12.452  0.00  0.00    +0.150 HD
BRANCH   9  19
ATOM     19  C   UNL     1      -2.628 -10.584  11.821  0.00  0.00    +0.163 C 
BRANCH  19  24
ATOM      6  O   UNL     1      -0.703  -9.170  11.369  0.00  0.00    -0.274 OA
ATOM     11  N   UNL     1      -2.564  -8.952  10.038  0.00  0.00    -0.328 N 
ATOM     24  C   UNL     1      -1.853  -9.497  11.088  0.00  0.00    +0.231 C 
ATOM     41  H   UNL     1      -2.157  -8.225   9.458  0.00  0.00    +0.145 HD
ATOM     42  H   UNL     1      -3.505  -9.248   9.804  0.00  0.00    +0.145 HD
ENDBRANCH  19  24
BRANCH  19  21
ATOM     21  C   UNL     1      -1.961 -10.901  13.164  0.00  0.00    +0.069 C 
BRANCH  21  23
ATOM     10  N   UNL     1      -1.696 -14.510  13.849  0.00  0.00    -0.360 N 
ATOM     23  C   UNL     1      -2.112 -12.349  13.563  0.00  0.00    -0.020 A 
ATOM     25  C   UNL     1      -3.224 -12.932  14.233  0.00  0.00    +0.003 A 
ATOM     26  C   UNL     1      -1.189 -13.346  13.340  0.00  0.00    +0.087 A 
ATOM     27  C   UNL     1      -2.937 -14.288  14.400  0.00  0.00    +0.047 A 
ATOM     30  C   UNL     1      -4.450 -12.433  14.716  0.00  0.00    +0.010 A 
ATOM     34  C   UNL     1      -3.820 -15.175  15.028  0.00  0.00    +0.026 A 
ATOM     35  C   UNL     1      -5.342 -13.308  15.345  0.00  0.00    +0.001 A 
ATOM     36  C   UNL     1      -5.030 -14.658  15.498  0.00  0.00    +0.002 A 
ATOM     40  H   UNL     1      -1.229 -15.406  13.823  0.00  0.00    +0.165 HD
ENDBRANCH  21  23
ENDBRANCH  19  21
ENDBRANCH   9  19
ENDBRANCH  13  17
TORSDOF 8
ENDMDL
MODEL 9
REMARK VINA RESULT:      -6.6     18.182     21.799
REMARK  Name = 45361709
REMARK  11 active torsions:
REMARK  status: ('A' for Active; 'I' for Inactive)
REMARK    1  A    between atoms: S_1  and  N_7
REMARK    2  A    between atoms: S_1  and  C_20
REMARK    3  A    between atoms: N_9  and  C_19
REMARK    4  A    between atoms: N_12  and  C_33
REMARK    5  A    between atoms: N_12  and  C_37
REMARK    6  A    between atoms: N_12  and  C_38
REMARK    7  A    between atoms: C_13  and  C_17
REMARK    8  A    between atoms: C_18  and  C_22
REMARK    9  A    between atoms: C_19  and  C_21
REMARK   10  A    between atoms: C_19  and  C_24
REMARK   11  A    between atoms: C_21  and  C_23
REMARK                            x       y       z     vdW  Elec       q    Type
REMARK                         _______ _______ _______ _____ _____    ______ ____
ROOT
ATOM      5  O   UNL     1      -2.211 -10.321  12.934  0.00  0.00    -0.270 OA
ATOM      7  N   UNL     1      -4.784 -11.843  16.876  0.00  0.00    -0.167 NA
ATOM      8  N   UNL     1      -3.835 -11.400  14.222  0.00  0.00    -0.294 N 
ATOM     13  C   UNL     1      -5.725 -11.392  15.798  0.00  0.00    +0.182 C 
ATOM     14  C   UNL     1      -5.210 -11.859  14.436  0.00  0.00    +0.138 C 
ATOM     15  C   UNL     1      -3.387 -11.353  16.627  0.00  0.00    +0.129 C 
ATOM     16  C   UNL     1      -2.902 -11.823  15.262  0.00  0.00    +0.125 C 
ATOM     18  C   UNL     1      -3.376 -10.666  13.128  0.00  0.00    +0.247 C 
ENDROOT
BRANCH  18  22
ATOM     22  C   UNL     1      -4.353 -10.249  12.114  0.00  0.00    +0.037 A 
ATOM     28  C   UNL     1      -4.222 -10.690  10.797  0.00  0.00    +0.015 A 
ATOM     29  C   UNL     1      -5.411  -9.411  12.467  0.00  0.00    +0.015 A 
ATOM     31  C   UNL     1      -5.149 -10.292   9.833  0.00  0.00    +0.024 A 
ATOM     32  C   UNL     1      -6.338  -9.013  11.503  0.00  0.00    +0.024 A 
ATOM     33  C   UNL     1      -6.206  -9.453  10.187  0.00  0.00    +0.029 A 
BRANCH  33  12
ATOM     12  N   UNL     1      -7.144  -9.052   9.212  0.00  0.00    -0.336 N 
ATOM     37  C   UNL     1      -8.378  -8.401   9.605  0.00  0.00    +0.129 C 
ATOM     38  C   UNL     1      -6.883  -9.280   7.805  0.00  0.00    +0.129 C 
ENDBRANCH  33  12
ENDBRANCH  18  22
BRANCH   7   1
ATOM      1  S   UNL     1      -5.308 -11.628  18.504  0.00  0.00    +0.030 S 
ATOM      2  O   UNL     1      -6.292 -12.642  18.801  0.00  0.00    -0.158 OA
ATOM      3  O   UNL     1      -5.560 -10.225  18.719  0.00  0.00    -0.158 OA
ATOM     20  C   UNL     1      -3.801 -12.057  19.334  0.00  0.00    +0.215 C 
ENDBRANCH   7   1
BRANCH  13  17
ATOM      4  O   UNL     1      -7.326 -13.149  15.668  0.00  0.00    -0.274 OA
ATOM      9  N   UNL     1      -7.937 -11.133  16.657  0.00  0.00    -0.302 N 
ATOM     17  C   UNL     1      -7.064 -12.004  16.029  0.00  0.00    +0.234 C 
ATOM     39  H   UNL     1      -7.607 -10.215  16.946  0.00  0.00    +0.150 HD
BRANCH   9  19
ATOM     19  C   UNL     1      -9.305 -11.474  16.974  0.00  0.00    +0.163 C 
BRANCH  19  24
ATOM      6  O   UNL     1     -10.718 -10.919  18.872  0.00  0.00    -0.274 OA
ATOM     11  N   UNL     1      -8.512 -10.278  18.920  0.00  0.00    -0.328 N 
ATOM     24  C   UNL     1      -9.616 -10.861  18.333  0.00  0.00    +0.231 C 
ATOM     41  H   UNL     1      -8.579  -9.844  19.835  0.00  0.00    +0.145 HD
ATOM     42  H   UNL     1      -7.602 -10.258  18.472  0.00  0.00    +0.145 HD
ENDBRANCH  19  24
BRANCH  19  21
ATOM     21  C   UNL     1     -10.291 -10.961  15.919  0.00  0.00    +0.069 C 
BRANCH  21  23
ATOM     10  N   UNL     1      -9.680  -7.340  15.629  0.00  0.00    -0.360 N 
ATOM     23  C   UNL     1     -10.324  -9.454  15.835  0.00  0.00    -0.020 A 
ATOM     25  C   UNL     1     -11.477  -8.625  15.932  0.00  0.00    +0.003 A 
ATOM     26  C   UNL     1      -9.234  -8.634  15.649  0.00  0.00    +0.087 A 
ATOM     27  C   UNL     1     -11.045  -7.305  15.799  0.00  0.00    +0.047 A 
ATOM     30  C   UNL     1     -12.852  -8.874  16.120  0.00  0.00    +0.010 A 
ATOM     34  C   UNL     1     -11.922  -6.214  15.846  0.00  0.00    +0.026 A 
ATOM     35  C   UNL     1     -13.740  -7.794  16.169  0.00  0.00    +0.001 A 
ATOM     36  C   UNL     1     -13.280  -6.485  16.034  0.00  0.00    +0.002 A 
ATOM     40  H   UNL     1      -9.092  -6.527  15.508  0.00  0.00    +0.165 HD
ENDBRANCH  21  23
ENDBRANCH  19  21
ENDBRANCH   9  19
ENDBRANCH  13  17
TORSDOF 8
ENDMDL
MODEL 10
REMARK VINA RESULT:      -6.6     16.315     20.189
REMARK  Name = 45361709
REMARK  11 active torsions:
REMARK  status: ('A' for Active; 'I' for Inactive)
REMARK    1  A    between atoms: S_1  and  N_7
REMARK    2  A    between atoms: S_1  and  C_20
REMARK    3  A    between atoms: N_9  and  C_19
REMARK    4  A    between atoms: N_12  and  C_33
REMARK    5  A    between atoms: N_12  and  C_37
REMARK    6  A    between atoms: N_12  and  C_38
REMARK    7  A    between atoms: C_13  and  C_17
REMARK    8  A    between atoms: C_18  and  C_22
REMARK    9  A    between atoms: C_19  and  C_21
REMARK   10  A    between atoms: C_19  and  C_24
REMARK   11  A    between atoms: C_21  and  C_23
REMARK                            x       y       z     vdW  Elec       q    Type
REMARK                         _______ _______ _______ _____ _____    ______ ____
ROOT
ATOM      5  O   UNL     1      -9.963  -9.002   6.915  0.00  0.00    -0.270 OA
ATOM      7  N   UNL     1     -13.411  -6.090   8.942  0.00  0.00    -0.167 NA
ATOM      8  N   UNL     1     -10.941  -7.291   8.170  0.00  0.00    -0.294 N 
ATOM     13  C   UNL     1     -12.396  -6.474   9.978  0.00  0.00    +0.182 C 
ATOM     14  C   UNL     1     -10.996  -6.444   9.365  0.00  0.00    +0.138 C 
ATOM     15  C   UNL     1     -13.328  -6.980   7.735  0.00  0.00    +0.129 C 
ATOM     16  C   UNL     1     -11.923  -6.940   7.150  0.00  0.00    +0.125 C 
ATOM     18  C   UNL     1     -10.031  -8.323   7.939  0.00  0.00    +0.247 C 
ENDROOT
BRANCH  18  22
ATOM     22  C   UNL     1      -9.071  -8.652   9.000  0.00  0.00    +0.037 A 
ATOM     28  C   UNL     1      -9.500  -9.330  10.143  0.00  0.00    +0.015 A 
ATOM     29  C   UNL     1      -7.731  -8.287   8.869  0.00  0.00    +0.015 A 
ATOM     31  C   UNL     1      -8.589  -9.641  11.153  0.00  0.00    +0.024 A 
ATOM     32  C   UNL     1      -6.820  -8.598   9.878  0.00  0.00    +0.024 A 
ATOM     33  C   UNL     1      -7.250  -9.274  11.020  0.00  0.00    +0.029 A 
BRANCH  33  12
ATOM     12  N   UNL     1      -6.328  -9.590  12.040  0.00  0.00    -0.336 N 
ATOM     37  C   UNL     1      -6.792  -9.907  13.376  0.00  0.00    +0.129 C 
ATOM     38  C   UNL     1      -4.905  -9.608  11.764  0.00  0.00    +0.129 C 
ENDBRANCH  33  12
ENDBRANCH  18  22
BRANCH   7   1
ATOM      1  S   UNL     1     -15.023  -5.828   9.493  0.00  0.00    +0.030 S 
ATOM      2  O   UNL     1     -15.149  -4.444   9.885  0.00  0.00    -0.158 OA
ATOM      3  O   UNL     1     -15.385  -6.913  10.371  0.00  0.00    -0.158 OA
ATOM     20  C   UNL     1     -15.876  -6.049   7.954  0.00  0.00    +0.215 C 
ENDBRANCH   7   1
BRANCH  13  17
ATOM      4  O   UNL     1     -11.875  -4.401  11.025  0.00  0.00    -0.274 OA
ATOM      9  N   UNL     1     -13.157  -5.961  12.182  0.00  0.00    -0.302 N 
ATOM     17  C   UNL     1     -12.441  -5.488  11.096  0.00  0.00    +0.234 C 
ATOM     39  H   UNL     1     -13.616  -6.866  12.124  0.00  0.00    +0.150 HD
BRANCH   9  19
ATOM     19  C   UNL     1     -13.331  -5.208  13.403  0.00  0.00    +0.163 C 
BRANCH  19  24
ATOM      6  O   UNL     1     -14.554  -3.116  13.233  0.00  0.00    -0.274 OA
ATOM     11  N   UNL     1     -15.711  -5.087  12.996  0.00  0.00    -0.328 N 
ATOM     24  C   UNL     1     -14.571  -4.344  13.224  0.00  0.00    +0.231 C 
ATOM     41  H   UNL     1     -16.606  -4.632  12.846  0.00  0.00    +0.145 HD
ATOM     42  H   UNL     1     -15.705  -6.101  12.968  0.00  0.00    +0.145 HD
ENDBRANCH  19  24
BRANCH  19  21
ATOM     21  C   UNL     1     -13.486  -6.116  14.628  0.00  0.00    +0.069 C 
BRANCH  21  23
ATOM     10  N   UNL     1     -10.011  -6.431  15.807  0.00  0.00    -0.360 N 
ATOM     23  C   UNL     1     -12.165  -6.460  15.272  0.00  0.00    -0.020 A 
ATOM     25  C   UNL     1     -11.930  -7.485  16.231  0.00  0.00    +0.003 A 
ATOM     26  C   UNL     1     -10.965  -5.829  15.031  0.00  0.00    +0.087 A 
ATOM     27  C   UNL     1     -10.572  -7.445  16.550  0.00  0.00    +0.047 A 
ATOM     30  C   UNL     1     -12.747  -8.445  16.861  0.00  0.00    +0.010 A 
ATOM     34  C   UNL     1      -9.986  -8.322  17.471  0.00  0.00    +0.026 A 
ATOM     35  C   UNL     1     -12.175  -9.328  17.784  0.00  0.00    +0.001 A 
ATOM     36  C   UNL     1     -10.815  -9.266  18.082  0.00  0.00    +0.002 A 
ATOM     40  H   UNL     1      -9.035  -6.170  15.830  0.00  0.00    +0.165 HD
ENDBRANCH  21  23
ENDBRANCH  19  21
ENDBRANCH   9  19
ENDBRANCH  13  17
TORSDOF 8
ENDMDL
