MODEL 1
REMARK VINA RESULT:      -7.1      0.000      0.000
REMARK  Name = 26763115
REMARK  6 active torsions:
REMARK  status: ('A' for Active; 'I' for Inactive)
REMARK    1  A    between atoms: O_4  and  C_26
REMARK    2  A    between atoms: N_8  and  C_13
REMARK    3  A    between atoms: N_10  and  C_27
REMARK    4  A    between atoms: C_12  and  C_17
REMARK    5  A    between atoms: C_17  and  C_19
REMARK    6  A    between atoms: C_19  and  C_20
REMARK                            x       y       z     vdW  Elec       q    Type
REMARK                         _______ _______ _______ _____ _____    ______ ____
ROOT
ATOM      2  O   UNL     1      -5.696 -14.443  16.457  0.00  0.00    -0.274 OA
ATOM      6  N   UNL     1      -4.259 -11.325  15.610  0.00  0.00    -0.285 NA
ATOM      7  N   UNL     1      -3.842 -13.992  15.180  0.00  0.00    -0.313 N 
ATOM     11  C   UNL     1      -4.723 -12.253  16.644  0.00  0.00    +0.145 C 
ATOM     12  C   UNL     1      -2.895 -11.665  15.204  0.00  0.00    +0.075 C 
ATOM     13  C   UNL     1      -5.817 -10.119  16.871  0.00  0.00    +0.090 C 
ATOM     14  C   UNL     1      -6.032 -11.622  17.092  0.00  0.00    +0.052 C 
ATOM     15  C   UNL     1      -4.445  -9.999  16.201  0.00  0.00    +0.107 C 
ATOM     16  C   UNL     1      -2.963 -13.037  14.521  0.00  0.00    +0.123 C 
ATOM     18  C   UNL     1      -4.840 -13.647  16.072  0.00  0.00    +0.230 C 
ATOM     33  H   UNL     1      -3.840 -14.944  14.827  0.00  0.00    +0.149 HD
ENDROOT
BRANCH  13   8
ATOM      5  O   UNL     1      -8.312  -9.049  17.784  0.00  0.00    -0.253 OA
ATOM      8  N   UNL     1      -6.865  -9.559  16.055  0.00  0.00    -0.295 N 
ATOM     10  N   UNL     1      -8.882  -8.579  15.556  0.00  0.00    -0.269 N 
ATOM     23  C   UNL     1      -8.060  -9.054  16.582  0.00  0.00    +0.304 C 
ATOM     34  H   UNL     1      -6.763  -9.598  15.045  0.00  0.00    +0.151 HD
ATOM     35  H   UNL     1      -8.522  -8.658  14.608  0.00  0.00    +0.156 HD
BRANCH  10  27
ATOM      1 CL   UNL     1     -13.958  -9.232  15.978  0.00  0.00    -0.083 Cl
ATOM     27  C   UNL     1     -10.166  -7.995  15.672  0.00  0.00    +0.036 A 
ATOM     28  C   UNL     1     -11.297  -8.807  15.758  0.00  0.00    +0.043 A 
ATOM     29  C   UNL     1     -10.299  -6.607  15.699  0.00  0.00    +0.023 A 
ATOM     30  C   UNL     1     -12.562  -8.231  15.873  0.00  0.00    +0.043 A 
ATOM     31  C   UNL     1     -11.564  -6.031  15.813  0.00  0.00    +0.003 A 
ATOM     32  C   UNL     1     -12.696  -6.844  15.900  0.00  0.00    +0.020 A 
ENDBRANCH  10  27
ENDBRANCH  13   8
BRANCH  12  17
ATOM     17  C   UNL     1      -2.283 -10.644  14.241  0.00  0.00    +0.029 C 
BRANCH  17  19
ATOM     19  C   UNL     1      -1.909 -11.260  12.902  0.00  0.00    +0.097 C 
BRANCH  19  20
ATOM      3  O   UNL     1      -1.127  -9.469  11.564  0.00  0.00    -0.276 OA
ATOM      9  N   UNL     1      -3.242 -10.289  11.063  0.00  0.00    -0.301 N 
ATOM     20  C   UNL     1      -2.050 -10.257  11.785  0.00  0.00    +0.216 C 
ATOM     21  C   UNL     1      -4.356 -11.215  11.304  0.00  0.00    +0.110 C 
ATOM     22  C   UNL     1      -3.434  -9.376   9.933  0.00  0.00    +0.110 C 
ATOM     24  C   UNL     1      -5.665 -10.452  11.483  0.00  0.00    +0.050 C 
ATOM     25  C   UNL     1      -4.725  -8.579  10.090  0.00  0.00    +0.050 C 
ATOM     26  C   UNL     1      -5.922  -9.505  10.311  0.00  0.00    +0.118 C 
BRANCH  26   4
ATOM      4  O   UNL     1      -7.083  -8.733  10.591  0.00  0.00    -0.392 OA
ATOM     36  H   UNL     1      -7.224  -8.131   9.839  0.00  0.00    +0.210 HD
ENDBRANCH  26   4
ENDBRANCH  19  20
ENDBRANCH  17  19
ENDBRANCH  12  17
TORSDOF 6
ENDMDL
MODEL 2
REMARK VINA RESULT:      -6.7     26.032     28.898
REMARK  Name = 26763115
REMARK  6 active torsions:
REMARK  status: ('A' for Active; 'I' for Inactive)
REMARK    1  A    between atoms: O_4  and  C_26
REMARK    2  A    between atoms: N_8  and  C_13
REMARK    3  A    between atoms: N_10  and  C_27
REMARK    4  A    between atoms: C_12  and  C_17
REMARK    5  A    between atoms: C_17  and  C_19
REMARK    6  A    between atoms: C_19  and  C_20
REMARK                            x       y       z     vdW  Elec       q    Type
REMARK                         _______ _______ _______ _____ _____    ______ ____
ROOT
ATOM      2  O   UNL     1       8.555  10.508   5.959  0.00  0.00    -0.274 OA
ATOM      6  N   UNL     1      10.446   7.619   5.191  0.00  0.00    -0.285 NA
ATOM      7  N   UNL     1       8.103   8.824   4.464  0.00  0.00    -0.313 N 
ATOM     11  C   UNL     1       9.779   8.452   6.195  0.00  0.00    +0.145 C 
ATOM     12  C   UNL     1       9.479   6.723   4.556  0.00  0.00    +0.075 C 
ATOM     13  C   UNL     1      12.093   8.120   6.776  0.00  0.00    +0.090 C 
ATOM     14  C   UNL     1      10.947   9.133   6.889  0.00  0.00    +0.052 C 
ATOM     15  C   UNL     1      11.539   6.976   5.921  0.00  0.00    +0.107 C 
ATOM     16  C   UNL     1       8.503   7.609   3.770  0.00  0.00    +0.123 C 
ATOM     18  C   UNL     1       8.795   9.381   5.523  0.00  0.00    +0.230 C 
ATOM     33  H   UNL     1       7.379   9.389   4.030  0.00  0.00    +0.149 HD
ENDROOT
BRANCH  13   8
ATOM      5  O   UNL     1      14.736   7.019   6.702  0.00  0.00    -0.253 OA
ATOM      8  N   UNL     1      13.261   8.720   6.180  0.00  0.00    -0.295 N 
ATOM     10  N   UNL     1      15.456   8.925   5.538  0.00  0.00    -0.269 N 
ATOM     23  C   UNL     1      14.522   8.113   6.186  0.00  0.00    +0.304 C 
ATOM     34  H   UNL     1      13.180   9.659   5.801  0.00  0.00    +0.151 HD
ATOM     35  H   UNL     1      15.114   9.806   5.164  0.00  0.00    +0.156 HD
BRANCH  10  27
ATOM      1 CL   UNL     1      20.216   8.828   7.464  0.00  0.00    -0.083 Cl
ATOM     27  C   UNL     1      16.833   8.671   5.333  0.00  0.00    +0.036 A 
ATOM     28  C   UNL     1      17.740   8.853   6.378  0.00  0.00    +0.043 A 
ATOM     29  C   UNL     1      17.284   8.241   4.085  0.00  0.00    +0.023 A 
ATOM     30  C   UNL     1      19.098   8.603   6.176  0.00  0.00    +0.043 A 
ATOM     31  C   UNL     1      18.641   7.992   3.883  0.00  0.00    +0.003 A 
ATOM     32  C   UNL     1      19.548   8.173   4.928  0.00  0.00    +0.020 A 
ENDBRANCH  10  27
ENDBRANCH  13   8
BRANCH  12  17
ATOM     17  C   UNL     1      10.129   5.712   3.609  0.00  0.00    +0.029 C 
BRANCH  17  19
ATOM     19  C   UNL     1      10.194   6.217   2.176  0.00  0.00    +0.097 C 
BRANCH  19  20
ATOM      3  O   UNL     1       9.697   4.358   0.795  0.00  0.00    -0.276 OA
ATOM      9  N   UNL     1      11.926   5.004   0.898  0.00  0.00    -0.301 N 
ATOM     20  C   UNL     1      10.575   5.109   1.227  0.00  0.00    +0.216 C 
ATOM     21  C   UNL     1      12.992   5.882   1.397  0.00  0.00    +0.110 C 
ATOM     22  C   UNL     1      12.366   3.982  -0.055  0.00  0.00    +0.110 C 
ATOM     24  C   UNL     1      14.121   5.063   2.016  0.00  0.00    +0.050 C 
ATOM     25  C   UNL     1      13.482   3.128   0.540  0.00  0.00    +0.050 C 
ATOM     26  C   UNL     1      14.634   3.999   1.045  0.00  0.00    +0.118 C 
BRANCH  26   4
ATOM      4  O   UNL     1      15.592   3.190   1.716  0.00  0.00    -0.392 OA
ATOM     36  H   UNL     1      15.145   2.774   2.473  0.00  0.00    +0.210 HD
ENDBRANCH  26   4
ENDBRANCH  19  20
ENDBRANCH  17  19
ENDBRANCH  12  17
TORSDOF 6
ENDMDL
MODEL 3
REMARK VINA RESULT:      -6.6     19.323     20.677
REMARK  Name = 26763115
REMARK  6 active torsions:
REMARK  status: ('A' for Active; 'I' for Inactive)
REMARK    1  A    between atoms: O_4  and  C_26
REMARK    2  A    between atoms: N_8  and  C_13
REMARK    3  A    between atoms: N_10  and  C_27
REMARK    4  A    between atoms: C_12  and  C_17
REMARK    5  A    between atoms: C_17  and  C_19
REMARK    6  A    between atoms: C_19  and  C_20
REMARK                            x       y       z     vdW  Elec       q    Type
REMARK                         _______ _______ _______ _____ _____    ______ ____
ROOT
ATOM      2  O   UNL     1     -18.202   7.426  20.634  0.00  0.00    -0.274 OA
ATOM      6  N   UNL     1     -14.892   6.574  21.543  0.00  0.00    -0.285 NA
ATOM      7  N   UNL     1     -16.246   8.563  20.244  0.00  0.00    -0.313 N 
ATOM     11  C   UNL     1     -16.143   6.209  20.872  0.00  0.00    +0.145 C 
ATOM     12  C   UNL     1     -14.063   7.387  20.652  0.00  0.00    +0.075 C 
ATOM     13  C   UNL     1     -15.542   4.544  22.506  0.00  0.00    +0.090 C 
ATOM     14  C   UNL     1     -16.754   5.205  21.836  0.00  0.00    +0.052 C 
ATOM     15  C   UNL     1     -14.321   5.296  21.968  0.00  0.00    +0.107 C 
ATOM     16  C   UNL     1     -14.810   8.709  20.433  0.00  0.00    +0.123 C 
ATOM     18  C   UNL     1     -16.971   7.447  20.616  0.00  0.00    +0.230 C 
ATOM     33  H   UNL     1     -16.768   9.396  19.991  0.00  0.00    +0.149 HD
ENDROOT
BRANCH  13   8
ATOM      5  O   UNL     1     -16.036   2.380  24.316  0.00  0.00    -0.253 OA
ATOM      8  N   UNL     1     -15.634   4.625  23.943  0.00  0.00    -0.295 N 
ATOM     10  N   UNL     1     -15.913   3.896  26.103  0.00  0.00    -0.269 N 
ATOM     23  C   UNL     1     -15.879   3.515  24.759  0.00  0.00    +0.304 C 
ATOM     34  H   UNL     1     -15.591   5.542  24.378  0.00  0.00    +0.151 HD
ATOM     35  H   UNL     1     -15.763   4.882  26.302  0.00  0.00    +0.156 HD
BRANCH  10  27
ATOM      1 CL   UNL     1     -14.591   2.613  30.896  0.00  0.00    -0.083 Cl
ATOM     27  C   UNL     1     -16.133   3.075  27.233  0.00  0.00    +0.036 A 
ATOM     28  C   UNL     1     -15.345   3.231  28.375  0.00  0.00    +0.043 A 
ATOM     29  C   UNL     1     -17.137   2.107  27.207  0.00  0.00    +0.023 A 
ATOM     30  C   UNL     1     -15.562   2.421  29.489  0.00  0.00    +0.043 A 
ATOM     31  C   UNL     1     -17.354   1.296  28.321  0.00  0.00    +0.003 A 
ATOM     32  C   UNL     1     -16.567   1.454  29.462  0.00  0.00    +0.020 A 
ENDBRANCH  10  27
ENDBRANCH  13   8
BRANCH  12  17
ATOM     17  C   UNL     1     -12.672   7.674  21.223  0.00  0.00    +0.029 C 
BRANCH  17  19
ATOM     19  C   UNL     1     -11.595   7.689  20.149  0.00  0.00    +0.097 C 
BRANCH  19  20
ATOM      3  O   UNL     1     -11.405  10.005  20.610  0.00  0.00    -0.276 OA
ATOM      9  N   UNL     1     -10.620   9.292  18.542  0.00  0.00    -0.301 N 
ATOM     20  C   UNL     1     -11.200   9.100  19.796  0.00  0.00    +0.216 C 
ATOM     21  C   UNL     1     -10.365   8.236  17.554  0.00  0.00    +0.110 C 
ATOM     22  C   UNL     1     -10.167  10.628  18.146  0.00  0.00    +0.110 C 
ATOM     24  C   UNL     1     -10.976   8.600  16.205  0.00  0.00    +0.050 C 
ATOM     25  C   UNL     1     -10.777  11.034  16.808  0.00  0.00    +0.050 C 
ATOM     26  C   UNL     1     -10.508   9.977  15.735  0.00  0.00    +0.118 C 
BRANCH  26   4
ATOM      4  O   UNL     1     -11.204  10.316  14.541  0.00  0.00    -0.392 OA
ATOM     36  H   UNL     1     -12.148  10.134  14.690  0.00  0.00    +0.210 HD
ENDBRANCH  26   4
ENDBRANCH  19  20
ENDBRANCH  17  19
ENDBRANCH  12  17
TORSDOF 6
ENDMDL
MODEL 4
REMARK VINA RESULT:      -6.6      2.017      2.631
REMARK  Name = 26763115
REMARK  6 active torsions:
REMARK  status: ('A' for Active; 'I' for Inactive)
REMARK    1  A    between atoms: O_4  and  C_26
REMARK    2  A    between atoms: N_8  and  C_13
REMARK    3  A    between atoms: N_10  and  C_27
REMARK    4  A    between atoms: C_12  and  C_17
REMARK    5  A    between atoms: C_17  and  C_19
REMARK    6  A    between atoms: C_19  and  C_20
REMARK                            x       y       z     vdW  Elec       q    Type
REMARK                         _______ _______ _______ _____ _____    ______ ____
ROOT
ATOM      2  O   UNL     1      -8.047 -13.424  18.452  0.00  0.00    -0.274 OA
ATOM      6  N   UNL     1      -6.199 -10.828  16.918  0.00  0.00    -0.285 NA
ATOM      7  N   UNL     1      -5.979 -13.499  17.456  0.00  0.00    -0.313 N 
ATOM     11  C   UNL     1      -6.908 -11.337  18.094  0.00  0.00    +0.145 C 
ATOM     12  C   UNL     1      -4.827 -11.336  16.898  0.00  0.00    +0.075 C 
ATOM     13  C   UNL     1      -7.813  -9.210  17.417  0.00  0.00    +0.090 C 
ATOM     14  C   UNL     1      -8.204 -10.542  18.069  0.00  0.00    +0.052 C 
ATOM     15  C   UNL     1      -6.347  -9.375  17.004  0.00  0.00    +0.107 C 
ATOM     16  C   UNL     1      -4.919 -12.855  16.695  0.00  0.00    +0.123 C 
ATOM     18  C   UNL     1      -7.067 -12.837  17.992  0.00  0.00    +0.230 C 
ATOM     33  H   UNL     1      -6.014 -14.514  17.436  0.00  0.00    +0.149 HD
ENDROOT
BRANCH  13   8
ATOM      5  O   UNL     1     -10.189  -7.611  17.428  0.00  0.00    -0.253 OA
ATOM      8  N   UNL     1      -8.660  -8.915  16.288  0.00  0.00    -0.295 N 
ATOM     10  N   UNL     1     -10.424  -8.011  15.128  0.00  0.00    -0.269 N 
ATOM     23  C   UNL     1      -9.808  -8.121  16.378  0.00  0.00    +0.304 C 
ATOM     34  H   UNL     1      -8.453  -9.364  15.400  0.00  0.00    +0.151 HD
ATOM     35  H   UNL     1      -9.978  -8.498  14.355  0.00  0.00    +0.156 HD
BRANCH  10  27
ATOM      1 CL   UNL     1     -12.572  -3.860  13.000  0.00  0.00    -0.083 Cl
ATOM     27  C   UNL     1     -11.601  -7.299  14.799  0.00  0.00    +0.036 A 
ATOM     28  C   UNL     1     -11.516  -6.073  14.138  0.00  0.00    +0.043 A 
ATOM     29  C   UNL     1     -12.849  -7.824  15.137  0.00  0.00    +0.023 A 
ATOM     30  C   UNL     1     -12.677  -5.372  13.814  0.00  0.00    +0.043 A 
ATOM     31  C   UNL     1     -14.010  -7.122  14.814  0.00  0.00    +0.003 A 
ATOM     32  C   UNL     1     -13.924  -5.896  14.152  0.00  0.00    +0.020 A 
ENDBRANCH  10  27
ENDBRANCH  13   8
BRANCH  12  17
ATOM     17  C   UNL     1      -3.975 -10.722  15.785  0.00  0.00    +0.029 C 
BRANCH  17  19
ATOM     19  C   UNL     1      -4.423 -11.161  14.400  0.00  0.00    +0.097 C 
BRANCH  19  20
ATOM      3  O   UNL     1      -2.207 -10.693  13.707  0.00  0.00    -0.276 OA
ATOM      9  N   UNL     1      -3.834 -10.685  12.049  0.00  0.00    -0.301 N 
ATOM     20  C   UNL     1      -3.383 -10.827  13.361  0.00  0.00    +0.216 C 
ATOM     21  C   UNL     1      -5.226 -10.837  11.608  0.00  0.00    +0.110 C 
ATOM     22  C   UNL     1      -2.875 -10.406  10.976  0.00  0.00    +0.110 C 
ATOM     24  C   UNL     1      -5.682  -9.610  10.825  0.00  0.00    +0.050 C 
ATOM     25  C   UNL     1      -3.289  -9.170  10.184  0.00  0.00    +0.050 C 
ATOM     26  C   UNL     1      -4.726  -9.296   9.674  0.00  0.00    +0.118 C 
BRANCH  26   4
ATOM      4  O   UNL     1      -5.129  -8.077   9.062  0.00  0.00    -0.392 OA
ATOM     36  H   UNL     1      -6.095  -8.107   8.957  0.00  0.00    +0.210 HD
ENDBRANCH  26   4
ENDBRANCH  19  20
ENDBRANCH  17  19
ENDBRANCH  12  17
TORSDOF 6
ENDMDL
MODEL 5
REMARK VINA RESULT:      -6.4      3.061      4.827
REMARK  Name = 26763115
REMARK  6 active torsions:
REMARK  status: ('A' for Active; 'I' for Inactive)
REMARK    1  A    between atoms: O_4  and  C_26
REMARK    2  A    between atoms: N_8  and  C_13
REMARK    3  A    between atoms: N_10  and  C_27
REMARK    4  A    between atoms: C_12  and  C_17
REMARK    5  A    between atoms: C_17  and  C_19
REMARK    6  A    between atoms: C_19  and  C_20
REMARK                            x       y       z     vdW  Elec       q    Type
REMARK                         _______ _______ _______ _____ _____    ______ ____
ROOT
ATOM      2  O   UNL     1     -10.631 -12.400  18.611  0.00  0.00    -0.274 OA
ATOM      6  N   UNL     1      -8.750  -9.758  17.201  0.00  0.00    -0.285 NA
ATOM      7  N   UNL     1      -8.448 -12.384  17.898  0.00  0.00    -0.313 N 
ATOM     11  C   UNL     1      -9.579 -10.261  18.299  0.00  0.00    +0.145 C 
ATOM     12  C   UNL     1      -7.360 -10.177  17.386  0.00  0.00    +0.075 C 
ATOM     13  C   UNL     1     -10.508  -8.227  17.401  0.00  0.00    +0.090 C 
ATOM     14  C   UNL     1     -10.904  -9.553  18.064  0.00  0.00    +0.052 C 
ATOM     15  C   UNL     1      -8.993  -8.315  17.193  0.00  0.00    +0.107 C 
ATOM     16  C   UNL     1      -7.336 -11.706  17.251  0.00  0.00    +0.123 C 
ATOM     18  C   UNL     1      -9.635 -11.771  18.253  0.00  0.00    +0.230 C 
ATOM     33  H   UNL     1      -8.421 -13.398  17.926  0.00  0.00    +0.149 HD
ENDROOT
BRANCH  13   8
ATOM      5  O   UNL     1     -11.535  -5.759  16.376  0.00  0.00    -0.253 OA
ATOM      8  N   UNL     1     -11.212  -8.037  16.158  0.00  0.00    -0.295 N 
ATOM     10  N   UNL     1     -12.323  -6.913  14.491  0.00  0.00    -0.269 N 
ATOM     23  C   UNL     1     -11.683  -6.791  15.727  0.00  0.00    +0.304 C 
ATOM     34  H   UNL     1     -11.440  -8.856  15.603  0.00  0.00    +0.151 HD
ATOM     35  H   UNL     1     -12.360  -7.846  14.086  0.00  0.00    +0.156 HD
BRANCH  10  27
ATOM      1 CL   UNL     1     -11.871  -3.337  10.834  0.00  0.00    -0.083 Cl
ATOM     27  C   UNL     1     -12.931  -5.893  13.723  0.00  0.00    +0.036 A 
ATOM     28  C   UNL     1     -12.187  -5.199  12.768  0.00  0.00    +0.043 A 
ATOM     29  C   UNL     1     -14.276  -5.580  13.922  0.00  0.00    +0.023 A 
ATOM     30  C   UNL     1     -12.788  -4.193  12.011  0.00  0.00    +0.043 A 
ATOM     31  C   UNL     1     -14.876  -4.573  13.166  0.00  0.00    +0.003 A 
ATOM     32  C   UNL     1     -14.132  -3.880  12.210  0.00  0.00    +0.020 A 
ENDBRANCH  10  27
ENDBRANCH  13   8
BRANCH  12  17
ATOM     17  C   UNL     1      -6.404  -9.557  16.364  0.00  0.00    +0.029 C 
BRANCH  17  19
ATOM     19  C   UNL     1      -6.025 -10.530  15.258  0.00  0.00    +0.097 C 
BRANCH  19  20
ATOM      3  O   UNL     1      -3.865 -10.657  16.223  0.00  0.00    -0.276 OA
ATOM      9  N   UNL     1      -3.989 -10.937  13.920  0.00  0.00    -0.301 N 
ATOM     20  C   UNL     1      -4.530 -10.714  15.186  0.00  0.00    +0.216 C 
ATOM     21  C   UNL     1      -4.755 -11.009  12.670  0.00  0.00    +0.110 C 
ATOM     22  C   UNL     1      -2.549 -11.171  13.775  0.00  0.00    +0.110 C 
ATOM     24  C   UNL     1      -4.186 -10.047  11.631  0.00  0.00    +0.050 C 
ATOM     25  C   UNL     1      -1.942 -10.210  12.758  0.00  0.00    +0.050 C 
ATOM     26  C   UNL     1      -2.688 -10.273  11.424  0.00  0.00    +0.118 C 
BRANCH  26   4
ATOM      4  O   UNL     1      -2.190  -9.272  10.546  0.00  0.00    -0.392 OA
ATOM     36  H   UNL     1      -2.895  -9.063   9.909  0.00  0.00    +0.210 HD
ENDBRANCH  26   4
ENDBRANCH  19  20
ENDBRANCH  17  19
ENDBRANCH  12  17
TORSDOF 6
ENDMDL
MODEL 6
REMARK VINA RESULT:      -6.4     23.558     27.360
REMARK  Name = 26763115
REMARK  6 active torsions:
REMARK  status: ('A' for Active; 'I' for Inactive)
REMARK    1  A    between atoms: O_4  and  C_26
REMARK    2  A    between atoms: N_8  and  C_13
REMARK    3  A    between atoms: N_10  and  C_27
REMARK    4  A    between atoms: C_12  and  C_17
REMARK    5  A    between atoms: C_17  and  C_19
REMARK    6  A    between atoms: C_19  and  C_20
REMARK                            x       y       z     vdW  Elec       q    Type
REMARK                         _______ _______ _______ _____ _____    ______ ____
ROOT
ATOM      2  O   UNL     1     -12.530   8.671  37.372  0.00  0.00    -0.274 OA
ATOM      6  N   UNL     1     -11.687   9.210  33.980  0.00  0.00    -0.285 NA
ATOM      7  N   UNL     1     -10.818   9.911  36.475  0.00  0.00    -0.313 N 
ATOM     11  C   UNL     1     -12.687   9.267  35.049  0.00  0.00    +0.145 C 
ATOM     12  C   UNL     1     -10.847  10.408  34.012  0.00  0.00    +0.075 C 
ATOM     13  C   UNL     1     -13.502   7.959  33.196  0.00  0.00    +0.090 C 
ATOM     14  C   UNL     1     -13.587   8.085  34.723  0.00  0.00    +0.052 C 
ATOM     15  C   UNL     1     -12.468   9.002  32.761  0.00  0.00    +0.107 C 
ATOM     16  C   UNL     1     -10.050  10.356  35.323  0.00  0.00    +0.123 C 
ATOM     18  C   UNL     1     -12.007   9.210  36.397  0.00  0.00    +0.230 C 
ATOM     33  H   UNL     1     -10.365   9.961  37.382  0.00  0.00    +0.149 HD
ENDROOT
BRANCH  13   8
ATOM      5  O   UNL     1     -15.215   5.672  33.007  0.00  0.00    -0.253 OA
ATOM      8  N   UNL     1     -13.119   6.626  32.805  0.00  0.00    -0.295 N 
ATOM     10  N   UNL     1     -13.368   4.392  32.329  0.00  0.00    -0.269 N 
ATOM     23  C   UNL     1     -14.022   5.558  32.737  0.00  0.00    +0.304 C 
ATOM     34  H   UNL     1     -12.135   6.435  32.641  0.00  0.00    +0.151 HD
ATOM     35  H   UNL     1     -12.371   4.469  32.145  0.00  0.00    +0.156 HD
BRANCH  10  27
ATOM      1 CL   UNL     1     -14.974   0.763  29.071  0.00  0.00    -0.083 Cl
ATOM     27  C   UNL     1     -13.924   3.106  32.139  0.00  0.00    +0.036 A 
ATOM     28  C   UNL     1     -14.148   2.625  30.849  0.00  0.00    +0.043 A 
ATOM     29  C   UNL     1     -14.249   2.318  33.243  0.00  0.00    +0.023 A 
ATOM     30  C   UNL     1     -14.697   1.356  30.662  0.00  0.00    +0.043 A 
ATOM     31  C   UNL     1     -14.798   1.049  33.057  0.00  0.00    +0.003 A 
ATOM     32  C   UNL     1     -15.022   0.568  31.766  0.00  0.00    +0.020 A 
ENDBRANCH  10  27
ENDBRANCH  13   8
BRANCH  12  17
ATOM     17  C   UNL     1      -9.881  10.496  32.828  0.00  0.00    +0.029 C 
BRANCH  17  19
ATOM     19  C   UNL     1      -8.592  11.223  33.183  0.00  0.00    +0.097 C 
BRANCH  19  20
ATOM      3  O   UNL     1      -9.092  12.532  31.273  0.00  0.00    -0.276 OA
ATOM      9  N   UNL     1      -7.082  12.989  32.345  0.00  0.00    -0.301 N 
ATOM     20  C   UNL     1      -8.286  12.305  32.179  0.00  0.00    +0.216 C 
ATOM     21  C   UNL     1      -6.105  12.740  33.413  0.00  0.00    +0.110 C 
ATOM     22  C   UNL     1      -6.736  14.086  31.437  0.00  0.00    +0.110 C 
ATOM     24  C   UNL     1      -4.717  12.497  32.828  0.00  0.00    +0.050 C 
ATOM     25  C   UNL     1      -5.361  13.865  30.816  0.00  0.00    +0.050 C 
ATOM     26  C   UNL     1      -4.300  13.633  31.893  0.00  0.00    +0.118 C 
BRANCH  26   4
ATOM      4  O   UNL     1      -3.060  13.294  31.284  0.00  0.00    -0.392 OA
ATOM     36  H   UNL     1      -3.172  13.387  30.322  0.00  0.00    +0.210 HD
ENDBRANCH  26   4
ENDBRANCH  19  20
ENDBRANCH  17  19
ENDBRANCH  12  17
TORSDOF 6
ENDMDL
MODEL 7
REMARK VINA RESULT:      -6.4      2.110      3.031
REMARK  Name = 26763115
REMARK  6 active torsions:
REMARK  status: ('A' for Active; 'I' for Inactive)
REMARK    1  A    between atoms: O_4  and  C_26
REMARK    2  A    between atoms: N_8  and  C_13
REMARK    3  A    between atoms: N_10  and  C_27
REMARK    4  A    between atoms: C_12  and  C_17
REMARK    5  A    between atoms: C_17  and  C_19
REMARK    6  A    between atoms: C_19  and  C_20
REMARK                            x       y       z     vdW  Elec       q    Type
REMARK                         _______ _______ _______ _____ _____    ______ ____
ROOT
ATOM      2  O   UNL     1      -8.450 -14.252  17.395  0.00  0.00    -0.274 OA
ATOM      6  N   UNL     1      -6.165 -11.625  18.019  0.00  0.00    -0.285 NA
ATOM      7  N   UNL     1      -6.155 -14.264  17.305  0.00  0.00    -0.313 N 
ATOM     11  C   UNL     1      -7.285 -12.451  18.479  0.00  0.00    +0.145 C 
ATOM     12  C   UNL     1      -4.898 -12.313  18.267  0.00  0.00    +0.075 C 
ATOM     13  C   UNL     1      -7.860 -10.113  18.581  0.00  0.00    +0.090 C 
ATOM     14  C   UNL     1      -8.468 -11.503  18.354  0.00  0.00    +0.052 C 
ATOM     15  C   UNL     1      -6.351 -10.346  18.703  0.00  0.00    +0.107 C 
ATOM     16  C   UNL     1      -4.885 -13.558  17.370  0.00  0.00    +0.123 C 
ATOM     18  C   UNL     1      -7.374 -13.710  17.649  0.00  0.00    +0.230 C 
ATOM     33  H   UNL     1      -6.169 -15.151  16.810  0.00  0.00    +0.149 HD
ENDROOT
BRANCH  13   8
ATOM      5  O   UNL     1     -10.478  -9.328  17.725  0.00  0.00    -0.253 OA
ATOM      8  N   UNL     1      -8.180  -9.222  17.494  0.00  0.00    -0.295 N 
ATOM     10  N   UNL     1      -9.493  -8.008  16.053  0.00  0.00    -0.269 N 
ATOM     23  C   UNL     1      -9.492  -8.888  17.139  0.00  0.00    +0.304 C 
ATOM     34  H   UNL     1      -7.421  -8.877  16.913  0.00  0.00    +0.151 HD
ATOM     35  H   UNL     1      -8.585  -7.739  15.682  0.00  0.00    +0.156 HD
BRANCH  10  27
ATOM      1 CL   UNL     1     -13.254  -8.508  12.591  0.00  0.00    -0.083 Cl
ATOM     27  C   UNL     1     -10.610  -7.438  15.398  0.00  0.00    +0.036 A 
ATOM     28  C   UNL     1     -11.301  -8.169  14.430  0.00  0.00    +0.043 A 
ATOM     29  C   UNL     1     -11.020  -6.144  15.719  0.00  0.00    +0.023 A 
ATOM     30  C   UNL     1     -12.402  -7.607  13.785  0.00  0.00    +0.043 A 
ATOM     31  C   UNL     1     -12.121  -5.582  15.073  0.00  0.00    +0.003 A 
ATOM     32  C   UNL     1     -12.812  -6.313  14.106  0.00  0.00    +0.020 A 
ENDBRANCH  10  27
ENDBRANCH  13   8
BRANCH  12  17
ATOM     17  C   UNL     1      -3.675 -11.446  17.958  0.00  0.00    +0.029 C 
BRANCH  17  19
ATOM     19  C   UNL     1      -3.803 -10.711  16.632  0.00  0.00    +0.097 C 
BRANCH  19  20
ATOM      3  O   UNL     1      -1.492 -10.987  16.193  0.00  0.00    -0.276 OA
ATOM      9  N   UNL     1      -2.933 -11.303  14.398  0.00  0.00    -0.301 N 
ATOM     20  C   UNL     1      -2.635 -11.013  15.729  0.00  0.00    +0.216 C 
ATOM     21  C   UNL     1      -4.282 -11.340  13.818  0.00  0.00    +0.110 C 
ATOM     22  C   UNL     1      -1.854 -11.652  13.469  0.00  0.00    +0.110 C 
ATOM     24  C   UNL     1      -4.364 -10.447  12.584  0.00  0.00    +0.050 C 
ATOM     25  C   UNL     1      -1.893 -10.762  12.231  0.00  0.00    +0.050 C 
ATOM     26  C   UNL     1      -3.273 -10.794  11.571  0.00  0.00    +0.118 C 
BRANCH  26   4
ATOM      4  O   UNL     1      -3.320  -9.853  10.506  0.00  0.00    -0.392 OA
ATOM     36  H   UNL     1      -2.409  -9.725  10.187  0.00  0.00    +0.210 HD
ENDBRANCH  26   4
ENDBRANCH  19  20
ENDBRANCH  17  19
ENDBRANCH  12  17
TORSDOF 6
ENDMDL
MODEL 8
REMARK VINA RESULT:      -6.4      1.859      2.270
REMARK  Name = 26763115
REMARK  6 active torsions:
REMARK  status: ('A' for Active; 'I' for Inactive)
REMARK    1  A    between atoms: O_4  and  C_26
REMARK    2  A    between atoms: N_8  and  C_13
REMARK    3  A    between atoms: N_10  and  C_27
REMARK    4  A    between atoms: C_12  and  C_17
REMARK    5  A    between atoms: C_17  and  C_19
REMARK    6  A    between atoms: C_19  and  C_20
REMARK                            x       y       z     vdW  Elec       q    Type
REMARK                         _______ _______ _______ _____ _____    ______ ____
ROOT
ATOM      2  O   UNL     1      -7.707 -14.574  17.272  0.00  0.00    -0.274 OA
ATOM      6  N   UNL     1      -5.483 -11.823  17.271  0.00  0.00    -0.285 NA
ATOM      7  N   UNL     1      -5.995 -14.084  15.822  0.00  0.00    -0.313 N 
ATOM     11  C   UNL     1      -6.075 -12.959  17.984  0.00  0.00    +0.145 C 
ATOM     12  C   UNL     1      -4.365 -12.275  16.443  0.00  0.00    +0.075 C 
ATOM     13  C   UNL     1      -6.395 -10.921  19.228  0.00  0.00    +0.090 C 
ATOM     14  C   UNL     1      -7.043 -12.282  18.940  0.00  0.00    +0.052 C 
ATOM     15  C   UNL     1      -5.159 -10.862  18.325  0.00  0.00    +0.107 C 
ATOM     16  C   UNL     1      -4.956 -13.180  15.353  0.00  0.00    +0.123 C 
ATOM     18  C   UNL     1      -6.703 -13.917  16.998  0.00  0.00    +0.230 C 
ATOM     33  H   UNL     1      -6.343 -14.774  15.163  0.00  0.00    +0.149 HD
ENDROOT
BRANCH  13   8
ATOM      5  O   UNL     1      -8.729 -11.030  17.572  0.00  0.00    -0.253 OA
ATOM      8  N   UNL     1      -7.311  -9.841  18.957  0.00  0.00    -0.295 N 
ATOM     10  N   UNL     1      -9.132  -8.769  18.057  0.00  0.00    -0.269 N 
ATOM     23  C   UNL     1      -8.434  -9.978  18.133  0.00  0.00    +0.304 C 
ATOM     34  H   UNL     1      -7.092  -8.919  19.324  0.00  0.00    +0.151 HD
ATOM     35  H   UNL     1      -8.752  -7.988  18.585  0.00  0.00    +0.156 HD
BRANCH  10  27
ATOM      1 CL   UNL     1     -11.596  -5.769  14.696  0.00  0.00    -0.083 Cl
ATOM     27  C   UNL     1     -10.314  -8.493  17.331  0.00  0.00    +0.036 A 
ATOM     28  C   UNL     1     -10.366  -7.395  16.472  0.00  0.00    +0.043 A 
ATOM     29  C   UNL     1     -11.429  -9.319  17.475  0.00  0.00    +0.023 A 
ATOM     30  C   UNL     1     -11.532  -7.123  15.755  0.00  0.00    +0.043 A 
ATOM     31  C   UNL     1     -12.595  -9.047  16.759  0.00  0.00    +0.003 A 
ATOM     32  C   UNL     1     -12.646  -7.949  15.899  0.00  0.00    +0.020 A 
ENDBRANCH  10  27
ENDBRANCH  13   8
BRANCH  12  17
ATOM     17  C   UNL     1      -3.597 -11.123  15.791  0.00  0.00    +0.029 C 
BRANCH  17  19
ATOM     19  C   UNL     1      -4.272 -10.617  14.525  0.00  0.00    +0.097 C 
BRANCH  19  20
ATOM      3  O   UNL     1      -2.076 -10.397  13.664  0.00  0.00    -0.276 OA
ATOM      9  N   UNL     1      -3.800 -10.440  12.107  0.00  0.00    -0.301 N 
ATOM     20  C   UNL     1      -3.279 -10.476  13.400  0.00  0.00    +0.216 C 
ATOM     21  C   UNL     1      -5.225 -10.532  11.764  0.00  0.00    +0.110 C 
ATOM     22  C   UNL     1      -2.895 -10.352  10.959  0.00  0.00    +0.110 C 
ATOM     24  C   UNL     1      -5.643  -9.363  10.876  0.00  0.00    +0.050 C 
ATOM     25  C   UNL     1      -3.270  -9.179  10.059  0.00  0.00    +0.050 C 
ATOM     26  C   UNL     1      -4.742  -9.248   9.646  0.00  0.00    +0.118 C 
BRANCH  26   4
ATOM      4  O   UNL     1      -5.096  -8.074   8.926  0.00  0.00    -0.392 OA
ATOM     36  H   UNL     1      -4.378  -7.888   8.296  0.00  0.00    +0.210 HD
ENDBRANCH  26   4
ENDBRANCH  19  20
ENDBRANCH  17  19
ENDBRANCH  12  17
TORSDOF 6
ENDMDL
MODEL 9
REMARK VINA RESULT:      -6.3     24.590     28.441
REMARK  Name = 26763115
REMARK  6 active torsions:
REMARK  status: ('A' for Active; 'I' for Inactive)
REMARK    1  A    between atoms: O_4  and  C_26
REMARK    2  A    between atoms: N_8  and  C_13
REMARK    3  A    between atoms: N_10  and  C_27
REMARK    4  A    between atoms: C_12  and  C_17
REMARK    5  A    between atoms: C_17  and  C_19
REMARK    6  A    between atoms: C_19  and  C_20
REMARK                            x       y       z     vdW  Elec       q    Type
REMARK                         _______ _______ _______ _____ _____    ______ ____
ROOT
ATOM      2  O   UNL     1      11.842   4.001  -2.874  0.00  0.00    -0.274 OA
ATOM      6  N   UNL     1      14.538   4.339  -0.609  0.00  0.00    -0.285 NA
ATOM      7  N   UNL     1      14.004   4.667  -3.271  0.00  0.00    -0.313 N 
ATOM     11  C   UNL     1      13.486   3.502  -1.192  0.00  0.00    +0.145 C 
ATOM     12  C   UNL     1      15.722   4.329  -1.468  0.00  0.00    +0.075 C 
ATOM     13  C   UNL     1      13.275   3.577   1.207  0.00  0.00    +0.090 C 
ATOM     14  C   UNL     1      12.450   3.451  -0.080  0.00  0.00    +0.052 C 
ATOM     15  C   UNL     1      14.716   3.810   0.743  0.00  0.00    +0.107 C 
ATOM     16  C   UNL     1      15.327   5.022  -2.779  0.00  0.00    +0.123 C 
ATOM     18  C   UNL     1      13.009   4.104  -2.494  0.00  0.00    +0.230 C 
ATOM     33  H   UNL     1      13.739   5.017  -4.186  0.00  0.00    +0.149 HD
ENDROOT
BRANCH  13   8
ATOM      5  O   UNL     1      10.975   3.537   2.912  0.00  0.00    -0.253 OA
ATOM      8  N   UNL     1      12.794   4.658   2.030  0.00  0.00    -0.295 N 
ATOM     10  N   UNL     1      11.434   5.757   3.519  0.00  0.00    -0.269 N 
ATOM     23  C   UNL     1      11.656   4.556   2.839  0.00  0.00    +0.304 C 
ATOM     34  H   UNL     1      13.260   5.558   1.965  0.00  0.00    +0.151 HD
ATOM     35  H   UNL     1      12.096   6.509   3.346  0.00  0.00    +0.156 HD
BRANCH  10  27
ATOM      1 CL   UNL     1       9.472   5.260   8.239  0.00  0.00    -0.083 Cl
ATOM     27  C   UNL     1      10.394   6.060   4.429  0.00  0.00    +0.036 A 
ATOM     28  C   UNL     1      10.440   5.568   5.734  0.00  0.00    +0.043 A 
ATOM     29  C   UNL     1       9.320   6.851   4.020  0.00  0.00    +0.023 A 
ATOM     30  C   UNL     1       9.414   5.867   6.630  0.00  0.00    +0.043 A 
ATOM     31  C   UNL     1       8.293   7.149   4.915  0.00  0.00    +0.003 A 
ATOM     32  C   UNL     1       8.341   6.658   6.221  0.00  0.00    +0.020 A 
ENDBRANCH  10  27
ENDBRANCH  13   8
BRANCH  12  17
ATOM     17  C   UNL     1      16.920   5.052  -0.848  0.00  0.00    +0.029 C 
BRANCH  17  19
ATOM     19  C   UNL     1      16.892   6.551  -1.107  0.00  0.00    +0.097 C 
BRANCH  19  20
ATOM      3  O   UNL     1      17.303   7.367   1.078  0.00  0.00    -0.276 OA
ATOM      9  N   UNL     1      15.247   7.907   0.141  0.00  0.00    -0.301 N 
ATOM     20  C   UNL     1      16.507   7.310   0.137  0.00  0.00    +0.216 C 
ATOM     21  C   UNL     1      14.280   7.855  -0.963  0.00  0.00    +0.110 C 
ATOM     22  C   UNL     1      14.821   8.701   1.296  0.00  0.00    +0.110 C 
ATOM     24  C   UNL     1      12.926   7.352  -0.472  0.00  0.00    +0.050 C 
ATOM     25  C   UNL     1      13.478   8.211   1.828  0.00  0.00    +0.050 C 
ATOM     26  C   UNL     1      12.426   8.171   0.718  0.00  0.00    +0.118 C 
BRANCH  26   4
ATOM      4  O   UNL     1      11.229   7.581   1.210  0.00  0.00    -0.392 OA
ATOM     36  H   UNL     1      11.240   6.641   0.958  0.00  0.00    +0.210 HD
ENDBRANCH  26   4
ENDBRANCH  19  20
ENDBRANCH  17  19
ENDBRANCH  12  17
TORSDOF 6
ENDMDL
MODEL 10
REMARK VINA RESULT:      -6.2     23.586     26.213
REMARK  Name = 26763115
REMARK  6 active torsions:
REMARK  status: ('A' for Active; 'I' for Inactive)
REMARK    1  A    between atoms: O_4  and  C_26
REMARK    2  A    between atoms: N_8  and  C_13
REMARK    3  A    between atoms: N_10  and  C_27
REMARK    4  A    between atoms: C_12  and  C_17
REMARK    5  A    between atoms: C_17  and  C_19
REMARK    6  A    between atoms: C_19  and  C_20
REMARK                            x       y       z     vdW  Elec       q    Type
REMARK                         _______ _______ _______ _____ _____    ______ ____
ROOT
ATOM      2  O   UNL     1       9.043   5.777   9.068  0.00  0.00    -0.274 OA
ATOM      6  N   UNL     1       9.537   6.484   5.637  0.00  0.00    -0.285 NA
ATOM      7  N   UNL     1       9.833   4.413   7.398  0.00  0.00    -0.313 N 
ATOM     11  C   UNL     1       9.795   6.824   7.039  0.00  0.00    +0.145 C 
ATOM     12  C   UNL     1      10.463   5.442   5.193  0.00  0.00    +0.075 C 
ATOM     13  C   UNL     1       8.863   8.712   5.868  0.00  0.00    +0.090 C 
ATOM     14  C   UNL     1       8.917   8.047   7.250  0.00  0.00    +0.052 C 
ATOM     15  C   UNL     1       9.616   7.763   4.932  0.00  0.00    +0.107 C 
ATOM     16  C   UNL     1      10.125   4.176   5.992  0.00  0.00    +0.123 C 
ATOM     18  C   UNL     1       9.480   5.641   7.924  0.00  0.00    +0.230 C 
ATOM     33  H   UNL     1       9.707   3.598   7.989  0.00  0.00    +0.149 HD
ENDROOT
BRANCH  13   8
ATOM      5  O   UNL     1       7.942  10.614   3.935  0.00  0.00    -0.253 OA
ATOM      8  N   UNL     1       7.501   8.919   5.443  0.00  0.00    -0.295 N 
ATOM     10  N   UNL     1       5.752   9.845   4.279  0.00  0.00    -0.269 N 
ATOM     23  C   UNL     1       7.133   9.873   4.488  0.00  0.00    +0.304 C 
ATOM     34  H   UNL     1       6.765   8.397   5.912  0.00  0.00    +0.151 HD
ATOM     35  H   UNL     1       5.221   9.168   4.821  0.00  0.00    +0.156 HD
BRANCH  10  27
ATOM      1 CL   UNL     1       4.006  10.669  -0.480  0.00  0.00    -0.083 Cl
ATOM     27  C   UNL     1       4.990  10.649   3.398  0.00  0.00    +0.036 A 
ATOM     28  C   UNL     1       4.885  10.303   2.050  0.00  0.00    +0.043 A 
ATOM     29  C   UNL     1       4.344  11.788   3.878  0.00  0.00    +0.023 A 
ATOM     30  C   UNL     1       4.134  11.095   1.182  0.00  0.00    +0.043 A 
ATOM     31  C   UNL     1       3.594  12.581   3.010  0.00  0.00    +0.003 A 
ATOM     32  C   UNL     1       3.489  12.234   1.662  0.00  0.00    +0.020 A 
ENDBRANCH  10  27
ENDBRANCH  13   8
BRANCH  12  17
ATOM     17  C   UNL     1      10.360   5.146   3.695  0.00  0.00    +0.029 C 
BRANCH  17  19
ATOM     19  C   UNL     1      11.583   5.620   2.924  0.00  0.00    +0.097 C 
BRANCH  19  20
ATOM      3  O   UNL     1      11.872   3.334   2.372  0.00  0.00    -0.276 OA
ATOM      9  N   UNL     1      13.057   4.867   1.090  0.00  0.00    -0.301 N 
ATOM     20  C   UNL     1      12.178   4.500   2.108  0.00  0.00    +0.216 C 
ATOM     21  C   UNL     1      13.439   6.245   0.754  0.00  0.00    +0.110 C 
ATOM     22  C   UNL     1      13.639   3.838   0.224  0.00  0.00    +0.110 C 
ATOM     24  C   UNL     1      14.958   6.394   0.737  0.00  0.00    +0.050 C 
ATOM     25  C   UNL     1      15.160   3.945   0.200  0.00  0.00    +0.050 C 
ATOM     26  C   UNL     1      15.609   5.357  -0.179  0.00  0.00    +0.118 C 
BRANCH  26   4
ATOM      4  O   UNL     1      17.022   5.463  -0.058  0.00  0.00    -0.392 OA
ATOM     36  H   UNL     1      17.285   6.322  -0.429  0.00  0.00    +0.210 HD
ENDBRANCH  26   4
ENDBRANCH  19  20
ENDBRANCH  17  19
ENDBRANCH  12  17
TORSDOF 6
ENDMDL
