MODEL 1
REMARK VINA RESULT:      -8.2      0.000      0.000
REMARK  Name = 28960610
REMARK  10 active torsions:
REMARK  status: ('A' for Active; 'I' for Inactive)
REMARK    1  A    between atoms: O_3  and  C_9
REMARK    2  A    between atoms: N_4  and  C_7
REMARK    3  A    between atoms: N_4  and  C_13
REMARK    4  A    between atoms: N_4  and  C_14
REMARK    5  A    between atoms: N_5  and  C_8
REMARK    6  A    between atoms: N_5  and  C_15
REMARK    7  A    between atoms: C_13  and  C_16
REMARK    8  A    between atoms: C_15  and  C_17
REMARK    9  A    between atoms: C_16  and  C_18
REMARK   10  A    between atoms: C_24  and  C_27
REMARK                            x       y       z     vdW  Elec       q    Type
REMARK                         _______ _______ _______ _____ _____    ______ ____
ROOT
ATOM      1  O   UNL     1      11.285   7.035  20.457  0.00  0.00    -0.343 OA
ATOM      2  O   UNL     1      10.909   9.175  21.268  0.00  0.00    -0.347 OA
ATOM      7  C   UNL     1      11.916   8.919  19.085  0.00  0.00    +0.143 C 
ATOM      8  C   UNL     1      13.585   7.745  20.687  0.00  0.00    +0.116 C 
ATOM      9  C   UNL     1      13.329   8.922  19.713  0.00  0.00    +0.156 C 
ATOM     10  C   UNL     1      12.303   7.299  21.427  0.00  0.00    +0.166 C 
ATOM     11  C   UNL     1      10.885   8.361  20.084  0.00  0.00    +0.270 C 
ATOM     12  C   UNL     1      11.637   8.400  22.234  0.00  0.00    +0.196 C 
ENDROOT
BRANCH   9   3
ATOM      3  O   UNL     1      13.480  10.152  20.436  0.00  0.00    -0.388 OA
ATOM     35  H   UNL     1      14.431  10.298  20.571  0.00  0.00    +0.210 HD
ENDBRANCH   9   3
BRANCH   7   4
ATOM      4  N   UNL     1      11.898   8.128  17.854  0.00  0.00    -0.295 NA
ATOM     14  C   UNL     1      10.683   8.403  17.088  0.00  0.00    +0.105 C 
BRANCH   4  13
ATOM     13  C   UNL     1      13.085   8.410  17.049  0.00  0.00    +0.091 C 
BRANCH  13  16
ATOM     16  C   UNL     1      12.823   9.551  16.065  0.00  0.00    +0.071 C 
BRANCH  16  18
ATOM      6  N   UNL     1      14.717  10.285  14.724  0.00  0.00    -0.260 NA
ATOM     18  C   UNL     1      14.042  10.419  15.887  0.00  0.00    +0.042 A 
ATOM     21  C   UNL     1      14.407  11.292  16.900  0.00  0.00    +0.023 A 
ATOM     25  C   UNL     1      15.536  12.080  16.704  0.00  0.00    +0.003 A 
ATOM     26  C   UNL     1      15.810  11.066  14.570  0.00  0.00    +0.111 A 
ATOM     28  C   UNL     1      16.256  11.971  15.520  0.00  0.00    +0.020 A 
ENDBRANCH  16  18
ENDBRANCH  13  16
ENDBRANCH   4  13
ENDBRANCH   7   4
BRANCH   8   5
ATOM      5  N   UNL     1      14.120   6.586  19.963  0.00  0.00    -0.305 NA
ATOM     34  H   UNL     1      13.371   6.131  19.443  0.00  0.00    +0.123 HD
BRANCH   5  15
ATOM     15  C   UNL     1      15.183   6.995  19.060  0.00  0.00    +0.116 C 
BRANCH  15  17
ATOM     17  C   UNL     1      16.545   6.685  19.621  0.00  0.00    -0.034 A 
ATOM     19  C   UNL     1      17.029   7.402  20.714  0.00  0.00    +0.005 A 
ATOM     20  C   UNL     1      17.323   5.679  19.046  0.00  0.00    +0.005 A 
ATOM     22  C   UNL     1      18.292   7.114  21.233  0.00  0.00    +0.009 A 
ATOM     23  C   UNL     1      18.585   5.391  19.565  0.00  0.00    +0.009 A 
ATOM     24  C   UNL     1      19.069   6.109  20.659  0.00  0.00    -0.018 A 
BRANCH  24  27
ATOM     27  C   UNL     1      20.379   5.810  21.196  0.00  0.00    -0.018 A 
ATOM     29  C   UNL     1      21.342   5.203  20.392  0.00  0.00    +0.008 A 
ATOM     30  C   UNL     1      20.679   6.132  22.521  0.00  0.00    +0.008 A 
ATOM     31  C   UNL     1      22.605   4.915  20.910  0.00  0.00    +0.001 A 
ATOM     32  C   UNL     1      21.942   5.844  23.039  0.00  0.00    +0.001 A 
ATOM     33  C   UNL     1      22.904   5.236  22.233  0.00  0.00    +0.000 A 
ENDBRANCH  24  27
ENDBRANCH  15  17
ENDBRANCH   5  15
ENDBRANCH   8   5
TORSDOF 9
ENDMDL
MODEL 2
REMARK VINA RESULT:      -7.6     14.510     18.473
REMARK  Name = 28960610
REMARK  10 active torsions:
REMARK  status: ('A' for Active; 'I' for Inactive)
REMARK    1  A    between atoms: O_3  and  C_9
REMARK    2  A    between atoms: N_4  and  C_7
REMARK    3  A    between atoms: N_4  and  C_13
REMARK    4  A    between atoms: N_4  and  C_14
REMARK    5  A    between atoms: N_5  and  C_8
REMARK    6  A    between atoms: N_5  and  C_15
REMARK    7  A    between atoms: C_13  and  C_16
REMARK    8  A    between atoms: C_15  and  C_17
REMARK    9  A    between atoms: C_16  and  C_18
REMARK   10  A    between atoms: C_24  and  C_27
REMARK                            x       y       z     vdW  Elec       q    Type
REMARK                         _______ _______ _______ _____ _____    ______ ____
ROOT
ATOM      1  O   UNL     1      12.887   3.039  -0.527  0.00  0.00    -0.343 OA
ATOM      2  O   UNL     1      14.117   3.943  -2.273  0.00  0.00    -0.347 OA
ATOM      7  C   UNL     1      13.753   5.281  -0.292  0.00  0.00    +0.143 C 
ATOM      8  C   UNL     1      11.360   4.799  -1.172  0.00  0.00    +0.116 C 
ATOM      9  C   UNL     1      12.453   5.862  -0.897  0.00  0.00    +0.156 C 
ATOM     10  C   UNL     1      11.953   3.420  -1.542  0.00  0.00    +0.166 C 
ATOM     11  C   UNL     1      14.016   3.866  -0.842  0.00  0.00    +0.270 C 
ATOM     12  C   UNL     1      12.862   3.441  -2.759  0.00  0.00    +0.196 C 
ENDROOT
BRANCH   9   3
ATOM      3  O   UNL     1      12.797   6.492  -2.139  0.00  0.00    -0.388 OA
ATOM     35  H   UNL     1      13.592   7.030  -1.985  0.00  0.00    +0.210 HD
ENDBRANCH   9   3
BRANCH   7   4
ATOM      4  N   UNL     1      13.672   5.243   1.168  0.00  0.00    -0.295 NA
ATOM     14  C   UNL     1      14.769   4.448   1.720  0.00  0.00    +0.105 C 
BRANCH   4  13
ATOM     13  C   UNL     1      13.696   6.598   1.717  0.00  0.00    +0.091 C 
BRANCH  13  16
ATOM     16  C   UNL     1      14.879   6.784   2.667  0.00  0.00    +0.071 C 
BRANCH  16  18
ATOM      6  N   UNL     1      15.388   7.383   4.972  0.00  0.00    -0.260 NA
ATOM     18  C   UNL     1      14.422   7.179   4.049  0.00  0.00    +0.042 A 
ATOM     21  C   UNL     1      13.066   7.311   4.302  0.00  0.00    +0.023 A 
ATOM     25  C   UNL     1      12.677   7.678   5.586  0.00  0.00    +0.003 A 
ATOM     26  C   UNL     1      14.972   7.738   6.208  0.00  0.00    +0.111 A 
ATOM     28  C   UNL     1      13.642   7.897   6.562  0.00  0.00    +0.020 A 
ENDBRANCH  16  18
ENDBRANCH  13  16
ENDBRANCH   4  13
ENDBRANCH   7   4
BRANCH   8   5
ATOM      5  N   UNL     1      10.504   4.626   0.007  0.00  0.00    -0.305 NA
ATOM     34  H   UNL     1      10.979   4.041   0.692  0.00  0.00    +0.123 HD
BRANCH   5  15
ATOM     15  C   UNL     1      10.172   5.915   0.590  0.00  0.00    +0.116 C 
BRANCH  15  17
ATOM     17  C   UNL     1      10.025   5.832   2.086  0.00  0.00    -0.034 A 
ATOM     19  C   UNL     1      10.517   4.723   2.775  0.00  0.00    +0.005 A 
ATOM     20  C   UNL     1       9.398   6.865   2.783  0.00  0.00    +0.005 A 
ATOM     22  C   UNL     1      10.380   4.648   4.161  0.00  0.00    +0.009 A 
ATOM     23  C   UNL     1       9.261   6.789   4.169  0.00  0.00    +0.009 A 
ATOM     24  C   UNL     1       9.753   5.680   4.858  0.00  0.00    -0.018 A 
BRANCH  24  27
ATOM     27  C   UNL     1       9.611   5.601   6.296  0.00  0.00    -0.018 A 
ATOM     29  C   UNL     1       9.132   6.697   7.011  0.00  0.00    +0.008 A 
ATOM     30  C   UNL     1       9.954   4.426   6.967  0.00  0.00    +0.008 A 
ATOM     31  C   UNL     1       8.995   6.622   8.397  0.00  0.00    +0.001 A 
ATOM     32  C   UNL     1       9.816   4.350   8.353  0.00  0.00    +0.001 A 
ATOM     33  C   UNL     1       9.337   5.448   9.068  0.00  0.00    +0.000 A 
ENDBRANCH  24  27
ENDBRANCH  15  17
ENDBRANCH   5  15
ENDBRANCH   8   5
TORSDOF 9
ENDMDL
MODEL 3
REMARK VINA RESULT:      -7.6      3.298      4.983
REMARK  Name = 28960610
REMARK  10 active torsions:
REMARK  status: ('A' for Active; 'I' for Inactive)
REMARK    1  A    between atoms: O_3  and  C_9
REMARK    2  A    between atoms: N_4  and  C_7
REMARK    3  A    between atoms: N_4  and  C_13
REMARK    4  A    between atoms: N_4  and  C_14
REMARK    5  A    between atoms: N_5  and  C_8
REMARK    6  A    between atoms: N_5  and  C_15
REMARK    7  A    between atoms: C_13  and  C_16
REMARK    8  A    between atoms: C_15  and  C_17
REMARK    9  A    between atoms: C_16  and  C_18
REMARK   10  A    between atoms: C_24  and  C_27
REMARK                            x       y       z     vdW  Elec       q    Type
REMARK                         _______ _______ _______ _____ _____    ______ ____
ROOT
ATOM      1  O   UNL     1      12.696  11.383  24.619  0.00  0.00    -0.343 OA
ATOM      2  O   UNL     1      10.731  12.271  25.474  0.00  0.00    -0.347 OA
ATOM      7  C   UNL     1      10.653  11.087  23.367  0.00  0.00    +0.143 C 
ATOM      8  C   UNL     1      12.285  13.054  22.921  0.00  0.00    +0.116 C 
ATOM      9  C   UNL     1      10.919  12.400  22.595  0.00  0.00    +0.156 C 
ATOM     10  C   UNL     1      12.735  12.793  24.377  0.00  0.00    +0.166 C 
ATOM     11  C   UNL     1      11.289  11.149  24.768  0.00  0.00    +0.270 C 
ATOM     12  C   UNL     1      11.752  13.280  25.428  0.00  0.00    +0.196 C 
ENDROOT
BRANCH   9   3
ATOM      3  O   UNL     1       9.878  13.325  22.941  0.00  0.00    -0.388 OA
ATOM     35  H   UNL     1       9.887  14.037  22.280  0.00  0.00    +0.210 HD
ENDBRANCH   9   3
BRANCH   7   4
ATOM      4  N   UNL     1      11.180   9.938  22.630  0.00  0.00    -0.295 NA
ATOM     14  C   UNL     1      10.544   8.703  23.088  0.00  0.00    +0.105 C 
BRANCH   4  13
ATOM     13  C   UNL     1      10.976  10.116  21.193  0.00  0.00    +0.091 C 
BRANCH  13  16
ATOM     16  C   UNL     1      11.472   8.897  20.414  0.00  0.00    +0.071 C 
BRANCH  16  18
ATOM      6  N   UNL     1      12.967  10.559  19.448  0.00  0.00    -0.260 NA
ATOM     18  C   UNL     1      12.613   9.256  19.495  0.00  0.00    +0.042 A 
ATOM     21  C   UNL     1      13.230   8.257  18.760  0.00  0.00    +0.023 A 
ATOM     25  C   UNL     1      14.280   8.620  17.923  0.00  0.00    +0.003 A 
ATOM     26  C   UNL     1      13.990  10.874  18.624  0.00  0.00    +0.111 A 
ATOM     28  C   UNL     1      14.674   9.951  17.848  0.00  0.00    +0.020 A 
ENDBRANCH  16  18
ENDBRANCH  13  16
ENDBRANCH   4  13
ENDBRANCH   7   4
BRANCH   8   5
ATOM      5  N   UNL     1      13.327  12.543  22.023  0.00  0.00    -0.305 NA
ATOM     34  H   UNL     1      13.506  13.222  21.285  0.00  0.00    +0.123 HD
BRANCH   5  15
ATOM     15  C   UNL     1      14.548  12.270  22.762  0.00  0.00    +0.116 C 
BRANCH  15  17
ATOM     17  C   UNL     1      15.271  11.064  22.224  0.00  0.00    -0.034 A 
ATOM     19  C   UNL     1      16.477  11.222  21.539  0.00  0.00    +0.005 A 
ATOM     20  C   UNL     1      14.736   9.790  22.410  0.00  0.00    +0.005 A 
ATOM     22  C   UNL     1      17.146  10.104  21.041  0.00  0.00    +0.009 A 
ATOM     23  C   UNL     1      15.405   8.672  21.912  0.00  0.00    +0.009 A 
ATOM     24  C   UNL     1      16.611   8.830  21.227  0.00  0.00    -0.018 A 
BRANCH  24  27
ATOM     27  C   UNL     1      17.305   7.670  20.710  0.00  0.00    -0.018 A 
ATOM     29  C   UNL     1      16.713   6.887  19.721  0.00  0.00    +0.008 A 
ATOM     30  C   UNL     1      18.568   7.338  21.201  0.00  0.00    +0.008 A 
ATOM     31  C   UNL     1      17.382   5.768  19.222  0.00  0.00    +0.001 A 
ATOM     32  C   UNL     1      19.238   6.220  20.701  0.00  0.00    +0.001 A 
ATOM     33  C   UNL     1      18.644   5.436  19.712  0.00  0.00    +0.000 A 
ENDBRANCH  24  27
ENDBRANCH  15  17
ENDBRANCH   5  15
ENDBRANCH   8   5
TORSDOF 9
ENDMDL
MODEL 4
REMARK VINA RESULT:      -7.1      2.602      3.403
REMARK  Name = 28960610
REMARK  10 active torsions:
REMARK  status: ('A' for Active; 'I' for Inactive)
REMARK    1  A    between atoms: O_3  and  C_9
REMARK    2  A    between atoms: N_4  and  C_7
REMARK    3  A    between atoms: N_4  and  C_13
REMARK    4  A    between atoms: N_4  and  C_14
REMARK    5  A    between atoms: N_5  and  C_8
REMARK    6  A    between atoms: N_5  and  C_15
REMARK    7  A    between atoms: C_13  and  C_16
REMARK    8  A    between atoms: C_15  and  C_17
REMARK    9  A    between atoms: C_16  and  C_18
REMARK   10  A    between atoms: C_24  and  C_27
REMARK                            x       y       z     vdW  Elec       q    Type
REMARK                         _______ _______ _______ _____ _____    ______ ____
ROOT
ATOM      1  O   UNL     1      11.996   7.094  19.201  0.00  0.00    -0.343 OA
ATOM      2  O   UNL     1      10.728   7.880  20.977  0.00  0.00    -0.347 OA
ATOM      7  C   UNL     1      12.479   9.288  20.086  0.00  0.00    +0.143 C 
ATOM      8  C   UNL     1      13.731   7.161  20.884  0.00  0.00    +0.116 C 
ATOM      9  C   UNL     1      13.501   8.681  21.075  0.00  0.00    +0.156 C 
ATOM     10  C   UNL     1      12.467   6.429  20.377  0.00  0.00    +0.166 C 
ATOM     11  C   UNL     1      11.378   8.265  19.754  0.00  0.00    +0.270 C 
ATOM     12  C   UNL     1      11.257   6.580  21.283  0.00  0.00    +0.196 C 
ENDROOT
BRANCH   9   3
ATOM      3  O   UNL     1      13.004   8.902  22.403  0.00  0.00    -0.388 OA
ATOM     35  H   UNL     1      12.133   8.474  22.465  0.00  0.00    +0.210 HD
ENDBRANCH   9   3
BRANCH   7   4
ATOM      4  N   UNL     1      13.144   9.723  18.857  0.00  0.00    -0.295 NA
ATOM     14  C   UNL     1      12.396   9.270  17.684  0.00  0.00    +0.105 C 
BRANCH   4  13
ATOM     13  C   UNL     1      13.289  11.177  18.841  0.00  0.00    +0.091 C 
BRANCH  13  16
ATOM     16  C   UNL     1      13.387  11.734  20.262  0.00  0.00    +0.071 C 
BRANCH  16  18
ATOM      6  N   UNL     1      12.450  13.894  19.640  0.00  0.00    -0.260 NA
ATOM     18  C   UNL     1      12.393  12.845  20.490  0.00  0.00    +0.042 A 
ATOM     21  C   UNL     1      11.489  12.742  21.536  0.00  0.00    +0.023 A 
ATOM     25  C   UNL     1      10.585  13.783  21.719  0.00  0.00    +0.003 A 
ATOM     26  C   UNL     1      11.557  14.887  19.850  0.00  0.00    +0.111 A 
ATOM     28  C   UNL     1      10.613  14.879  20.864  0.00  0.00    +0.020 A 
ENDBRANCH  16  18
ENDBRANCH  13  16
ENDBRANCH   4  13
ENDBRANCH   7   4
BRANCH   8   5
ATOM      5  N   UNL     1      14.813   6.921  19.922  0.00  0.00    -0.305 NA
ATOM     34  H   UNL     1      14.452   7.011  18.973  0.00  0.00    +0.123 HD
BRANCH   5  15
ATOM     15  C   UNL     1      15.902   7.858  20.137  0.00  0.00    +0.116 C 
BRANCH  15  17
ATOM     17  C   UNL     1      17.226   7.156  20.278  0.00  0.00    -0.034 A 
ATOM     19  C   UNL     1      18.179   7.637  21.176  0.00  0.00    +0.005 A 
ATOM     20  C   UNL     1      17.500   6.022  19.512  0.00  0.00    +0.005 A 
ATOM     22  C   UNL     1      19.405   6.985  21.307  0.00  0.00    +0.009 A 
ATOM     23  C   UNL     1      18.726   5.371  19.643  0.00  0.00    +0.009 A 
ATOM     24  C   UNL     1      19.679   5.852  20.541  0.00  0.00    -0.018 A 
BRANCH  24  27
ATOM     27  C   UNL     1      20.951   5.177  20.676  0.00  0.00    -0.018 A 
ATOM     29  C   UNL     1      22.139   5.885  20.500  0.00  0.00    +0.008 A 
ATOM     30  C   UNL     1      20.989   3.816  20.983  0.00  0.00    +0.008 A 
ATOM     31  C   UNL     1      23.366   5.234  20.630  0.00  0.00    +0.001 A 
ATOM     32  C   UNL     1      22.216   3.165  21.115  0.00  0.00    +0.001 A 
ATOM     33  C   UNL     1      23.404   3.874  20.937  0.00  0.00    +0.000 A 
ENDBRANCH  24  27
ENDBRANCH  15  17
ENDBRANCH   5  15
ENDBRANCH   8   5
TORSDOF 9
ENDMDL
MODEL 5
REMARK VINA RESULT:      -7.1     26.664     29.043
REMARK  Name = 28960610
REMARK  10 active torsions:
REMARK  status: ('A' for Active; 'I' for Inactive)
REMARK    1  A    between atoms: O_3  and  C_9
REMARK    2  A    between atoms: N_4  and  C_7
REMARK    3  A    between atoms: N_4  and  C_13
REMARK    4  A    between atoms: N_4  and  C_14
REMARK    5  A    between atoms: N_5  and  C_8
REMARK    6  A    between atoms: N_5  and  C_15
REMARK    7  A    between atoms: C_13  and  C_16
REMARK    8  A    between atoms: C_15  and  C_17
REMARK    9  A    between atoms: C_16  and  C_18
REMARK   10  A    between atoms: C_24  and  C_27
REMARK                            x       y       z     vdW  Elec       q    Type
REMARK                         _______ _______ _______ _____ _____    ______ ____
ROOT
ATOM      1  O   UNL     1     -13.331  10.060  13.942  0.00  0.00    -0.343 OA
ATOM      2  O   UNL     1     -12.531   8.114  12.967  0.00  0.00    -0.347 OA
ATOM      7  C   UNL     1     -12.890   8.154  15.357  0.00  0.00    +0.143 C 
ATOM      8  C   UNL     1     -11.136  10.023  14.955  0.00  0.00    +0.116 C 
ATOM      9  C   UNL     1     -11.441   8.643  15.588  0.00  0.00    +0.156 C 
ATOM     10  C   UNL     1     -11.944  10.274  13.661  0.00  0.00    +0.166 C 
ATOM     11  C   UNL     1     -13.405   8.628  13.985  0.00  0.00    +0.270 C 
ATOM     12  C   UNL     1     -11.720   9.233  12.577  0.00  0.00    +0.196 C 
ENDROOT
BRANCH   9   3
ATOM      3  O   UNL     1     -10.558   7.672  15.008  0.00  0.00    -0.388 OA
ATOM     35  H   UNL     1      -9.952   7.373  15.706  0.00  0.00    +0.210 HD
ENDBRANCH   9   3
BRANCH   7   4
ATOM      4  N   UNL     1     -13.774   8.639  16.417  0.00  0.00    -0.295 NA
ATOM     14  C   UNL     1     -15.110   8.061  16.272  0.00  0.00    +0.105 C 
BRANCH   4  13
ATOM     13  C   UNL     1     -13.219   8.319  17.732  0.00  0.00    +0.091 C 
BRANCH  13  16
ATOM     16  C   UNL     1     -14.320   8.245  18.790  0.00  0.00    +0.071 C 
BRANCH  16  18
ATOM      6  N   UNL     1     -14.953   6.783  20.632  0.00  0.00    -0.260 NA
ATOM     18  C   UNL     1     -13.938   7.327  19.923  0.00  0.00    +0.042 A 
ATOM     21  C   UNL     1     -12.598   7.090  20.181  0.00  0.00    +0.023 A 
ATOM     25  C   UNL     1     -12.278   6.238  21.232  0.00  0.00    +0.003 A 
ATOM     26  C   UNL     1     -14.604   5.962  21.646  0.00  0.00    +0.111 A 
ATOM     28  C   UNL     1     -13.294   5.659  21.984  0.00  0.00    +0.020 A 
ENDBRANCH  16  18
ENDBRANCH  13  16
ENDBRANCH   4  13
ENDBRANCH   7   4
BRANCH   8   5
ATOM      5  N   UNL     1     -11.444  11.102  15.901  0.00  0.00    -0.305 NA
ATOM     34  H   UNL     1     -12.347  10.925  16.339  0.00  0.00    +0.123 HD
BRANCH   5  15
ATOM     15  C   UNL     1     -10.405  11.205  16.912  0.00  0.00    +0.116 C 
BRANCH  15  17
ATOM     17  C   UNL     1     -10.960  11.055  18.303  0.00  0.00    -0.034 A 
ATOM     19  C   UNL     1     -10.450  10.075  19.155  0.00  0.00    +0.005 A 
ATOM     20  C   UNL     1     -11.985  11.895  18.740  0.00  0.00    +0.005 A 
ATOM     22  C   UNL     1     -10.965   9.937  20.444  0.00  0.00    +0.009 A 
ATOM     23  C   UNL     1     -12.499  11.756  20.028  0.00  0.00    +0.009 A 
ATOM     24  C   UNL     1     -11.989  10.777  20.881  0.00  0.00    -0.018 A 
BRANCH  24  27
ATOM     27  C   UNL     1     -12.523  10.632  22.218  0.00  0.00    -0.018 A 
ATOM     29  C   UNL     1     -13.592   9.768  22.452  0.00  0.00    +0.008 A 
ATOM     30  C   UNL     1     -11.968  11.357  23.273  0.00  0.00    +0.008 A 
ATOM     31  C   UNL     1     -14.108   9.629  23.741  0.00  0.00    +0.001 A 
ATOM     32  C   UNL     1     -12.483  11.217  24.562  0.00  0.00    +0.001 A 
ATOM     33  C   UNL     1     -13.553  10.353  24.796  0.00  0.00    +0.000 A 
ENDBRANCH  24  27
ENDBRANCH  15  17
ENDBRANCH   5  15
ENDBRANCH   8   5
TORSDOF 9
ENDMDL
MODEL 6
REMARK VINA RESULT:      -7.0     14.625     18.347
REMARK  Name = 28960610
REMARK  10 active torsions:
REMARK  status: ('A' for Active; 'I' for Inactive)
REMARK    1  A    between atoms: O_3  and  C_9
REMARK    2  A    between atoms: N_4  and  C_7
REMARK    3  A    between atoms: N_4  and  C_13
REMARK    4  A    between atoms: N_4  and  C_14
REMARK    5  A    between atoms: N_5  and  C_8
REMARK    6  A    between atoms: N_5  and  C_15
REMARK    7  A    between atoms: C_13  and  C_16
REMARK    8  A    between atoms: C_15  and  C_17
REMARK    9  A    between atoms: C_16  and  C_18
REMARK   10  A    between atoms: C_24  and  C_27
REMARK                            x       y       z     vdW  Elec       q    Type
REMARK                         _______ _______ _______ _____ _____    ______ ____
ROOT
ATOM      1  O   UNL     1       8.210   6.896   5.971  0.00  0.00    -0.343 OA
ATOM      2  O   UNL     1       9.056   7.553   8.028  0.00  0.00    -0.347 OA
ATOM      7  C   UNL     1       9.841   8.675   6.036  0.00  0.00    +0.143 C 
ATOM      8  C   UNL     1      10.503   6.195   5.660  0.00  0.00    +0.116 C 
ATOM      9  C   UNL     1      10.988   7.649   5.884  0.00  0.00    +0.156 C 
ATOM     10  C   UNL     1       9.160   5.902   6.368  0.00  0.00    +0.166 C 
ATOM     11  C   UNL     1       8.633   8.030   6.740  0.00  0.00    +0.270 C 
ATOM     12  C   UNL     1       9.187   6.131   7.869  0.00  0.00    +0.196 C 
ENDROOT
BRANCH   9   3
ATOM      3  O   UNL     1      11.767   7.689   7.088  0.00  0.00    -0.388 OA
ATOM     35  H   UNL     1      12.321   8.487   7.053  0.00  0.00    +0.210 HD
ENDBRANCH   9   3
BRANCH   7   4
ATOM      4  N   UNL     1       9.438   9.198   4.730  0.00  0.00    -0.295 NA
ATOM     14  C   UNL     1       8.602  10.388   4.892  0.00  0.00    +0.105 C 
BRANCH   4  13
ATOM     13  C   UNL     1      10.614   9.506   3.918  0.00  0.00    +0.091 C 
BRANCH  13  16
ATOM     16  C   UNL     1      10.399   9.090   2.462  0.00  0.00    +0.071 C 
BRANCH  16  18
ATOM      6  N   UNL     1      12.446   7.821   2.824  0.00  0.00    -0.260 NA
ATOM     18  C   UNL     1      11.594   8.350   1.917  0.00  0.00    +0.042 A 
ATOM     21  C   UNL     1      11.761   8.249   0.545  0.00  0.00    +0.023 A 
ATOM     25  C   UNL     1      12.873   7.559   0.074  0.00  0.00    +0.003 A 
ATOM     26  C   UNL     1      13.515   7.159   2.329  0.00  0.00    +0.111 A 
ATOM     28  C   UNL     1      13.771   7.000   0.976  0.00  0.00    +0.020 A 
ENDBRANCH  16  18
ENDBRANCH  13  16
ENDBRANCH   4  13
ENDBRANCH   7   4
BRANCH   8   5
ATOM      5  N   UNL     1      10.332   5.925   4.228  0.00  0.00    -0.305 NA
ATOM     34  H   UNL     1      10.919   6.560   3.688  0.00  0.00    +0.123 HD
BRANCH   5  15
ATOM     15  C   UNL     1      10.672   4.545   3.925  0.00  0.00    +0.116 C 
BRANCH  15  17
ATOM     17  C   UNL     1      11.033   4.362   2.475  0.00  0.00    -0.034 A 
ATOM     19  C   UNL     1      12.199   3.680   2.127  0.00  0.00    +0.005 A 
ATOM     20  C   UNL     1      10.201   4.874   1.480  0.00  0.00    +0.005 A 
ATOM     22  C   UNL     1      12.533   3.511   0.783  0.00  0.00    +0.009 A 
ATOM     23  C   UNL     1      10.534   4.704   0.136  0.00  0.00    +0.009 A 
ATOM     24  C   UNL     1      11.701   4.023  -0.212  0.00  0.00    -0.018 A 
BRANCH  24  27
ATOM     27  C   UNL     1      12.047   3.847  -1.606  0.00  0.00    -0.018 A 
ATOM     29  C   UNL     1      12.302   4.960  -2.406  0.00  0.00    +0.008 A 
ATOM     30  C   UNL     1      12.126   2.564  -2.149  0.00  0.00    +0.008 A 
ATOM     31  C   UNL     1      12.636   4.791  -3.750  0.00  0.00    +0.001 A 
ATOM     32  C   UNL     1      12.461   2.396  -3.492  0.00  0.00    +0.001 A 
ATOM     33  C   UNL     1      12.715   3.509  -4.293  0.00  0.00    +0.000 A 
ENDBRANCH  24  27
ENDBRANCH  15  17
ENDBRANCH   5  15
ENDBRANCH   8   5
TORSDOF 9
ENDMDL
MODEL 7
REMARK VINA RESULT:      -6.9     21.147     24.426
REMARK  Name = 28960610
REMARK  10 active torsions:
REMARK  status: ('A' for Active; 'I' for Inactive)
REMARK    1  A    between atoms: O_3  and  C_9
REMARK    2  A    between atoms: N_4  and  C_7
REMARK    3  A    between atoms: N_4  and  C_13
REMARK    4  A    between atoms: N_4  and  C_14
REMARK    5  A    between atoms: N_5  and  C_8
REMARK    6  A    between atoms: N_5  and  C_15
REMARK    7  A    between atoms: C_13  and  C_16
REMARK    8  A    between atoms: C_15  and  C_17
REMARK    9  A    between atoms: C_16  and  C_18
REMARK   10  A    between atoms: C_24  and  C_27
REMARK                            x       y       z     vdW  Elec       q    Type
REMARK                         _______ _______ _______ _____ _____    ______ ____
ROOT
ATOM      1  O   UNL     1      10.217  -6.886  35.162  0.00  0.00    -0.343 OA
ATOM      2  O   UNL     1      11.014  -4.882  34.307  0.00  0.00    -0.347 OA
ATOM      7  C   UNL     1       9.060  -4.845  35.730  0.00  0.00    +0.143 C 
ATOM      8  C   UNL     1       8.350  -6.336  33.729  0.00  0.00    +0.116 C 
ATOM      9  C   UNL     1       8.135  -5.010  34.501  0.00  0.00    +0.156 C 
ATOM     10  C   UNL     1       9.814  -6.828  33.790  0.00  0.00    +0.166 C 
ATOM     11  C   UNL     1      10.428  -5.500  35.465  0.00  0.00    +0.270 C 
ATOM     12  C   UNL     1      10.826  -5.834  33.247  0.00  0.00    +0.196 C 
ENDROOT
BRANCH   9   3
ATOM      3  O   UNL     1       8.399  -3.917  33.610  0.00  0.00    -0.388 OA
ATOM     35  H   UNL     1       7.950  -4.109  32.770  0.00  0.00    +0.210 HD
ENDBRANCH   9   3
BRANCH   7   4
ATOM      4  N   UNL     1       8.447  -5.432  36.921  0.00  0.00    -0.295 NA
ATOM     14  C   UNL     1       9.154  -4.999  38.126  0.00  0.00    +0.105 C 
BRANCH   4  13
ATOM     13  C   UNL     1       7.033  -5.068  37.000  0.00  0.00    +0.091 C 
BRANCH  13  16
ATOM     16  C   UNL     1       6.396  -5.616  38.278  0.00  0.00    +0.071 C 
BRANCH  16  18
ATOM      6  N   UNL     1       5.873  -7.663  37.069  0.00  0.00    -0.260 NA
ATOM     18  C   UNL     1       5.457  -6.758  37.982  0.00  0.00    +0.042 A 
ATOM     21  C   UNL     1       4.241  -6.825  38.644  0.00  0.00    +0.023 A 
ATOM     25  C   UNL     1       3.398  -7.891  38.349  0.00  0.00    +0.003 A 
ATOM     26  C   UNL     1       5.027  -8.685  36.808  0.00  0.00    +0.111 A 
ATOM     28  C   UNL     1       3.792  -8.843  37.416  0.00  0.00    +0.020 A 
ENDBRANCH  16  18
ENDBRANCH  13  16
ENDBRANCH   4  13
ENDBRANCH   7   4
BRANCH   8   5
ATOM      5  N   UNL     1       7.491  -7.393  34.274  0.00  0.00    -0.305 NA
ATOM     34  H   UNL     1       7.207  -7.149  35.223  0.00  0.00    +0.123 HD
BRANCH   5  15
ATOM     15  C   UNL     1       6.321  -7.583  33.434  0.00  0.00    +0.116 C 
BRANCH  15  17
ATOM     17  C   UNL     1       6.487  -8.751  32.497  0.00  0.00    -0.034 A 
ATOM     19  C   UNL     1       6.480 -10.053  32.998  0.00  0.00    +0.005 A 
ATOM     20  C   UNL     1       6.649  -8.530  31.130  0.00  0.00    +0.005 A 
ATOM     22  C   UNL     1       6.634 -11.134  32.130  0.00  0.00    +0.009 A 
ATOM     23  C   UNL     1       6.803  -9.611  30.262  0.00  0.00    +0.009 A 
ATOM     24  C   UNL     1       6.795 -10.913  30.762  0.00  0.00    -0.018 A 
BRANCH  24  27
ATOM     27  C   UNL     1       6.956 -12.034  29.862  0.00  0.00    -0.018 A 
ATOM     29  C   UNL     1       6.085 -13.120  29.938  0.00  0.00    +0.008 A 
ATOM     30  C   UNL     1       7.983 -12.028  28.917  0.00  0.00    +0.008 A 
ATOM     31  C   UNL     1       6.240 -14.201  29.070  0.00  0.00    +0.001 A 
ATOM     32  C   UNL     1       8.137 -13.109  28.049  0.00  0.00    +0.001 A 
ATOM     33  C   UNL     1       7.266 -14.196  28.126  0.00  0.00    +0.000 A 
ENDBRANCH  24  27
ENDBRANCH  15  17
ENDBRANCH   5  15
ENDBRANCH   8   5
TORSDOF 9
ENDMDL
MODEL 8
REMARK VINA RESULT:      -6.8     27.367     31.048
REMARK  Name = 28960610
REMARK  10 active torsions:
REMARK  status: ('A' for Active; 'I' for Inactive)
REMARK    1  A    between atoms: O_3  and  C_9
REMARK    2  A    between atoms: N_4  and  C_7
REMARK    3  A    between atoms: N_4  and  C_13
REMARK    4  A    between atoms: N_4  and  C_14
REMARK    5  A    between atoms: N_5  and  C_8
REMARK    6  A    between atoms: N_5  and  C_15
REMARK    7  A    between atoms: C_13  and  C_16
REMARK    8  A    between atoms: C_15  and  C_17
REMARK    9  A    between atoms: C_16  and  C_18
REMARK   10  A    between atoms: C_24  and  C_27
REMARK                            x       y       z     vdW  Elec       q    Type
REMARK                         _______ _______ _______ _____ _____    ______ ____
ROOT
ATOM      1  O   UNL     1      -3.781 -10.941  12.740  0.00  0.00    -0.343 OA
ATOM      2  O   UNL     1      -2.643 -12.939  12.439  0.00  0.00    -0.347 OA
ATOM      7  C   UNL     1      -4.705 -12.953  13.702  0.00  0.00    +0.143 C 
ATOM      8  C   UNL     1      -3.160 -11.354  15.039  0.00  0.00    +0.116 C 
ATOM      9  C   UNL     1      -3.927 -12.700  15.015  0.00  0.00    +0.156 C 
ATOM     10  C   UNL     1      -2.667 -10.926  13.638  0.00  0.00    +0.166 C 
ATOM     11  C   UNL     1      -3.951 -12.345  12.505  0.00  0.00    +0.270 C 
ATOM     12  C   UNL     1      -1.757 -11.939  12.964  0.00  0.00    +0.196 C 
ENDROOT
BRANCH   9   3
ATOM      3  O   UNL     1      -2.979 -13.766  15.170  0.00  0.00    -0.388 OA
ATOM     35  H   UNL     1      -3.266 -14.306  15.925  0.00  0.00    +0.210 HD
ENDBRANCH   9   3
BRANCH   7   4
ATOM      4  N   UNL     1      -6.052 -12.389  13.783  0.00  0.00    -0.295 NA
ATOM     14  C   UNL     1      -6.831 -12.757  12.601  0.00  0.00    +0.105 C 
BRANCH   4  13
ATOM     13  C   UNL     1      -6.724 -12.842  14.999  0.00  0.00    +0.091 C 
BRANCH  13  16
ATOM     16  C   UNL     1      -8.211 -12.487  14.970  0.00  0.00    +0.071 C 
BRANCH  16  18
ATOM      6  N   UNL     1      -8.203 -13.784  17.031  0.00  0.00    -0.260 NA
ATOM     18  C   UNL     1      -8.939 -13.053  16.164  0.00  0.00    +0.042 A 
ATOM     21  C   UNL     1     -10.294 -12.804  16.312  0.00  0.00    +0.023 A 
ATOM     25  C   UNL     1     -10.935 -13.339  17.424  0.00  0.00    +0.003 A 
ATOM     26  C   UNL     1      -8.861 -14.288  18.099  0.00  0.00    +0.111 A 
ATOM     28  C   UNL     1     -10.212 -14.096  18.339  0.00  0.00    +0.020 A 
ENDBRANCH  16  18
ENDBRANCH  13  16
ENDBRANCH   4  13
ENDBRANCH   7   4
BRANCH   8   5
ATOM      5  N   UNL     1      -4.015 -10.285  15.567  0.00  0.00    -0.305 NA
ATOM     34  H   UNL     1      -4.927 -10.319  15.113  0.00  0.00    +0.123 HD
BRANCH   5  15
ATOM     15  C   UNL     1      -4.165 -10.416  17.007  0.00  0.00    +0.116 C 
BRANCH  15  17
ATOM     17  C   UNL     1      -5.608 -10.329  17.430  0.00  0.00    -0.034 A 
ATOM     19  C   UNL     1      -6.048 -11.029  18.554  0.00  0.00    +0.005 A 
ATOM     20  C   UNL     1      -6.503  -9.549  16.699  0.00  0.00    +0.005 A 
ATOM     22  C   UNL     1      -7.384 -10.948  18.945  0.00  0.00    +0.009 A 
ATOM     23  C   UNL     1      -7.839  -9.467  17.090  0.00  0.00    +0.009 A 
ATOM     24  C   UNL     1      -8.280 -10.167  18.214  0.00  0.00    -0.018 A 
BRANCH  24  27
ATOM     27  C   UNL     1      -9.666 -10.083  18.620  0.00  0.00    -0.018 A 
ATOM     29  C   UNL     1     -10.079 -10.670  19.815  0.00  0.00    +0.008 A 
ATOM     30  C   UNL     1     -10.589  -9.415  17.815  0.00  0.00    +0.008 A 
ATOM     31  C   UNL     1     -11.416 -10.589  20.207  0.00  0.00    +0.001 A 
ATOM     32  C   UNL     1     -11.925  -9.334  18.207  0.00  0.00    +0.001 A 
ATOM     33  C   UNL     1     -12.339  -9.921  19.403  0.00  0.00    +0.000 A 
ENDBRANCH  24  27
ENDBRANCH  15  17
ENDBRANCH   5  15
ENDBRANCH   8   5
TORSDOF 9
ENDMDL
MODEL 9
REMARK VINA RESULT:      -6.8     14.115     17.960
REMARK  Name = 28960610
REMARK  10 active torsions:
REMARK  status: ('A' for Active; 'I' for Inactive)
REMARK    1  A    between atoms: O_3  and  C_9
REMARK    2  A    between atoms: N_4  and  C_7
REMARK    3  A    between atoms: N_4  and  C_13
REMARK    4  A    between atoms: N_4  and  C_14
REMARK    5  A    between atoms: N_5  and  C_8
REMARK    6  A    between atoms: N_5  and  C_15
REMARK    7  A    between atoms: C_13  and  C_16
REMARK    8  A    between atoms: C_15  and  C_17
REMARK    9  A    between atoms: C_16  and  C_18
REMARK   10  A    between atoms: C_24  and  C_27
REMARK                            x       y       z     vdW  Elec       q    Type
REMARK                         _______ _______ _______ _____ _____    ______ ____
ROOT
ATOM      1  O   UNL     1       9.878   8.165   5.727  0.00  0.00    -0.343 OA
ATOM      2  O   UNL     1       9.766   7.944   8.033  0.00  0.00    -0.347 OA
ATOM      7  C   UNL     1      11.915   7.725   6.946  0.00  0.00    +0.143 C 
ATOM      8  C   UNL     1      10.486   5.831   5.897  0.00  0.00    +0.116 C 
ATOM      9  C   UNL     1      11.702   6.202   6.783  0.00  0.00    +0.156 C 
ATOM     10  C   UNL     1       9.342   6.865   5.996  0.00  0.00    +0.166 C 
ATOM     11  C   UNL     1      10.562   8.460   6.953  0.00  0.00    +0.270 C 
ATOM     12  C   UNL     1       8.813   7.073   7.405  0.00  0.00    +0.196 C 
ENDROOT
BRANCH   9   3
ATOM      3  O   UNL     1      11.496   5.650   8.091  0.00  0.00    -0.388 OA
ATOM     35  H   UNL     1      11.084   6.340   8.639  0.00  0.00    +0.210 HD
ENDBRANCH   9   3
BRANCH   7   4
ATOM      4  N   UNL     1      12.762   8.247   5.873  0.00  0.00    -0.295 NA
ATOM     14  C   UNL     1      13.270   9.573   6.223  0.00  0.00    +0.105 C 
BRANCH   4  13
ATOM     13  C   UNL     1      13.868   7.330   5.604  0.00  0.00    +0.091 C 
BRANCH  13  16
ATOM     16  C   UNL     1      14.959   8.014   4.778  0.00  0.00    +0.071 C 
BRANCH  16  18
ATOM      6  N   UNL     1      16.040   7.701   2.619  0.00  0.00    -0.260 NA
ATOM     18  C   UNL     1      14.893   7.605   3.329  0.00  0.00    +0.042 A 
ATOM     21  C   UNL     1      13.690   7.162   2.803  0.00  0.00    +0.023 A 
ATOM     25  C   UNL     1      13.663   6.791   1.463  0.00  0.00    +0.003 A 
ATOM     26  C   UNL     1      15.974   7.334   1.320  0.00  0.00    +0.111 A 
ATOM     28  C   UNL     1      14.822   6.876   0.701  0.00  0.00    +0.020 A 
ENDBRANCH  16  18
ENDBRANCH  13  16
ENDBRANCH   4  13
ENDBRANCH   7   4
BRANCH   8   5
ATOM      5  N   UNL     1      10.888   5.729   4.490  0.00  0.00    -0.305 NA
ATOM     34  H   UNL     1      11.892   5.886   4.408  0.00  0.00    +0.123 HD
BRANCH   5  15
ATOM     15  C   UNL     1      10.537   4.425   3.952  0.00  0.00    +0.116 C 
BRANCH  15  17
ATOM     17  C   UNL     1      11.002   4.262   2.529  0.00  0.00    -0.034 A 
ATOM     19  C   UNL     1      12.155   3.528   2.251  0.00  0.00    +0.005 A 
ATOM     20  C   UNL     1      10.278   4.845   1.489  0.00  0.00    +0.005 A 
ATOM     22  C   UNL     1      12.584   3.378   0.933  0.00  0.00    +0.009 A 
ATOM     23  C   UNL     1      10.708   4.695   0.170  0.00  0.00    +0.009 A 
ATOM     24  C   UNL     1      11.861   3.960  -0.107  0.00  0.00    -0.018 A 
BRANCH  24  27
ATOM     27  C   UNL     1      12.307   3.805  -1.475  0.00  0.00    -0.018 A 
ATOM     29  C   UNL     1      13.444   4.478  -1.919  0.00  0.00    +0.008 A 
ATOM     30  C   UNL     1      11.599   2.979  -2.349  0.00  0.00    +0.008 A 
ATOM     31  C   UNL     1      13.874   4.328  -3.238  0.00  0.00    +0.001 A 
ATOM     32  C   UNL     1      12.030   2.829  -3.668  0.00  0.00    +0.001 A 
ATOM     33  C   UNL     1      13.167   3.503  -4.112  0.00  0.00    +0.000 A 
ENDBRANCH  24  27
ENDBRANCH  15  17
ENDBRANCH   5  15
ENDBRANCH   8   5
TORSDOF 9
ENDMDL
MODEL 10
REMARK VINA RESULT:      -6.8     27.307     29.826
REMARK  Name = 28960610
REMARK  10 active torsions:
REMARK  status: ('A' for Active; 'I' for Inactive)
REMARK    1  A    between atoms: O_3  and  C_9
REMARK    2  A    between atoms: N_4  and  C_7
REMARK    3  A    between atoms: N_4  and  C_13
REMARK    4  A    between atoms: N_4  and  C_14
REMARK    5  A    between atoms: N_5  and  C_8
REMARK    6  A    between atoms: N_5  and  C_15
REMARK    7  A    between atoms: C_13  and  C_16
REMARK    8  A    between atoms: C_15  and  C_17
REMARK    9  A    between atoms: C_16  and  C_18
REMARK   10  A    between atoms: C_24  and  C_27
REMARK                            x       y       z     vdW  Elec       q    Type
REMARK                         _______ _______ _______ _____ _____    ______ ____
ROOT
ATOM      1  O   UNL     1      -5.325 -12.834  17.532  0.00  0.00    -0.343 OA
ATOM      2  O   UNL     1      -6.201 -10.880  18.423  0.00  0.00    -0.347 OA
ATOM      7  C   UNL     1      -6.384 -11.257  16.042  0.00  0.00    +0.143 C 
ATOM      8  C   UNL     1      -3.827 -11.254  16.482  0.00  0.00    +0.116 C 
ATOM      9  C   UNL     1      -5.030 -10.550  15.804  0.00  0.00    +0.156 C 
ATOM     10  C   UNL     1      -4.220 -11.964  17.797  0.00  0.00    +0.166 C 
ATOM     11  C   UNL     1      -6.414 -11.905  17.439  0.00  0.00    +0.270 C 
ATOM     12  C   UNL     1      -4.837 -11.045  18.839  0.00  0.00    +0.196 C 
ENDROOT
BRANCH   9   3
ATOM      3  O   UNL     1      -5.136  -9.220  16.334  0.00  0.00    -0.388 OA
ATOM     35  H   UNL     1      -4.685  -8.622  15.715  0.00  0.00    +0.210 HD
ENDBRANCH   9   3
BRANCH   7   4
ATOM      4  N   UNL     1      -6.626 -12.271  15.015  0.00  0.00    -0.295 NA
ATOM     14  C   UNL     1      -7.969 -12.831  15.156  0.00  0.00    +0.105 C 
BRANCH   4  13
ATOM     13  C   UNL     1      -6.447 -11.700  13.681  0.00  0.00    +0.091 C 
BRANCH  13  16
ATOM     16  C   UNL     1      -6.703 -12.748  12.597  0.00  0.00    +0.071 C 
BRANCH  16  18
ATOM      6  N   UNL     1      -7.519 -10.796  11.391  0.00  0.00    -0.260 NA
ATOM     18  C   UNL     1      -7.259 -12.122  11.343  0.00  0.00    +0.042 A 
ATOM     21  C   UNL     1      -7.474 -12.914  10.228  0.00  0.00    +0.023 A 
ATOM     25  C   UNL     1      -7.987 -12.307   9.087  0.00  0.00    +0.003 A 
ATOM     26  C   UNL     1      -8.017 -10.241  10.264  0.00  0.00    +0.111 A 
ATOM     28  C   UNL     1      -8.266 -10.945   9.097  0.00  0.00    +0.020 A 
ENDBRANCH  16  18
ENDBRANCH  13  16
ENDBRANCH   4  13
ENDBRANCH   7   4
BRANCH   8   5
ATOM      5  N   UNL     1      -3.243 -12.253  15.581  0.00  0.00    -0.305 NA
ATOM     34  H   UNL     1      -3.981 -12.698  15.038  0.00  0.00    +0.123 HD
BRANCH   5  15
ATOM     15  C   UNL     1      -2.270 -11.635  14.696  0.00  0.00    +0.116 C 
BRANCH  15  17
ATOM     17  C   UNL     1      -2.784 -11.531  13.284  0.00  0.00    -0.034 A 
ATOM     19  C   UNL     1      -3.185 -10.294  12.778  0.00  0.00    +0.005 A 
ATOM     20  C   UNL     1      -2.859 -12.670  12.484  0.00  0.00    +0.005 A 
ATOM     22  C   UNL     1      -3.660 -10.198  11.470  0.00  0.00    +0.009 A 
ATOM     23  C   UNL     1      -3.335 -12.574  11.176  0.00  0.00    +0.009 A 
ATOM     24  C   UNL     1      -3.735 -11.338  10.669  0.00  0.00    -0.018 A 
BRANCH  24  27
ATOM     27  C   UNL     1      -4.229 -11.238   9.313  0.00  0.00    -0.018 A 
ATOM     29  C   UNL     1      -4.238 -12.363   8.490  0.00  0.00    +0.008 A 
ATOM     30  C   UNL     1      -4.698 -10.016   8.830  0.00  0.00    +0.008 A 
ATOM     31  C   UNL     1      -4.715 -12.268   7.181  0.00  0.00    +0.001 A 
ATOM     32  C   UNL     1      -5.175  -9.921   7.522  0.00  0.00    +0.001 A 
ATOM     33  C   UNL     1      -5.183 -11.046   6.698  0.00  0.00    +0.000 A 
ENDBRANCH  24  27
ENDBRANCH  15  17
ENDBRANCH   5  15
ENDBRANCH   8   5
TORSDOF 9
ENDMDL
