REMARK  Name = 26742907
REMARK  5 active torsions:
REMARK  status: ('A' for Active; 'I' for Inactive)
REMARK    1  A    between atoms: C_9  and  C_15
REMARK    2  A    between atoms: C_10  and  C_14
REMARK    3  A    between atoms: C_14  and  C_16
REMARK    4  A    between atoms: C_15  and  C_17
REMARK    5  A    between atoms: C_19  and  C_20
REMARK                            x       y       z     vdW  Elec       q    Type
REMARK                         _______ _______ _______ _____ _____    ______ ____
ROOT
ATOM      5  N   UNL     1       0.455   3.300   0.827  0.00  0.00    -0.316 NA
ATOM      9  C   UNL     1       1.955   1.246  -0.670  0.00  0.00    +0.004 C 
ATOM     10  C   UNL     1       0.442   1.123  -0.367  0.00  0.00    +0.012 C 
ATOM     11  C   UNL     1       2.350   2.732  -0.652  0.00  0.00    +0.019 C 
ATOM     12  C   UNL     1       0.053   1.895   0.905  0.00  0.00    +0.085 C 
ATOM     13  C   UNL     1       1.895   3.442   0.622  0.00  0.00    +0.081 C 
ATOM     29  H   UNL     1       0.188   3.775   1.689  0.00  0.00    +0.122 HD
ENDROOT
BRANCH  10  14
ATOM     14  C   UNL     1      -0.035  -0.328  -0.282  0.00  0.00    +0.064 C 
BRANCH  14  16
ATOM      3  O   UNL     1      -3.358  -0.662  -1.628  0.00  0.00    -0.354 OA
ATOM      6  N   UNL     1      -1.976  -0.609  -1.764  0.00  0.00    -0.083 NA
ATOM     16  C   UNL     1      -1.513  -0.432  -0.522  0.00  0.00    +0.085 A 
ATOM     18  C   UNL     1      -2.547  -0.367   0.428  0.00  0.00    +0.076 A 
ATOM     19  C   UNL     1      -3.686  -0.517  -0.319  0.00  0.00    +0.167 A 
BRANCH  19  20
ATOM      2  F   UNL     1      -9.127  -0.654   0.831  0.00  0.00    -0.205 F 
ATOM     20  C   UNL     1      -5.088  -0.551  -0.023  0.00  0.00    +0.020 A 
ATOM     22  C   UNL     1      -5.527  -0.411   1.294  0.00  0.00    +0.014 A 
ATOM     23  C   UNL     1      -6.014  -0.726  -1.051  0.00  0.00    +0.014 A 
ATOM     24  C   UNL     1      -6.891  -0.446   1.582  0.00  0.00    +0.039 A 
ATOM     25  C   UNL     1      -7.378  -0.760  -0.763  0.00  0.00    +0.039 A 
ATOM     28  C   UNL     1      -7.817  -0.620   0.554  0.00  0.00    +0.123 A 
ENDBRANCH  19  20
ENDBRANCH  14  16
ENDBRANCH  10  14
BRANCH   9  15
ATOM     15  C   UNL     1       2.848   0.433   0.274  0.00  0.00    +0.100 C 
BRANCH  15  17
ATOM      1  S   UNL     1       7.003  -1.883   1.719  0.00  0.00    -0.061 S 
ATOM      4  O   UNL     1       4.537   0.544  -1.440  0.00  0.00    -0.275 OA
ATOM      7  N   UNL     1       4.996  -0.563   0.580  0.00  0.00    -0.265 N 
ATOM      8  N   UNL     1       7.101  -0.841  -0.645  0.00  0.00    -0.233 NA
ATOM     17  C   UNL     1       4.218   0.159  -0.320  0.00  0.00    +0.219 C 
ATOM     21  C   UNL     1       6.327  -1.012   0.404  0.00  0.00    +0.164 A 
ATOM     26  C   UNL     1       8.457  -2.054   0.826  0.00  0.00    +0.068 A 
ATOM     27  C   UNL     1       8.322  -1.439  -0.401  0.00  0.00    +0.120 A 
ATOM     30  H   UNL     1       4.594  -0.815   1.480  0.00  0.00    +0.157 HD
ENDBRANCH  15  17
ENDBRANCH   9  15
TORSDOF 5
