MODEL 1
REMARK VINA RESULT:      -7.0      0.000      0.000
REMARK  Name = 11912605
REMARK  11 active torsions:
REMARK  status: ('A' for Active; 'I' for Inactive)
REMARK    1  A    between atoms: O_4  and  C_31
REMARK    2  A    between atoms: O_4  and  C_33
REMARK    3  A    between atoms: N_7  and  C_19
REMARK    4  A    between atoms: N_8  and  C_20
REMARK    5  A    between atoms: C_9  and  C_15
REMARK    6  A    between atoms: C_10  and  C_14
REMARK    7  A    between atoms: C_14  and  C_16
REMARK    8  A    between atoms: C_15  and  C_18
REMARK    9  A    between atoms: C_19  and  C_21
REMARK   10  A    between atoms: C_24  and  C_31
REMARK   11  A    between atoms: C_33  and  C_34
REMARK                            x       y       z     vdW  Elec       q    Type
REMARK                         _______ _______ _______ _____ _____    ______ ____
ROOT
ATOM      2  O   UNL     1      -2.001 -11.261  15.423  0.00  0.00    -0.252 OA
ATOM      6  N   UNL     1      -4.117 -11.865  16.128  0.00  0.00    -0.285 N 
ATOM      8  N   UNL     1      -3.662 -11.567  13.833  0.00  0.00    -0.269 N 
ATOM      9  C   UNL     1      -6.106 -11.200  18.123  0.00  0.00    +0.004 C 
ATOM     10  C   UNL     1      -6.475 -11.279  16.618  0.00  0.00    +0.010 C 
ATOM     11  C   UNL     1      -4.613 -10.889  18.329  0.00  0.00    +0.023 C 
ATOM     12  C   UNL     1      -5.519 -12.248  15.903  0.00  0.00    +0.113 C 
ATOM     13  C   UNL     1      -3.726 -11.850  17.538  0.00  0.00    +0.109 C 
ATOM     17  C   UNL     1      -3.165 -11.550  15.135  0.00  0.00    +0.306 C 
ATOM     36  H   UNL     1      -4.433 -12.189  13.618  0.00  0.00    +0.156 HD
ENDROOT
BRANCH   8  20
ATOM     20  C   UNL     1      -3.220 -10.788  12.734  0.00  0.00    +0.036 A 
ATOM     22  C   UNL     1      -4.140 -10.319  11.797  0.00  0.00    +0.038 A 
ATOM     23  C   UNL     1      -1.866 -10.490  12.592  0.00  0.00    +0.023 A 
ATOM     24  C   UNL     1      -3.706  -9.552  10.716  0.00  0.00    +0.061 A 
ATOM     27  C   UNL     1      -1.430  -9.723  11.510  0.00  0.00    +0.003 A 
ATOM     28  C   UNL     1      -2.350  -9.255  10.573  0.00  0.00    +0.015 A 
BRANCH  24  31
ATOM      5  O   UNL     1      -4.557  -9.215   8.514  0.00  0.00    -0.245 OA
ATOM     31  C   UNL     1      -4.664  -9.062   9.738  0.00  0.00    +0.339 C 
BRANCH  31   4
ATOM      4  O   UNL     1      -5.705  -8.409  10.339  0.00  0.00    -0.461 OA
BRANCH   4  33
ATOM     33  C   UNL     1      -7.019  -8.702   9.853  0.00  0.00    +0.229 C 
ATOM     34  C   UNL     1      -7.807  -9.389  10.947  0.00  0.00    +0.048 C 
ENDBRANCH   4  33
ENDBRANCH  31   4
ENDBRANCH  24  31
ENDBRANCH   8  20
BRANCH  10  14
ATOM     14  C   UNL     1      -6.492  -9.920  15.907  0.00  0.00    +0.002 C 
ATOM     16  C   UNL     1      -6.935 -10.062  14.466  0.00  0.00    +0.004 C 
ENDBRANCH  10  14
BRANCH   9  15
ATOM     15  C   UNL     1      -6.974 -10.214  18.904  0.00  0.00    +0.099 C 
BRANCH  15  18
ATOM      3  O   UNL     1      -8.851 -11.649  19.428  0.00  0.00    -0.276 OA
ATOM      7  N   UNL     1      -9.216  -9.674  18.260  0.00  0.00    -0.311 N 
ATOM     18  C   UNL     1      -8.434 -10.617  18.910  0.00  0.00    +0.214 C 
ATOM     35  H   UNL     1      -8.777  -8.853  17.853  0.00  0.00    +0.149 HD
BRANCH   7  19
ATOM     19  C   UNL     1     -10.648  -9.803  18.112  0.00  0.00    +0.139 C 
BRANCH  19  21
ATOM      1  F   UNL     1     -12.850  -5.534  15.174  0.00  0.00    -0.205 F 
ATOM     21  C   UNL     1     -11.236  -8.665  17.327  0.00  0.00    -0.030 A 
ATOM     25  C   UNL     1     -10.452  -7.553  17.019  0.00  0.00    +0.008 A 
ATOM     26  C   UNL     1     -12.565  -8.719  16.909  0.00  0.00    +0.008 A 
ATOM     29  C   UNL     1     -10.998  -6.496  16.291  0.00  0.00    +0.038 A 
ATOM     30  C   UNL     1     -13.111  -7.661  16.182  0.00  0.00    +0.038 A 
ATOM     32  C   UNL     1     -12.326  -6.550  15.872  0.00  0.00    +0.123 A 
ENDBRANCH  19  21
ENDBRANCH   7  19
ENDBRANCH  15  18
ENDBRANCH   9  15
TORSDOF 9
ENDMDL
MODEL 2
REMARK VINA RESULT:      -6.8     18.752     21.692
REMARK  Name = 11912605
REMARK  11 active torsions:
REMARK  status: ('A' for Active; 'I' for Inactive)
REMARK    1  A    between atoms: O_4  and  C_31
REMARK    2  A    between atoms: O_4  and  C_33
REMARK    3  A    between atoms: N_7  and  C_19
REMARK    4  A    between atoms: N_8  and  C_20
REMARK    5  A    between atoms: C_9  and  C_15
REMARK    6  A    between atoms: C_10  and  C_14
REMARK    7  A    between atoms: C_14  and  C_16
REMARK    8  A    between atoms: C_15  and  C_18
REMARK    9  A    between atoms: C_19  and  C_21
REMARK   10  A    between atoms: C_24  and  C_31
REMARK   11  A    between atoms: C_33  and  C_34
REMARK                            x       y       z     vdW  Elec       q    Type
REMARK                         _______ _______ _______ _____ _____    ______ ____
ROOT
ATOM      2  O   UNL     1     -17.303   1.641  27.226  0.00  0.00    -0.252 OA
ATOM      6  N   UNL     1     -16.485   2.537  25.259  0.00  0.00    -0.285 N 
ATOM      8  N   UNL     1     -15.612   3.226  27.340  0.00  0.00    -0.269 N 
ATOM      9  C   UNL     1     -17.380   3.628  22.732  0.00  0.00    +0.004 C 
ATOM     10  C   UNL     1     -16.364   4.394  23.621  0.00  0.00    +0.010 C 
ATOM     11  C   UNL     1     -18.257   2.672  23.561  0.00  0.00    +0.023 C 
ATOM     12  C   UNL     1     -15.576   3.392  24.481  0.00  0.00    +0.113 C 
ATOM     13  C   UNL     1     -17.409   1.752  24.438  0.00  0.00    +0.109 C 
ATOM     17  C   UNL     1     -16.515   2.406  26.664  0.00  0.00    +0.306 C 
ATOM     36  H   UNL     1     -14.751   3.483  26.872  0.00  0.00    +0.156 HD
ENDROOT
BRANCH   8  20
ATOM     20  C   UNL     1     -15.756   3.775  28.638  0.00  0.00    +0.036 A 
ATOM     22  C   UNL     1     -14.938   3.332  29.677  0.00  0.00    +0.038 A 
ATOM     23  C   UNL     1     -16.714   4.759  28.876  0.00  0.00    +0.023 A 
ATOM     24  C   UNL     1     -15.079   3.872  30.955  0.00  0.00    +0.061 A 
ATOM     27  C   UNL     1     -16.856   5.300  30.155  0.00  0.00    +0.003 A 
ATOM     28  C   UNL     1     -16.039   4.857  31.193  0.00  0.00    +0.015 A 
BRANCH  24  31
ATOM      5  O   UNL     1     -13.861   4.115  32.991  0.00  0.00    -0.245 OA
ATOM     31  C   UNL     1     -14.227   3.411  32.039  0.00  0.00    +0.339 C 
BRANCH  31   4
ATOM      4  O   UNL     1     -13.877   2.098  31.881  0.00  0.00    -0.461 OA
BRANCH   4  33
ATOM     33  C   UNL     1     -14.778   1.121  32.412  0.00  0.00    +0.229 C 
ATOM     34  C   UNL     1     -14.948   0.007  31.402  0.00  0.00    +0.048 C 
ENDBRANCH   4  33
ENDBRANCH  31   4
ENDBRANCH  24  31
ENDBRANCH   8  20
BRANCH  10  14
ATOM     14  C   UNL     1     -16.998   5.476  24.504  0.00  0.00    +0.002 C 
ATOM     16  C   UNL     1     -16.591   6.862  24.047  0.00  0.00    +0.004 C 
ENDBRANCH  10  14
BRANCH   9  15
ATOM     15  C   UNL     1     -18.249   4.554  21.880  0.00  0.00    +0.099 C 
BRANCH  15  18
ATOM      3  O   UNL     1     -17.305   4.279  19.670  0.00  0.00    -0.276 OA
ATOM      7  N   UNL     1     -17.190   6.353  20.710  0.00  0.00    -0.311 N 
ATOM     18  C   UNL     1     -17.537   5.013  20.626  0.00  0.00    +0.214 C 
ATOM     35  H   UNL     1     -17.417   6.878  21.550  0.00  0.00    +0.149 HD
BRANCH   7  19
ATOM     19  C   UNL     1     -16.496   7.057  19.655  0.00  0.00    +0.139 C 
BRANCH  19  21
ATOM      1  F   UNL     1     -10.958   7.377  20.622  0.00  0.00    -0.205 F 
ATOM     21  C   UNL     1     -15.019   7.143  19.914  0.00  0.00    -0.030 A 
ATOM     25  C   UNL     1     -14.188   7.793  19.001  0.00  0.00    +0.008 A 
ATOM     26  C   UNL     1     -14.479   6.572  21.066  0.00  0.00    +0.008 A 
ATOM     29  C   UNL     1     -12.817   7.872  19.242  0.00  0.00    +0.038 A 
ATOM     30  C   UNL     1     -13.107   6.650  21.305  0.00  0.00    +0.038 A 
ATOM     32  C   UNL     1     -12.276   7.301  20.393  0.00  0.00    +0.123 A 
ENDBRANCH  19  21
ENDBRANCH   7  19
ENDBRANCH  15  18
ENDBRANCH   9  15
TORSDOF 9
ENDMDL
MODEL 3
REMARK VINA RESULT:      -6.7      3.661      7.660
REMARK  Name = 11912605
REMARK  11 active torsions:
REMARK  status: ('A' for Active; 'I' for Inactive)
REMARK    1  A    between atoms: O_4  and  C_31
REMARK    2  A    between atoms: O_4  and  C_33
REMARK    3  A    between atoms: N_7  and  C_19
REMARK    4  A    between atoms: N_8  and  C_20
REMARK    5  A    between atoms: C_9  and  C_15
REMARK    6  A    between atoms: C_10  and  C_14
REMARK    7  A    between atoms: C_14  and  C_16
REMARK    8  A    between atoms: C_15  and  C_18
REMARK    9  A    between atoms: C_19  and  C_21
REMARK   10  A    between atoms: C_24  and  C_31
REMARK   11  A    between atoms: C_33  and  C_34
REMARK                            x       y       z     vdW  Elec       q    Type
REMARK                         _______ _______ _______ _____ _____    ______ ____
ROOT
ATOM      2  O   UNL     1      -3.182 -12.526  11.157  0.00  0.00    -0.252 OA
ATOM      6  N   UNL     1      -3.865 -10.792   9.790  0.00  0.00    -0.285 N 
ATOM      8  N   UNL     1      -3.031 -10.352  11.952  0.00  0.00    -0.269 N 
ATOM      9  C   UNL     1      -6.026 -10.028   8.023  0.00  0.00    +0.004 C 
ATOM     10  C   UNL     1      -5.541  -9.080   9.152  0.00  0.00    +0.010 C 
ATOM     11  C   UNL     1      -5.721 -11.502   8.344  0.00  0.00    +0.023 C 
ATOM     12  C   UNL     1      -4.064  -9.371   9.468  0.00  0.00    +0.113 C 
ATOM     13  C   UNL     1      -4.252 -11.704   8.712  0.00  0.00    +0.109 C 
ATOM     17  C   UNL     1      -3.333 -11.313  10.988  0.00  0.00    +0.306 C 
ATOM     36  H   UNL     1      -2.769  -9.423  11.642  0.00  0.00    +0.156 HD
ENDROOT
BRANCH   8  20
ATOM     20  C   UNL     1      -3.056 -10.509  13.360  0.00  0.00    +0.036 A 
ATOM     22  C   UNL     1      -4.269 -10.721  14.016  0.00  0.00    +0.038 A 
ATOM     23  C   UNL     1      -1.869 -10.453  14.089  0.00  0.00    +0.023 A 
ATOM     24  C   UNL     1      -4.294 -10.875  15.402  0.00  0.00    +0.061 A 
ATOM     27  C   UNL     1      -1.894 -10.607  15.476  0.00  0.00    +0.003 A 
ATOM     28  C   UNL     1      -3.106 -10.818  16.132  0.00  0.00    +0.015 A 
BRANCH  24  31
ATOM      5  O   UNL     1      -6.274 -12.094  15.932  0.00  0.00    -0.245 OA
ATOM     31  C   UNL     1      -5.557 -11.096  16.088  0.00  0.00    +0.339 C 
BRANCH  31   4
ATOM      4  O   UNL     1      -5.859 -10.063  16.932  0.00  0.00    -0.461 OA
BRANCH   4  33
ATOM     33  C   UNL     1      -6.737 -10.355  18.025  0.00  0.00    +0.229 C 
ATOM     34  C   UNL     1      -5.912 -10.576  19.274  0.00  0.00    +0.048 C 
ENDBRANCH   4  33
ENDBRANCH  31   4
ENDBRANCH  24  31
ENDBRANCH   8  20
BRANCH  10  14
ATOM     14  C   UNL     1      -6.386  -9.147  10.430  0.00  0.00    +0.002 C 
ATOM     16  C   UNL     1      -5.758  -8.337  11.545  0.00  0.00    +0.004 C 
ENDBRANCH  10  14
BRANCH   9  15
ATOM     15  C   UNL     1      -7.505  -9.846   7.681  0.00  0.00    +0.099 C 
BRANCH  15  18
ATOM      3  O   UNL     1      -7.480  -8.213   5.895  0.00  0.00    -0.276 OA
ATOM      7  N   UNL     1      -8.418  -7.648   7.944  0.00  0.00    -0.311 N 
ATOM     18  C   UNL     1      -7.785  -8.498   7.050  0.00  0.00    +0.214 C 
ATOM     35  H   UNL     1      -8.621  -7.973   8.886  0.00  0.00    +0.149 HD
BRANCH   7  19
ATOM     19  C   UNL     1      -8.802  -6.295   7.612  0.00  0.00    +0.139 C 
BRANCH  19  21
ATOM      1  F   UNL     1     -12.787  -4.328  11.070  0.00  0.00    -0.205 F 
ATOM     21  C   UNL     1      -9.866  -5.771   8.534  0.00  0.00    -0.030 A 
ATOM     25  C   UNL     1      -9.989  -4.397   8.746  0.00  0.00    +0.008 A 
ATOM     26  C   UNL     1     -10.729  -6.656   9.178  0.00  0.00    +0.008 A 
ATOM     29  C   UNL     1     -10.976  -3.911   9.602  0.00  0.00    +0.038 A 
ATOM     30  C   UNL     1     -11.716  -6.170  10.036  0.00  0.00    +0.038 A 
ATOM     32  C   UNL     1     -11.839  -4.796  10.247  0.00  0.00    +0.123 A 
ENDBRANCH  19  21
ENDBRANCH   7  19
ENDBRANCH  15  18
ENDBRANCH   9  15
TORSDOF 9
ENDMDL
MODEL 4
REMARK VINA RESULT:      -6.7      3.307      8.907
REMARK  Name = 11912605
REMARK  11 active torsions:
REMARK  status: ('A' for Active; 'I' for Inactive)
REMARK    1  A    between atoms: O_4  and  C_31
REMARK    2  A    between atoms: O_4  and  C_33
REMARK    3  A    between atoms: N_7  and  C_19
REMARK    4  A    between atoms: N_8  and  C_20
REMARK    5  A    between atoms: C_9  and  C_15
REMARK    6  A    between atoms: C_10  and  C_14
REMARK    7  A    between atoms: C_14  and  C_16
REMARK    8  A    between atoms: C_15  and  C_18
REMARK    9  A    between atoms: C_19  and  C_21
REMARK   10  A    between atoms: C_24  and  C_31
REMARK   11  A    between atoms: C_33  and  C_34
REMARK                            x       y       z     vdW  Elec       q    Type
REMARK                         _______ _______ _______ _____ _____    ______ ____
ROOT
ATOM      2  O   UNL     1      -8.168 -14.040  16.804  0.00  0.00    -0.252 OA
ATOM      6  N   UNL     1      -6.055 -13.381  17.470  0.00  0.00    -0.285 N 
ATOM      8  N   UNL     1      -7.846 -13.375  19.004  0.00  0.00    -0.269 N 
ATOM      9  C   UNL     1      -3.829 -11.739  16.616  0.00  0.00    +0.004 C 
ATOM     10  C   UNL     1      -4.432 -11.596  18.039  0.00  0.00    +0.010 C 
ATOM     11  C   UNL     1      -4.856 -12.302  15.615  0.00  0.00    +0.023 C 
ATOM     12  C   UNL     1      -5.070 -12.929  18.464  0.00  0.00    +0.113 C 
ATOM     13  C   UNL     1      -5.495 -13.589  16.133  0.00  0.00    +0.109 C 
ATOM     17  C   UNL     1      -7.422 -13.639  17.702  0.00  0.00    +0.306 C 
ATOM     36  H   UNL     1      -7.176 -13.469  19.758  0.00  0.00    +0.156 HD
ENDROOT
BRANCH   8  20
ATOM     20  C   UNL     1      -9.137 -12.964  19.420  0.00  0.00    +0.036 A 
ATOM     22  C   UNL     1      -9.809 -11.961  18.722  0.00  0.00    +0.038 A 
ATOM     23  C   UNL     1      -9.735 -13.562  20.528  0.00  0.00    +0.023 A 
ATOM     24  C   UNL     1     -11.079 -11.556  19.132  0.00  0.00    +0.061 A 
ATOM     27  C   UNL     1     -11.006 -13.157  20.939  0.00  0.00    +0.003 A 
ATOM     28  C   UNL     1     -11.677 -12.155  20.241  0.00  0.00    +0.015 A 
BRANCH  24  31
ATOM      5  O   UNL     1     -12.962 -10.583  18.040  0.00  0.00    -0.245 OA
ATOM     31  C   UNL     1     -11.781 -10.511  18.404  0.00  0.00    +0.339 C 
BRANCH  31   4
ATOM      4  O   UNL     1     -10.974  -9.431  18.171  0.00  0.00    -0.461 OA
BRANCH   4  33
ATOM     33  C   UNL     1     -11.483  -8.420  17.295  0.00  0.00    +0.229 C 
ATOM     34  C   UNL     1     -10.401  -7.391  17.048  0.00  0.00    +0.048 C 
ENDBRANCH   4  33
ENDBRANCH  31   4
ENDBRANCH  24  31
ENDBRANCH   8  20
BRANCH  10  14
ATOM     14  C   UNL     1      -5.441 -10.450  18.178  0.00  0.00    +0.002 C 
ATOM     16  C   UNL     1      -6.071 -10.440  19.555  0.00  0.00    +0.004 C 
ENDBRANCH  10  14
BRANCH   9  15
ATOM     15  C   UNL     1      -3.219 -10.441  16.088  0.00  0.00    +0.099 C 
BRANCH  15  18
ATOM      3  O   UNL     1      -1.078 -11.182  15.240  0.00  0.00    -0.276 OA
ATOM      7  N   UNL     1      -2.641 -10.291  13.770  0.00  0.00    -0.311 N 
ATOM     18  C   UNL     1      -2.180 -10.690  15.016  0.00  0.00    +0.214 C 
ATOM     35  H   UNL     1      -3.569  -9.884  13.686  0.00  0.00    +0.149 HD
BRANCH   7  19
ATOM     19  C   UNL     1      -1.856 -10.409  12.562  0.00  0.00    +0.139 C 
BRANCH  19  21
ATOM      1  F   UNL     1      -5.087 -10.451   7.951  0.00  0.00    -0.205 F 
ATOM     21  C   UNL     1      -2.717 -10.421  11.332  0.00  0.00    -0.030 A 
ATOM     25  C   UNL     1      -2.941  -9.238  10.626  0.00  0.00    +0.008 A 
ATOM     26  C   UNL     1      -3.294 -11.613  10.896  0.00  0.00    +0.008 A 
ATOM     29  C   UNL     1      -3.741  -9.250   9.484  0.00  0.00    +0.038 A 
ATOM     30  C   UNL     1      -4.096 -11.624   9.754  0.00  0.00    +0.038 A 
ATOM     32  C   UNL     1      -4.318 -10.442   9.048  0.00  0.00    +0.123 A 
ENDBRANCH  19  21
ENDBRANCH   7  19
ENDBRANCH  15  18
ENDBRANCH   9  15
TORSDOF 9
ENDMDL
MODEL 5
REMARK VINA RESULT:      -6.6     24.677     28.396
REMARK  Name = 11912605
REMARK  11 active torsions:
REMARK  status: ('A' for Active; 'I' for Inactive)
REMARK    1  A    between atoms: O_4  and  C_31
REMARK    2  A    between atoms: O_4  and  C_33
REMARK    3  A    between atoms: N_7  and  C_19
REMARK    4  A    between atoms: N_8  and  C_20
REMARK    5  A    between atoms: C_9  and  C_15
REMARK    6  A    between atoms: C_10  and  C_14
REMARK    7  A    between atoms: C_14  and  C_16
REMARK    8  A    between atoms: C_15  and  C_18
REMARK    9  A    between atoms: C_19  and  C_21
REMARK   10  A    between atoms: C_24  and  C_31
REMARK   11  A    between atoms: C_33  and  C_34
REMARK                            x       y       z     vdW  Elec       q    Type
REMARK                         _______ _______ _______ _____ _____    ______ ____
ROOT
ATOM      2  O   UNL     1       8.423   7.525   8.173  0.00  0.00    -0.252 OA
ATOM      6  N   UNL     1      10.240   6.754   6.970  0.00  0.00    -0.285 N 
ATOM      8  N   UNL     1      10.278   8.899   7.950  0.00  0.00    -0.269 N 
ATOM      9  C   UNL     1      10.901   5.409   4.493  0.00  0.00    +0.004 C 
ATOM     10  C   UNL     1      11.603   6.732   4.900  0.00  0.00    +0.010 C 
ATOM     11  C   UNL     1       9.513   5.276   5.145  0.00  0.00    +0.023 C 
ATOM     12  C   UNL     1      11.604   6.865   6.431  0.00  0.00    +0.113 C 
ATOM     13  C   UNL     1       9.581   5.485   6.657  0.00  0.00    +0.109 C 
ATOM     17  C   UNL     1       9.564   7.720   7.745  0.00  0.00    +0.306 C 
ATOM     36  H   UNL     1      11.291   8.853   7.966  0.00  0.00    +0.156 HD
ENDROOT
BRANCH   8  20
ATOM     20  C   UNL     1       9.752  10.202   8.133  0.00  0.00    +0.036 A 
ATOM     22  C   UNL     1       9.431  10.651   9.413  0.00  0.00    +0.038 A 
ATOM     23  C   UNL     1       9.557  11.035   7.032  0.00  0.00    +0.023 A 
ATOM     24  C   UNL     1       8.913  11.934   9.594  0.00  0.00    +0.061 A 
ATOM     27  C   UNL     1       9.038  12.319   7.212  0.00  0.00    +0.003 A 
ATOM     28  C   UNL     1       8.717  12.767   8.492  0.00  0.00    +0.015 A 
BRANCH  24  31
ATOM      5  O   UNL     1       7.570  13.066  11.205  0.00  0.00    -0.245 OA
ATOM     31  C   UNL     1       8.579  12.404  10.928  0.00  0.00    +0.339 C 
BRANCH  31   4
ATOM      4  O   UNL     1       9.517  12.021  11.847  0.00  0.00    -0.461 OA
BRANCH   4  33
ATOM     33  C   UNL     1      10.578  12.945  12.112  0.00  0.00    +0.229 C 
ATOM     34  C   UNL     1      11.775  12.183  12.638  0.00  0.00    +0.048 C 
ENDBRANCH   4  33
ENDBRANCH  31   4
ENDBRANCH  24  31
ENDBRANCH   8  20
BRANCH  10  14
ATOM     14  C   UNL     1      10.998   7.984   4.253  0.00  0.00    +0.002 C 
ATOM     16  C   UNL     1      11.786   9.225   4.620  0.00  0.00    +0.004 C 
ENDBRANCH  10  14
BRANCH   9  15
ATOM     15  C   UNL     1      10.805   5.220   2.980  0.00  0.00    +0.099 C 
BRANCH  15  18
ATOM      3  O   UNL     1      12.868   6.056   2.030  0.00  0.00    -0.276 OA
ATOM      7  N   UNL     1      12.504   3.764   2.128  0.00  0.00    -0.311 N 
ATOM     18  C   UNL     1      12.168   5.094   2.332  0.00  0.00    +0.214 C 
ATOM     35  H   UNL     1      11.852   3.034   2.403  0.00  0.00    +0.149 HD
BRANCH   7  19
ATOM     19  C   UNL     1      13.749   3.347   1.522  0.00  0.00    +0.139 C 
BRANCH  19  21
ATOM      1  F   UNL     1      13.773   4.200  -4.043  0.00  0.00    -0.205 F 
ATOM     21  C   UNL     1      13.755   3.576   0.038  0.00  0.00    -0.030 A 
ATOM     25  C   UNL     1      12.730   3.054  -0.752  0.00  0.00    +0.008 A 
ATOM     26  C   UNL     1      14.785   4.308  -0.550  0.00  0.00    +0.008 A 
ATOM     29  C   UNL     1      12.737   3.266  -2.130  0.00  0.00    +0.038 A 
ATOM     30  C   UNL     1      14.793   4.519  -1.929  0.00  0.00    +0.038 A 
ATOM     32  C   UNL     1      13.767   3.998  -2.719  0.00  0.00    +0.123 A 
ENDBRANCH  19  21
ENDBRANCH   7  19
ENDBRANCH  15  18
ENDBRANCH   9  15
TORSDOF 9
ENDMDL
MODEL 6
REMARK VINA RESULT:      -6.6     25.495     29.445
REMARK  Name = 11912605
REMARK  11 active torsions:
REMARK  status: ('A' for Active; 'I' for Inactive)
REMARK    1  A    between atoms: O_4  and  C_31
REMARK    2  A    between atoms: O_4  and  C_33
REMARK    3  A    between atoms: N_7  and  C_19
REMARK    4  A    between atoms: N_8  and  C_20
REMARK    5  A    between atoms: C_9  and  C_15
REMARK    6  A    between atoms: C_10  and  C_14
REMARK    7  A    between atoms: C_14  and  C_16
REMARK    8  A    between atoms: C_15  and  C_18
REMARK    9  A    between atoms: C_19  and  C_21
REMARK   10  A    between atoms: C_24  and  C_31
REMARK   11  A    between atoms: C_33  and  C_34
REMARK                            x       y       z     vdW  Elec       q    Type
REMARK                         _______ _______ _______ _____ _____    ______ ____
ROOT
ATOM      2  O   UNL     1      21.315  -8.723  -0.985  0.00  0.00    -0.252 OA
ATOM      6  N   UNL     1      19.402 -10.005  -0.785  0.00  0.00    -0.285 N 
ATOM      8  N   UNL     1      19.863  -8.294   0.772  0.00  0.00    -0.269 N 
ATOM      9  C   UNL     1      18.508 -12.756  -0.894  0.00  0.00    +0.004 C 
ATOM     10  C   UNL     1      18.140 -11.839   0.304  0.00  0.00    +0.010 C 
ATOM     11  C   UNL     1      19.800 -12.293  -1.591  0.00  0.00    +0.023 C 
ATOM     12  C   UNL     1      18.125 -10.372  -0.156  0.00  0.00    +0.113 C 
ATOM     13  C   UNL     1      19.739 -10.811  -1.959  0.00  0.00    +0.109 C 
ATOM     17  C   UNL     1      20.272  -8.971  -0.376  0.00  0.00    +0.306 C 
ATOM     36  H   UNL     1      18.870  -8.231   0.967  0.00  0.00    +0.156 HD
ENDROOT
BRANCH   8  20
ATOM     20  C   UNL     1      20.687  -7.673   1.743  0.00  0.00    +0.036 A 
ATOM     22  C   UNL     1      20.993  -8.340   2.929  0.00  0.00    +0.038 A 
ATOM     23  C   UNL     1      21.192  -6.394   1.512  0.00  0.00    +0.023 A 
ATOM     24  C   UNL     1      21.804  -7.729   3.884  0.00  0.00    +0.061 A 
ATOM     27  C   UNL     1      22.004  -5.782   2.468  0.00  0.00    +0.003 A 
ATOM     28  C   UNL     1      22.309  -6.449   3.654  0.00  0.00    +0.015 A 
BRANCH  24  31
ATOM      5  O   UNL     1      21.841  -8.007   6.252  0.00  0.00    -0.245 OA
ATOM     31  C   UNL     1      22.124  -8.424   5.121  0.00  0.00    +0.339 C 
BRANCH  31   4
ATOM      4  O   UNL     1      22.777  -9.602   4.881  0.00  0.00    -0.461 OA
BRANCH   4  33
ATOM     33  C   UNL     1      22.421 -10.718   5.705  0.00  0.00    +0.229 C 
ATOM     34  C   UNL     1      21.554 -11.665   4.904  0.00  0.00    +0.048 C 
ENDBRANCH   4  33
ENDBRANCH  31   4
ENDBRANCH  24  31
ENDBRANCH   8  20
BRANCH  10  14
ATOM     14  C   UNL     1      19.053 -12.010   1.524  0.00  0.00    +0.002 C 
ATOM     16  C   UNL     1      18.500 -11.276   2.728  0.00  0.00    +0.004 C 
ENDBRANCH  10  14
BRANCH   9  15
ATOM     15  C   UNL     1      18.600 -14.233  -0.514  0.00  0.00    +0.099 C 
BRANCH  15  18
ATOM      3  O   UNL     1      16.254 -14.658  -0.100  0.00  0.00    -0.276 OA
ATOM      7  N   UNL     1      17.809 -15.133   1.560  0.00  0.00    -0.311 N 
ATOM     18  C   UNL     1      17.412 -14.688   0.308  0.00  0.00    +0.214 C 
ATOM     35  H   UNL     1      18.794 -15.110   1.810  0.00  0.00    +0.149 HD
BRANCH   7  19
ATOM     19  C   UNL     1      16.883 -15.623   2.555  0.00  0.00    +0.139 C 
BRANCH  19  21
ATOM      1  F   UNL     1      15.402 -11.609   6.215  0.00  0.00    -0.205 F 
ATOM     21  C   UNL     1      16.488 -14.552   3.530  0.00  0.00    -0.030 A 
ATOM     25  C   UNL     1      17.317 -14.254   4.612  0.00  0.00    +0.008 A 
ATOM     26  C   UNL     1      15.292 -13.856   3.356  0.00  0.00    +0.008 A 
ATOM     29  C   UNL     1      16.950 -13.259   5.518  0.00  0.00    +0.038 A 
ATOM     30  C   UNL     1      14.924 -12.862   4.263  0.00  0.00    +0.038 A 
ATOM     32  C   UNL     1      15.754 -12.563   5.344  0.00  0.00    +0.123 A 
ENDBRANCH  19  21
ENDBRANCH   7  19
ENDBRANCH  15  18
ENDBRANCH   9  15
TORSDOF 9
ENDMDL
MODEL 7
REMARK VINA RESULT:      -6.5      3.620      6.896
REMARK  Name = 11912605
REMARK  11 active torsions:
REMARK  status: ('A' for Active; 'I' for Inactive)
REMARK    1  A    between atoms: O_4  and  C_31
REMARK    2  A    between atoms: O_4  and  C_33
REMARK    3  A    between atoms: N_7  and  C_19
REMARK    4  A    between atoms: N_8  and  C_20
REMARK    5  A    between atoms: C_9  and  C_15
REMARK    6  A    between atoms: C_10  and  C_14
REMARK    7  A    between atoms: C_14  and  C_16
REMARK    8  A    between atoms: C_15  and  C_18
REMARK    9  A    between atoms: C_19  and  C_21
REMARK   10  A    between atoms: C_24  and  C_31
REMARK   11  A    between atoms: C_33  and  C_34
REMARK                            x       y       z     vdW  Elec       q    Type
REMARK                         _______ _______ _______ _____ _____    ______ ____
ROOT
ATOM      2  O   UNL     1      -8.237 -10.947   9.482  0.00  0.00    -0.252 OA
ATOM      6  N   UNL     1      -6.703  -9.961  10.902  0.00  0.00    -0.285 N 
ATOM      8  N   UNL     1      -7.184  -8.994   8.805  0.00  0.00    -0.269 N 
ATOM      9  C   UNL     1      -4.457 -10.619  12.605  0.00  0.00    +0.004 C 
ATOM     10  C   UNL     1      -4.358  -9.487  11.548  0.00  0.00    +0.010 C 
ATOM     11  C   UNL     1      -5.521 -11.664  12.224  0.00  0.00    +0.023 C 
ATOM     12  C   UNL     1      -5.756  -8.904  11.286  0.00  0.00    +0.113 C 
ATOM     13  C   UNL     1      -6.866 -11.007  11.913  0.00  0.00    +0.109 C 
ATOM     17  C   UNL     1      -7.447 -10.027   9.704  0.00  0.00    +0.306 C 
ATOM     36  H   UNL     1      -6.893  -8.096   9.174  0.00  0.00    +0.156 HD
ENDROOT
BRANCH   8  20
ATOM     20  C   UNL     1      -7.264  -9.045   7.391  0.00  0.00    +0.036 A 
ATOM     22  C   UNL     1      -6.588 -10.043   6.690  0.00  0.00    +0.038 A 
ATOM     23  C   UNL     1      -8.018  -8.097   6.702  0.00  0.00    +0.023 A 
ATOM     24  C   UNL     1      -6.666 -10.093   5.299  0.00  0.00    +0.061 A 
ATOM     27  C   UNL     1      -8.096  -8.146   5.309  0.00  0.00    +0.003 A 
ATOM     28  C   UNL     1      -7.421  -9.144   4.608  0.00  0.00    +0.015 A 
BRANCH  24  31
ATOM      5  O   UNL     1      -6.397 -11.691   3.549  0.00  0.00    -0.245 OA
ATOM     31  C   UNL     1      -5.962 -11.134   4.566  0.00  0.00    +0.339 C 
BRANCH  31   4
ATOM      4  O   UNL     1      -4.754 -11.422   5.139  0.00  0.00    -0.461 OA
BRANCH   4  33
ATOM     33  C   UNL     1      -4.481 -12.801   5.414  0.00  0.00    +0.229 C 
ATOM     34  C   UNL     1      -4.173 -12.958   6.887  0.00  0.00    +0.048 C 
ENDBRANCH   4  33
ENDBRANCH  31   4
ENDBRANCH  24  31
ENDBRANCH   8  20
BRANCH  10  14
ATOM     14  C   UNL     1      -3.700  -9.917  10.231  0.00  0.00    +0.002 C 
ATOM     16  C   UNL     1      -3.737  -8.799   9.210  0.00  0.00    +0.004 C 
ENDBRANCH  10  14
BRANCH   9  15
ATOM     15  C   UNL     1      -3.116 -11.295  12.888  0.00  0.00    +0.099 C 
BRANCH  15  18
ATOM      3  O   UNL     1      -2.601 -12.777  14.731  0.00  0.00    -0.276 OA
ATOM      7  N   UNL     1      -3.272 -10.596  15.173  0.00  0.00    -0.311 N 
ATOM     18  C   UNL     1      -2.959 -11.666  14.348  0.00  0.00    +0.214 C 
ATOM     35  H   UNL     1      -3.568  -9.716  14.761  0.00  0.00    +0.149 HD
BRANCH   7  19
ATOM     19  C   UNL     1      -3.213 -10.667  16.615  0.00  0.00    +0.139 C 
BRANCH  19  21
ATOM      1  F   UNL     1      -8.323 -10.304  18.953  0.00  0.00    -0.205 F 
ATOM     21  C   UNL     1      -4.576 -10.569  17.238  0.00  0.00    -0.030 A 
ATOM     25  C   UNL     1      -4.793 -11.071  18.523  0.00  0.00    +0.008 A 
ATOM     26  C   UNL     1      -5.624  -9.979  16.534  0.00  0.00    +0.008 A 
ATOM     29  C   UNL     1      -6.058 -10.980  19.101  0.00  0.00    +0.038 A 
ATOM     30  C   UNL     1      -6.890  -9.889  17.112  0.00  0.00    +0.038 A 
ATOM     32  C   UNL     1      -7.107 -10.389  18.396  0.00  0.00    +0.123 A 
ENDBRANCH  19  21
ENDBRANCH   7  19
ENDBRANCH  15  18
ENDBRANCH   9  15
TORSDOF 9
ENDMDL
MODEL 8
REMARK VINA RESULT:      -6.5     23.338     28.279
REMARK  Name = 11912605
REMARK  11 active torsions:
REMARK  status: ('A' for Active; 'I' for Inactive)
REMARK    1  A    between atoms: O_4  and  C_31
REMARK    2  A    between atoms: O_4  and  C_33
REMARK    3  A    between atoms: N_7  and  C_19
REMARK    4  A    between atoms: N_8  and  C_20
REMARK    5  A    between atoms: C_9  and  C_15
REMARK    6  A    between atoms: C_10  and  C_14
REMARK    7  A    between atoms: C_14  and  C_16
REMARK    8  A    between atoms: C_15  and  C_18
REMARK    9  A    between atoms: C_19  and  C_21
REMARK   10  A    between atoms: C_24  and  C_31
REMARK   11  A    between atoms: C_33  and  C_34
REMARK                            x       y       z     vdW  Elec       q    Type
REMARK                         _______ _______ _______ _____ _____    ______ ____
ROOT
ATOM      2  O   UNL     1      13.790   8.773   4.295  0.00  0.00    -0.252 OA
ATOM      6  N   UNL     1      13.228   7.818   2.266  0.00  0.00    -0.285 N 
ATOM      8  N   UNL     1      11.547   8.448   3.797  0.00  0.00    -0.269 N 
ATOM      9  C   UNL     1      13.963   5.629   0.522  0.00  0.00    +0.004 C 
ATOM     10  C   UNL     1      12.486   5.863   0.935  0.00  0.00    +0.010 C 
ATOM     11  C   UNL     1      14.945   6.209   1.556  0.00  0.00    +0.023 C 
ATOM     12  C   UNL     1      12.270   7.352   1.252  0.00  0.00    +0.113 C 
ATOM     13  C   UNL     1      14.629   7.671   1.870  0.00  0.00    +0.109 C 
ATOM     17  C   UNL     1      12.912   8.389   3.518  0.00  0.00    +0.306 C 
ATOM     36  H   UNL     1      10.899   8.531   3.022  0.00  0.00    +0.156 HD
ENDROOT
BRANCH   8  20
ATOM     20  C   UNL     1      10.928   8.391   5.070  0.00  0.00    +0.036 A 
ATOM     22  C   UNL     1      11.078   7.258   5.869  0.00  0.00    +0.038 A 
ATOM     23  C   UNL     1      10.168   9.468   5.524  0.00  0.00    +0.023 A 
ATOM     24  C   UNL     1      10.468   7.201   7.122  0.00  0.00    +0.061 A 
ATOM     27  C   UNL     1       9.558   9.413   6.778  0.00  0.00    +0.003 A 
ATOM     28  C   UNL     1       9.707   8.280   7.576  0.00  0.00    +0.015 A 
BRANCH  24  31
ATOM      5  O   UNL     1      11.688   5.674   8.488  0.00  0.00    -0.245 OA
ATOM     31  C   UNL     1      10.624   6.020   7.956  0.00  0.00    +0.339 C 
BRANCH  31   4
ATOM      4  O   UNL     1       9.447   5.336   8.085  0.00  0.00    -0.461 OA
BRANCH   4  33
ATOM     33  C   UNL     1       9.444   4.215   8.975  0.00  0.00    +0.229 C 
ATOM     34  C   UNL     1       8.849   4.638  10.300  0.00  0.00    +0.048 C 
ENDBRANCH   4  33
ENDBRANCH  31   4
ENDBRANCH  24  31
ENDBRANCH   8  20
BRANCH  10  14
ATOM     14  C   UNL     1      12.020   4.991   2.108  0.00  0.00    +0.002 C 
ATOM     16  C   UNL     1      10.756   4.234   1.759  0.00  0.00    +0.004 C 
ENDBRANCH  10  14
BRANCH   9  15
ATOM     15  C   UNL     1      14.283   4.161   0.240  0.00  0.00    +0.099 C 
BRANCH  15  18
ATOM      3  O   UNL     1      14.364   4.056  -2.176  0.00  0.00    -0.276 OA
ATOM      7  N   UNL     1      12.687   2.918  -1.040  0.00  0.00    -0.311 N 
ATOM     18  C   UNL     1      13.811   3.725  -1.131  0.00  0.00    +0.214 C 
ATOM     35  H   UNL     1      12.295   2.706  -0.127  0.00  0.00    +0.149 HD
BRANCH   7  19
ATOM     19  C   UNL     1      12.019   2.359  -2.194  0.00  0.00    +0.139 C 
BRANCH  19  21
ATOM      1  F   UNL     1       7.712   5.562  -3.893  0.00  0.00    -0.205 F 
ATOM     21  C   UNL     1      10.870   3.213  -2.646  0.00  0.00    -0.030 A 
ATOM     25  C   UNL     1      10.123   2.841  -3.764  0.00  0.00    +0.008 A 
ATOM     26  C   UNL     1      10.551   4.378  -1.950  0.00  0.00    +0.008 A 
ATOM     29  C   UNL     1       9.056   3.635  -4.184  0.00  0.00    +0.038 A 
ATOM     30  C   UNL     1       9.484   5.173  -2.371  0.00  0.00    +0.038 A 
ATOM     32  C   UNL     1       8.736   4.800  -3.488  0.00  0.00    +0.123 A 
ENDBRANCH  19  21
ENDBRANCH   7  19
ENDBRANCH  15  18
ENDBRANCH   9  15
TORSDOF 9
ENDMDL
MODEL 9
REMARK VINA RESULT:      -6.5      4.430      7.788
REMARK  Name = 11912605
REMARK  11 active torsions:
REMARK  status: ('A' for Active; 'I' for Inactive)
REMARK    1  A    between atoms: O_4  and  C_31
REMARK    2  A    between atoms: O_4  and  C_33
REMARK    3  A    between atoms: N_7  and  C_19
REMARK    4  A    between atoms: N_8  and  C_20
REMARK    5  A    between atoms: C_9  and  C_15
REMARK    6  A    between atoms: C_10  and  C_14
REMARK    7  A    between atoms: C_14  and  C_16
REMARK    8  A    between atoms: C_15  and  C_18
REMARK    9  A    between atoms: C_19  and  C_21
REMARK   10  A    between atoms: C_24  and  C_31
REMARK   11  A    between atoms: C_33  and  C_34
REMARK                            x       y       z     vdW  Elec       q    Type
REMARK                         _______ _______ _______ _____ _____    ______ ____
ROOT
ATOM      2  O   UNL     1      -7.650  -8.118   9.006  0.00  0.00    -0.252 OA
ATOM      6  N   UNL     1      -5.467  -8.628   9.570  0.00  0.00    -0.285 N 
ATOM      8  N   UNL     1      -6.228  -8.914   7.355  0.00  0.00    -0.269 N 
ATOM      9  C   UNL     1      -3.921  -9.990  11.602  0.00  0.00    +0.004 C 
ATOM     10  C   UNL     1      -3.709 -10.294  10.095  0.00  0.00    +0.010 C 
ATOM     11  C   UNL     1      -5.335  -9.450  11.882  0.00  0.00    +0.023 C 
ATOM     12  C   UNL     1      -4.096  -9.061   9.262  0.00  0.00    +0.113 C 
ATOM     13  C   UNL     1      -5.675  -8.270  10.974  0.00  0.00    +0.109 C 
ATOM     17  C   UNL     1      -6.536  -8.515   8.655  0.00  0.00    +0.306 C 
ATOM     36  H   UNL     1      -5.271  -8.815   7.034  0.00  0.00    +0.156 HD
ENDROOT
BRANCH   8  20
ATOM     20  C   UNL     1      -7.109  -9.471   6.396  0.00  0.00    +0.036 A 
ATOM     22  C   UNL     1      -7.279  -8.848   5.160  0.00  0.00    +0.038 A 
ATOM     23  C   UNL     1      -7.805 -10.643   6.688  0.00  0.00    +0.023 A 
ATOM     24  C   UNL     1      -8.146  -9.397   4.215  0.00  0.00    +0.061 A 
ATOM     27  C   UNL     1      -8.673 -11.193   5.743  0.00  0.00    +0.003 A 
ATOM     28  C   UNL     1      -8.843 -10.570   4.508  0.00  0.00    +0.015 A 
BRANCH  24  31
ATOM      5  O   UNL     1      -7.439  -8.121   2.329  0.00  0.00    -0.245 OA
ATOM     31  C   UNL     1      -8.324  -8.749   2.925  0.00  0.00    +0.339 C 
BRANCH  31   4
ATOM      4  O   UNL     1      -9.594  -8.921   2.447  0.00  0.00    -0.461 OA
BRANCH   4  33
ATOM     33  C   UNL     1     -10.414  -7.751   2.353  0.00  0.00    +0.229 C 
ATOM     34  C   UNL     1     -10.541  -7.353   0.899  0.00  0.00    +0.048 C 
ENDBRANCH   4  33
ENDBRANCH  31   4
ENDBRANCH  24  31
ENDBRANCH   8  20
BRANCH  10  14
ATOM     14  C   UNL     1      -4.459 -11.535   9.596  0.00  0.00    +0.002 C 
ATOM     16  C   UNL     1      -4.292 -11.712   8.102  0.00  0.00    +0.004 C 
ENDBRANCH  10  14
BRANCH   9  15
ATOM     15  C   UNL     1      -3.611 -11.184  12.505  0.00  0.00    +0.099 C 
BRANCH  15  18
ATOM      3  O   UNL     1      -1.841 -10.260  13.872  0.00  0.00    -0.276 OA
ATOM      7  N   UNL     1      -3.786 -11.027  14.887  0.00  0.00    -0.311 N 
ATOM     18  C   UNL     1      -2.959 -10.764  13.805  0.00  0.00    +0.214 C 
ATOM     35  H   UNL     1      -4.694 -11.457  14.731  0.00  0.00    +0.149 HD
BRANCH   7  19
ATOM     19  C   UNL     1      -3.418 -10.732  16.253  0.00  0.00    +0.139 C 
BRANCH  19  21
ATOM      1  F   UNL     1      -7.900 -10.589  19.658  0.00  0.00    -0.205 F 
ATOM     21  C   UNL     1      -4.613 -10.692  17.161  0.00  0.00    -0.030 A 
ATOM     25  C   UNL     1      -4.534 -11.240  18.442  0.00  0.00    +0.008 A 
ATOM     26  C   UNL     1      -5.802 -10.111  16.724  0.00  0.00    +0.008 A 
ATOM     29  C   UNL     1      -5.644 -11.204  19.285  0.00  0.00    +0.038 A 
ATOM     30  C   UNL     1      -6.913 -10.076  17.567  0.00  0.00    +0.038 A 
ATOM     32  C   UNL     1      -6.833 -10.622  18.848  0.00  0.00    +0.123 A 
ENDBRANCH  19  21
ENDBRANCH   7  19
ENDBRANCH  15  18
ENDBRANCH   9  15
TORSDOF 9
ENDMDL
MODEL 10
REMARK VINA RESULT:      -6.5     23.844     28.071
REMARK  Name = 11912605
REMARK  11 active torsions:
REMARK  status: ('A' for Active; 'I' for Inactive)
REMARK    1  A    between atoms: O_4  and  C_31
REMARK    2  A    between atoms: O_4  and  C_33
REMARK    3  A    between atoms: N_7  and  C_19
REMARK    4  A    between atoms: N_8  and  C_20
REMARK    5  A    between atoms: C_9  and  C_15
REMARK    6  A    between atoms: C_10  and  C_14
REMARK    7  A    between atoms: C_14  and  C_16
REMARK    8  A    between atoms: C_15  and  C_18
REMARK    9  A    between atoms: C_19  and  C_21
REMARK   10  A    between atoms: C_24  and  C_31
REMARK   11  A    between atoms: C_33  and  C_34
REMARK                            x       y       z     vdW  Elec       q    Type
REMARK                         _______ _______ _______ _____ _____    ______ ____
ROOT
ATOM      2  O   UNL     1      11.137   3.500   2.810  0.00  0.00    -0.252 OA
ATOM      6  N   UNL     1      12.940   4.282   1.593  0.00  0.00    -0.285 N 
ATOM      8  N   UNL     1      11.846   5.684   3.142  0.00  0.00    -0.269 N 
ATOM      9  C   UNL     1      14.000   4.315  -1.100  0.00  0.00    +0.004 C 
ATOM     10  C   UNL     1      13.859   5.624  -0.278  0.00  0.00    +0.010 C 
ATOM     11  C   UNL     1      13.008   3.236  -0.631  0.00  0.00    +0.023 C 
ATOM     12  C   UNL     1      13.936   5.299   1.223  0.00  0.00    +0.113 C 
ATOM     13  C   UNL     1      13.094   3.013   0.879  0.00  0.00    +0.109 C 
ATOM     17  C   UNL     1      11.914   4.423   2.552  0.00  0.00    +0.306 C 
ATOM     36  H   UNL     1      12.699   6.224   3.228  0.00  0.00    +0.156 HD
ENDROOT
BRANCH   8  20
ATOM     20  C   UNL     1      10.692   6.336   3.644  0.00  0.00    +0.036 A 
ATOM     22  C   UNL     1      10.480   6.418   5.020  0.00  0.00    +0.038 A 
ATOM     23  C   UNL     1       9.770   6.896   2.762  0.00  0.00    +0.023 A 
ATOM     24  C   UNL     1       9.345   7.060   5.514  0.00  0.00    +0.061 A 
ATOM     27  C   UNL     1       8.633   7.539   3.256  0.00  0.00    +0.003 A 
ATOM     28  C   UNL     1       8.421   7.621   4.631  0.00  0.00    +0.015 A 
BRANCH  24  31
ATOM      5  O   UNL     1       8.148   7.700   7.475  0.00  0.00    -0.245 OA
ATOM     31  C   UNL     1       9.123   7.147   6.949  0.00  0.00    +0.339 C 
BRANCH  31   4
ATOM      4  O   UNL     1      10.127   6.538   7.651  0.00  0.00    -0.461 OA
BRANCH   4  33
ATOM     33  C   UNL     1       9.735   5.660   8.710  0.00  0.00    +0.229 C 
ATOM     34  C   UNL     1       9.791   4.231   8.213  0.00  0.00    +0.048 C 
ENDBRANCH   4  33
ENDBRANCH  31   4
ENDBRANCH  24  31
ENDBRANCH   8  20
BRANCH  10  14
ATOM     14  C   UNL     1      12.588   6.423  -0.590  0.00  0.00    +0.002 C 
ATOM     16  C   UNL     1      12.532   7.700   0.223  0.00  0.00    +0.004 C 
ENDBRANCH  10  14
BRANCH   9  15
ATOM     15  C   UNL     1      13.880   4.537  -2.608  0.00  0.00    +0.099 C 
BRANCH  15  18
ATOM      3  O   UNL     1      12.792   2.570  -3.503  0.00  0.00    -0.276 OA
ATOM      7  N   UNL     1      11.617   4.571  -3.387  0.00  0.00    -0.311 N 
ATOM     18  C   UNL     1      12.729   3.761  -3.211  0.00  0.00    +0.214 C 
ATOM     35  H   UNL     1      11.664   5.551  -3.124  0.00  0.00    +0.149 HD
BRANCH   7  19
ATOM     19  C   UNL     1      10.373   4.094  -3.948  0.00  0.00    +0.139 C 
BRANCH  19  21
ATOM      1  F   UNL     1       6.085   7.564  -2.818  0.00  0.00    -0.205 F 
ATOM     21  C   UNL     1       9.229   5.019  -3.646  0.00  0.00    -0.030 A 
ATOM     25  C   UNL     1       8.076   4.981  -4.431  0.00  0.00    +0.008 A 
ATOM     26  C   UNL     1       9.320   5.915  -2.582  0.00  0.00    +0.008 A 
ATOM     29  C   UNL     1       7.015   5.841  -4.150  0.00  0.00    +0.038 A 
ATOM     30  C   UNL     1       8.258   6.776  -2.302  0.00  0.00    +0.038 A 
ATOM     32  C   UNL     1       7.105   6.738  -3.086  0.00  0.00    +0.123 A 
ENDBRANCH  19  21
ENDBRANCH   7  19
ENDBRANCH  15  18
ENDBRANCH   9  15
TORSDOF 9
ENDMDL
