REMARK  Name = 11911721
REMARK  6 active torsions:
REMARK  status: ('A' for Active; 'I' for Inactive)
REMARK    1  A    between atoms: O_4  and  C_26
REMARK    2  A    between atoms: O_4  and  C_30
REMARK    3  A    between atoms: N_5  and  C_11
REMARK    4  A    between atoms: N_6  and  C_12
REMARK    5  A    between atoms: C_16  and  C_18
REMARK    6  A    between atoms: C_17  and  C_19
REMARK                            x       y       z     vdW  Elec       q    Type
REMARK                         _______ _______ _______ _____ _____    ______ ____
ROOT
ATOM      1  O   UNL     1       0.433  -2.867   1.235  0.00  0.00    -0.370 OA
ATOM      2  O   UNL     1      -0.277  -2.006  -1.705  0.00  0.00    -0.370 OA
ATOM      9  C   UNL     1       0.422  -1.370  -0.620  0.00  0.00    +0.175 C 
ATOM     10  C   UNL     1      -0.286  -1.764   0.661  0.00  0.00    +0.171 C 
ATOM     11  C   UNL     1       1.814  -1.958  -0.487  0.00  0.00    +0.166 C 
ATOM     12  C   UNL     1      -1.657  -2.212   0.208  0.00  0.00    +0.130 C 
ATOM     13  C   UNL     1       1.597  -3.144   0.446  0.00  0.00    +0.190 C 
ATOM     14  C   UNL     1      -1.376  -2.761  -1.178  0.00  0.00    +0.185 C 
ENDROOT
BRANCH  11   5
ATOM      5  N   UNL     1       2.798  -0.976  -0.024  0.00  0.00    -0.243 N 
ATOM      7  N   UNL     1       2.622  -0.338   1.141  0.00  0.00    -0.065 NA
ATOM      8  N   UNL     1       3.657   0.480   1.296  0.00  0.00    -0.129 NA
ATOM     15  C   UNL     1       3.939  -0.593  -0.649  0.00  0.00    +0.139 A 
ATOM     17  C   UNL     1       4.473   0.336   0.209  0.00  0.00    +0.113 A 
BRANCH  17  19
ATOM     19  C   UNL     1       5.693   1.050   0.008  0.00  0.00    +0.004 A 
ATOM     22  C   UNL     1       6.459   0.830  -1.143  0.00  0.00    +0.010 A 
ATOM     23  C   UNL     1       6.134   1.976   0.959  0.00  0.00    +0.010 A 
ATOM     27  C   UNL     1       7.651   1.528  -1.339  0.00  0.00    +0.001 A 
ATOM     28  C   UNL     1       7.326   2.674   0.763  0.00  0.00    +0.001 A 
ATOM     29  C   UNL     1       8.084   2.450  -0.386  0.00  0.00    +0.000 A 
ENDBRANCH  17  19
ENDBRANCH  11   5
BRANCH  12   6
ATOM      3  O   UNL     1      -4.517  -2.342   0.435  0.00  0.00    -0.270 OA
ATOM      6  N   UNL     1      -2.578  -1.102   0.153  0.00  0.00    -0.304 N 
ATOM     16  C   UNL     1      -3.950  -1.264   0.273  0.00  0.00    +0.244 C 
ATOM     31  H   UNL     1      -2.190  -0.197  -0.093  0.00  0.00    +0.149 HD
BRANCH  16  18
ATOM     18  C   UNL     1      -4.763  -0.025   0.169  0.00  0.00    +0.037 A 
ATOM     20  C   UNL     1      -6.065  -0.119  -0.279  0.00  0.00    +0.016 A 
ATOM     21  C   UNL     1      -4.192   1.179   0.525  0.00  0.00    +0.016 A 
ATOM     24  C   UNL     1      -6.829   1.044  -0.376  0.00  0.00    +0.046 A 
ATOM     25  C   UNL     1      -4.956   2.342   0.427  0.00  0.00    +0.046 A 
ATOM     26  C   UNL     1      -6.275   2.275  -0.023  0.00  0.00    +0.120 A 
BRANCH  26   4
ATOM      4  O   UNL     1      -7.021   3.409  -0.116  0.00  0.00    -0.495 OA
ATOM     30  C   UNL     1      -8.362   3.268  -0.582  0.00  0.00    +0.277 C 
ENDBRANCH  26   4
ENDBRANCH  16  18
ENDBRANCH  12   6
TORSDOF 5
