MODEL 1
REMARK VINA RESULT:      -7.7      0.000      0.000
REMARK  Name = 40777113
REMARK  6 active torsions:
REMARK  status: ('A' for Active; 'I' for Inactive)
REMARK    1  A    between atoms: N_5  and  C_15
REMARK    2  A    between atoms: C_9  and  C_16
REMARK    3  A    between atoms: C_10  and  C_15
REMARK    4  A    between atoms: C_18  and  C_21
REMARK    5  A    between atoms: C_19  and  C_22
REMARK    6  A    between atoms: C_20  and  C_23
REMARK                            x       y       z     vdW  Elec       q    Type
REMARK                         _______ _______ _______ _____ _____    ______ ____
ROOT
ATOM      4  N   UNL     1      12.562   6.922  19.548  0.00  0.00    -0.297 NA
ATOM      8  C   UNL     1      12.385   8.105  21.862  0.00  0.00    +0.002 C 
ATOM      9  C   UNL     1      11.690   8.955  20.763  0.00  0.00    +0.055 C 
ATOM     10  C   UNL     1      13.901   6.983  20.192  0.00  0.00    +0.074 C 
ATOM     11  C   UNL     1      13.855   7.859  21.463  0.00  0.00    +0.024 C 
ATOM     12  C   UNL     1      11.682   6.732  21.874  0.00  0.00    +0.019 C 
ATOM     13  C   UNL     1      12.011   8.292  19.392  0.00  0.00    +0.094 C 
ATOM     14  C   UNL     1      11.661   6.160  20.445  0.00  0.00    +0.085 C 
ENDROOT
BRANCH   9  16
ATOM      6  N   UNL     1      12.799  10.920  19.820  0.00  0.00    -0.237 NA
ATOM      7  N   UNL     1      12.425  13.141  20.678  0.00  0.00    -0.232 NA
ATOM     16  C   UNL     1      11.939  10.456  20.750  0.00  0.00    +0.050 A 
ATOM     17  C   UNL     1      11.290  11.262  21.665  0.00  0.00    +0.052 A 
ATOM     18  C   UNL     1      11.575  12.609  21.581  0.00  0.00    +0.076 A 
ATOM     19  C   UNL     1      12.994  12.253  19.841  0.00  0.00    +0.127 A 
ATOM     22  C   UNL     1      13.942  12.804  18.830  0.00  0.00    +0.088 C 
BRANCH  18  21
ATOM      1 BR   UNL     1      13.122  13.048  24.347  0.00  0.00    -0.050 Br
ATOM     21  C   UNL     1      10.965  13.557  22.482  0.00  0.00    +0.014 A 
ATOM     24  C   UNL     1      11.518  13.858  23.726  0.00  0.00    +0.027 A 
ATOM     25  C   UNL     1       9.785  14.181  22.074  0.00  0.00    +0.011 A 
ATOM     27  C   UNL     1      10.893  14.783  24.563  0.00  0.00    +0.016 A 
ATOM     28  C   UNL     1       9.159  15.105  22.911  0.00  0.00    +0.001 A 
ATOM     31  C   UNL     1       9.713  15.406  24.155  0.00  0.00    +0.001 A 
ENDBRANCH  18  21
ENDBRANCH   9  16
BRANCH  10  15
ATOM     15  C   UNL     1      14.993   7.441  19.223  0.00  0.00    +0.123 C 
BRANCH  15   5
ATOM      2  O   UNL     1      16.824   5.354  18.487  0.00  0.00    -0.267 OA
ATOM      5  N   UNL     1      16.293   7.212  19.774  0.00  0.00    -0.307 N 
ATOM     20  C   UNL     1      17.121   6.170  19.356  0.00  0.00    +0.279 C 
ATOM     32  H   UNL     1      16.620   7.832  20.508  0.00  0.00    +0.149 HD
BRANCH  20  23
ATOM      3  O   UNL     1      19.181   4.945  19.800  0.00  0.00    -0.458 OA
ATOM     23  C   UNL     1      18.431   6.050  20.047  0.00  0.00    +0.189 A 
ATOM     26  C   UNL     1      19.072   6.882  20.935  0.00  0.00    +0.054 A 
ATOM     29  C   UNL     1      20.295   6.246  21.254  0.00  0.00    +0.042 A 
ATOM     30  C   UNL     1      20.314   5.071  20.538  0.00  0.00    +0.196 A 
ENDBRANCH  20  23
ENDBRANCH  15   5
ENDBRANCH  10  15
TORSDOF 5
ENDMDL
MODEL 2
REMARK VINA RESULT:      -7.2     17.236     20.224
REMARK  Name = 40777113
REMARK  6 active torsions:
REMARK  status: ('A' for Active; 'I' for Inactive)
REMARK    1  A    between atoms: N_5  and  C_15
REMARK    2  A    between atoms: C_9  and  C_16
REMARK    3  A    between atoms: C_10  and  C_15
REMARK    4  A    between atoms: C_18  and  C_21
REMARK    5  A    between atoms: C_19  and  C_22
REMARK    6  A    between atoms: C_20  and  C_23
REMARK                            x       y       z     vdW  Elec       q    Type
REMARK                         _______ _______ _______ _____ _____    ______ ____
ROOT
ATOM      4  N   UNL     1       9.895   6.990   7.364  0.00  0.00    -0.297 NA
ATOM      8  C   UNL     1       9.625   5.162   5.528  0.00  0.00    +0.002 C 
ATOM      9  C   UNL     1      11.019   5.840   5.419  0.00  0.00    +0.055 C 
ATOM     10  C   UNL     1       8.608   7.179   6.643  0.00  0.00    +0.074 C 
ATOM     11  C   UNL     1       8.525   6.239   5.422  0.00  0.00    +0.024 C 
ATOM     12  C   UNL     1       9.534   4.558   6.945  0.00  0.00    +0.019 C 
ATOM     13  C   UNL     1      11.028   7.044   6.404  0.00  0.00    +0.094 C 
ATOM     14  C   UNL     1       9.877   5.643   7.982  0.00  0.00    +0.085 C 
ENDROOT
BRANCH   9  16
ATOM      6  N   UNL     1      12.042   7.462   3.901  0.00  0.00    -0.237 NA
ATOM      7  N   UNL     1      12.452   6.965   1.579  0.00  0.00    -0.232 NA
ATOM     16  C   UNL     1      11.527   6.223   4.036  0.00  0.00    +0.050 A 
ATOM     17  C   UNL     1      11.442   5.310   3.004  0.00  0.00    +0.052 A 
ATOM     18  C   UNL     1      11.925   5.741   1.786  0.00  0.00    +0.076 A 
ATOM     19  C   UNL     1      12.480   7.764   2.664  0.00  0.00    +0.127 A 
ATOM     22  C   UNL     1      13.054   9.127   2.473  0.00  0.00    +0.088 C 
BRANCH  18  21
ATOM      1 BR   UNL     1      14.401   3.735   1.507  0.00  0.00    -0.050 Br
ATOM     21  C   UNL     1      11.892   4.884   0.625  0.00  0.00    +0.014 A 
ATOM     24  C   UNL     1      12.899   3.954   0.363  0.00  0.00    +0.027 A 
ATOM     25  C   UNL     1      10.810   5.005  -0.247  0.00  0.00    +0.011 A 
ATOM     27  C   UNL     1      12.824   3.145  -0.771  0.00  0.00    +0.016 A 
ATOM     28  C   UNL     1      10.736   4.197  -1.383  0.00  0.00    +0.001 A 
ATOM     31  C   UNL     1      11.743   3.267  -1.644  0.00  0.00    +0.001 A 
ENDBRANCH  18  21
ENDBRANCH   9  16
BRANCH  10  15
ATOM     15  C   UNL     1       8.366   8.640   6.255  0.00  0.00    +0.123 C 
BRANCH  15   5
ATOM      2  O   UNL     1       7.745  11.027   4.785  0.00  0.00    -0.267 OA
ATOM      5  N   UNL     1       7.580   8.728   5.064  0.00  0.00    -0.307 N 
ATOM     20  C   UNL     1       7.326   9.934   4.411  0.00  0.00    +0.279 C 
ATOM     32  H   UNL     1       7.183   7.874   4.686  0.00  0.00    +0.149 HD
BRANCH  20  23
ATOM      3  O   UNL     1       5.129  10.020   3.361  0.00  0.00    -0.458 OA
ATOM     23  C   UNL     1       6.468   9.861   3.200  0.00  0.00    +0.189 A 
ATOM     26  C   UNL     1       6.776   9.652   1.876  0.00  0.00    +0.054 A 
ATOM     29  C   UNL     1       5.545   9.687   1.178  0.00  0.00    +0.042 A 
ATOM     30  C   UNL     1       4.573   9.913   2.125  0.00  0.00    +0.196 A 
ENDBRANCH  20  23
ENDBRANCH  15   5
ENDBRANCH  10  15
TORSDOF 5
ENDMDL
MODEL 3
REMARK VINA RESULT:      -7.1     27.868     30.091
REMARK  Name = 40777113
REMARK  6 active torsions:
REMARK  status: ('A' for Active; 'I' for Inactive)
REMARK    1  A    between atoms: N_5  and  C_15
REMARK    2  A    between atoms: C_9  and  C_16
REMARK    3  A    between atoms: C_10  and  C_15
REMARK    4  A    between atoms: C_18  and  C_21
REMARK    5  A    between atoms: C_19  and  C_22
REMARK    6  A    between atoms: C_20  and  C_23
REMARK                            x       y       z     vdW  Elec       q    Type
REMARK                         _______ _______ _______ _____ _____    ______ ____
ROOT
ATOM      4  N   UNL     1      -7.017 -10.260  18.134  0.00  0.00    -0.297 NA
ATOM      8  C   UNL     1      -5.425 -12.316  18.282  0.00  0.00    +0.002 C 
ATOM      9  C   UNL     1      -4.887 -11.285  17.252  0.00  0.00    +0.055 C 
ATOM     10  C   UNL     1      -7.799 -11.518  18.007  0.00  0.00    +0.074 C 
ATOM     11  C   UNL     1      -6.856 -12.735  17.885  0.00  0.00    +0.024 C 
ATOM     12  C   UNL     1      -5.527 -11.581  19.636  0.00  0.00    +0.019 C 
ATOM     13  C   UNL     1      -5.982 -10.195  17.071  0.00  0.00    +0.094 C 
ATOM     14  C   UNL     1      -6.330 -10.282  19.448  0.00  0.00    +0.085 C 
ENDROOT
BRANCH   9  16
ATOM      6  N   UNL     1      -4.096 -13.125  15.849  0.00  0.00    -0.237 NA
ATOM      7  N   UNL     1      -3.426 -12.796  13.558  0.00  0.00    -0.232 NA
ATOM     16  C   UNL     1      -4.365 -11.805  15.920  0.00  0.00    +0.050 A 
ATOM     17  C   UNL     1      -4.194 -10.929  14.867  0.00  0.00    +0.052 A 
ATOM     18  C   UNL     1      -3.716 -11.486  13.700  0.00  0.00    +0.076 A 
ATOM     19  C   UNL     1      -3.636 -13.547  14.656  0.00  0.00    +0.127 A 
ATOM     22  C   UNL     1      -3.324 -15.001  14.538  0.00  0.00    +0.088 C 
BRANCH  18  21
ATOM      1 BR   UNL     1      -6.352 -10.681  12.076  0.00  0.00    -0.050 Br
ATOM     21  C   UNL     1      -3.490 -10.678  12.525  0.00  0.00    +0.014 A 
ATOM     24  C   UNL     1      -4.538 -10.245  11.713  0.00  0.00    +0.027 A 
ATOM     25  C   UNL     1      -2.176 -10.329  12.214  0.00  0.00    +0.011 A 
ATOM     27  C   UNL     1      -4.272  -9.463  10.588  0.00  0.00    +0.016 A 
ATOM     28  C   UNL     1      -1.909  -9.549  11.088  0.00  0.00    +0.001 A 
ATOM     31  C   UNL     1      -2.958  -9.116  10.276  0.00  0.00    +0.001 A 
ENDBRANCH  18  21
ENDBRANCH   9  16
BRANCH  10  15
ATOM     15  C   UNL     1      -8.810 -11.463  16.860  0.00  0.00    +0.123 C 
BRANCH  15   5
ATOM      2  O   UNL     1      -9.134  -9.751  14.577  0.00  0.00    -0.267 OA
ATOM      5  N   UNL     1      -9.478 -10.199  16.829  0.00  0.00    -0.307 N 
ATOM     20  C   UNL     1      -9.590  -9.429  15.671  0.00  0.00    +0.279 C 
ATOM     32  H   UNL     1      -9.879  -9.846  17.692  0.00  0.00    +0.149 HD
BRANCH  20  23
ATOM      3  O   UNL     1     -10.893  -7.608  14.709  0.00  0.00    -0.458 OA
ATOM     23  C   UNL     1     -10.291  -8.127  15.811  0.00  0.00    +0.189 A 
ATOM     26  C   UNL     1     -10.462  -7.295  16.893  0.00  0.00    +0.054 A 
ATOM     29  C   UNL     1     -11.219  -6.194  16.425  0.00  0.00    +0.042 A 
ATOM     30  C   UNL     1     -11.456  -6.432  15.091  0.00  0.00    +0.196 A 
ENDBRANCH  20  23
ENDBRANCH  15   5
ENDBRANCH  10  15
TORSDOF 5
ENDMDL
MODEL 4
REMARK VINA RESULT:      -6.9     14.963     17.647
REMARK  Name = 40777113
REMARK  6 active torsions:
REMARK  status: ('A' for Active; 'I' for Inactive)
REMARK    1  A    between atoms: N_5  and  C_15
REMARK    2  A    between atoms: C_9  and  C_16
REMARK    3  A    between atoms: C_10  and  C_15
REMARK    4  A    between atoms: C_18  and  C_21
REMARK    5  A    between atoms: C_19  and  C_22
REMARK    6  A    between atoms: C_20  and  C_23
REMARK                            x       y       z     vdW  Elec       q    Type
REMARK                         _______ _______ _______ _____ _____    ______ ____
ROOT
ATOM      4  N   UNL     1      15.340  10.268   4.877  0.00  0.00    -0.297 NA
ATOM      8  C   UNL     1      15.911   7.732   5.038  0.00  0.00    +0.002 C 
ATOM      9  C   UNL     1      15.162   8.037   3.712  0.00  0.00    +0.055 C 
ATOM     10  C   UNL     1      14.906   9.732   6.195  0.00  0.00    +0.074 C 
ATOM     11  C   UNL     1      15.046   8.194   6.230  0.00  0.00    +0.024 C 
ATOM     12  C   UNL     1      17.187   8.600   5.039  0.00  0.00    +0.019 C 
ATOM     13  C   UNL     1      14.681   9.515   3.780  0.00  0.00    +0.094 C 
ATOM     14  C   UNL     1      16.804  10.065   4.763  0.00  0.00    +0.085 C 
ENDROOT
BRANCH   9  16
ATOM      6  N   UNL     1      14.353   6.222   2.287  0.00  0.00    -0.237 NA
ATOM      7  N   UNL     1      12.107   5.364   2.452  0.00  0.00    -0.232 NA
ATOM     16  C   UNL     1      14.054   7.089   3.276  0.00  0.00    +0.050 A 
ATOM     17  C   UNL     1      12.822   7.152   3.895  0.00  0.00    +0.052 A 
ATOM     18  C   UNL     1      11.878   6.257   3.437  0.00  0.00    +0.076 A 
ATOM     19  C   UNL     1      13.347   5.400   1.929  0.00  0.00    +0.127 A 
ATOM     22  C   UNL     1      13.638   4.429   0.835  0.00  0.00    +0.088 C 
BRANCH  18  21
ATOM      1 BR   UNL     1      10.084   8.841   2.851  0.00  0.00    -0.050 Br
ATOM     21  C   UNL     1      10.549   6.222   3.999  0.00  0.00    +0.014 A 
ATOM     24  C   UNL     1       9.646   7.272   3.832  0.00  0.00    +0.027 A 
ATOM     25  C   UNL     1      10.177   5.092   4.728  0.00  0.00    +0.011 A 
ATOM     27  C   UNL     1       8.371   7.193   4.393  0.00  0.00    +0.016 A 
ATOM     28  C   UNL     1       8.902   5.013   5.290  0.00  0.00    +0.001 A 
ATOM     31  C   UNL     1       7.999   6.064   5.122  0.00  0.00    +0.001 A 
ENDBRANCH  18  21
ENDBRANCH   9  16
BRANCH  10  15
ATOM     15  C   UNL     1      13.494  10.184   6.572  0.00  0.00    +0.123 C 
BRANCH  15   5
ATOM      2  O   UNL     1      10.684   9.719   6.208  0.00  0.00    -0.267 OA
ATOM      5  N   UNL     1      12.733   9.095   7.102  0.00  0.00    -0.307 N 
ATOM     20  C   UNL     1      11.365   8.945   6.874  0.00  0.00    +0.279 C 
ATOM     32  H   UNL     1      13.213   8.408   7.675  0.00  0.00    +0.149 HD
BRANCH  20  23
ATOM      3  O   UNL     1      11.443   6.634   7.645  0.00  0.00    -0.458 OA
ATOM     23  C   UNL     1      10.715   7.774   7.517  0.00  0.00    +0.189 A 
ATOM     26  C   UNL     1       9.453   7.603   8.038  0.00  0.00    +0.054 A 
ATOM     29  C   UNL     1       9.404   6.273   8.518  0.00  0.00    +0.042 A 
ATOM     30  C   UNL     1      10.638   5.725   8.255  0.00  0.00    +0.196 A 
ENDBRANCH  20  23
ENDBRANCH  15   5
ENDBRANCH  10  15
TORSDOF 5
ENDMDL
MODEL 5
REMARK VINA RESULT:      -6.8     28.679     31.229
REMARK  Name = 40777113
REMARK  6 active torsions:
REMARK  status: ('A' for Active; 'I' for Inactive)
REMARK    1  A    between atoms: N_5  and  C_15
REMARK    2  A    between atoms: C_9  and  C_16
REMARK    3  A    between atoms: C_10  and  C_15
REMARK    4  A    between atoms: C_18  and  C_21
REMARK    5  A    between atoms: C_19  and  C_22
REMARK    6  A    between atoms: C_20  and  C_23
REMARK                            x       y       z     vdW  Elec       q    Type
REMARK                         _______ _______ _______ _____ _____    ______ ____
ROOT
ATOM      4  N   UNL     1     -12.684 -12.194  19.329  0.00  0.00    -0.297 NA
ATOM      8  C   UNL     1     -11.717  -9.905  20.107  0.00  0.00    +0.002 C 
ATOM      9  C   UNL     1     -12.076  -9.857  18.597  0.00  0.00    +0.055 C 
ATOM     10  C   UNL     1     -11.412 -12.405  20.070  0.00  0.00    +0.074 C 
ATOM     11  C   UNL     1     -10.720 -11.055  20.359  0.00  0.00    +0.024 C 
ATOM     12  C   UNL     1     -13.016 -10.256  20.863  0.00  0.00    +0.019 C 
ATOM     13  C   UNL     1     -12.451 -11.303  18.163  0.00  0.00    +0.094 C 
ATOM     14  C   UNL     1     -13.637 -11.520  20.243  0.00  0.00    +0.085 C 
ENDROOT
BRANCH   9  16
ATOM      6  N   UNL     1     -11.416  -7.992  17.160  0.00  0.00    -0.237 NA
ATOM      7  N   UNL     1      -9.348  -7.993  15.924  0.00  0.00    -0.232 NA
ATOM     16  C   UNL     1     -11.086  -9.208  17.642  0.00  0.00    +0.050 A 
ATOM     17  C   UNL     1      -9.919  -9.870  17.316  0.00  0.00    +0.052 A 
ATOM     18  C   UNL     1      -9.080  -9.208  16.444  0.00  0.00    +0.076 A 
ATOM     19  C   UNL     1     -10.515  -7.450  16.318  0.00  0.00    +0.127 A 
ATOM     22  C   UNL     1     -10.847  -6.106  15.762  0.00  0.00    +0.088 C 
BRANCH  18  21
ATOM      1 BR   UNL     1      -9.323 -11.426  14.151  0.00  0.00    -0.050 Br
ATOM     21  C   UNL     1      -7.830  -9.794  16.022  0.00  0.00    +0.014 A 
ATOM     24  C   UNL     1      -7.769 -10.775  15.032  0.00  0.00    +0.027 A 
ATOM     25  C   UNL     1      -6.660  -9.350  16.637  0.00  0.00    +0.011 A 
ATOM     27  C   UNL     1      -6.537 -11.311  14.656  0.00  0.00    +0.016 A 
ATOM     28  C   UNL     1      -5.428  -9.888  16.263  0.00  0.00    +0.001 A 
ATOM     31  C   UNL     1      -5.367 -10.868  15.271  0.00  0.00    +0.001 A 
ENDBRANCH  18  21
ENDBRANCH   9  16
BRANCH  10  15
ATOM     15  C   UNL     1     -10.478 -13.384  19.357  0.00  0.00    +0.123 C 
BRANCH  15   5
ATOM      2  O   UNL     1      -8.507 -13.347  17.268  0.00  0.00    -0.267 OA
ATOM      5  N   UNL     1      -9.114 -12.967  19.476  0.00  0.00    -0.307 N 
ATOM     20  C   UNL     1      -8.221 -12.981  18.405  0.00  0.00    +0.279 C 
ATOM     32  H   UNL     1      -8.785 -12.657  20.385  0.00  0.00    +0.149 HD
BRANCH  20  23
ATOM      3  O   UNL     1      -5.820 -13.145  18.023  0.00  0.00    -0.458 OA
ATOM     23  C   UNL     1      -6.832 -12.543  18.699  0.00  0.00    +0.189 A 
ATOM     26  C   UNL     1      -6.340 -11.597  19.567  0.00  0.00    +0.054 A 
ATOM     29  C   UNL     1      -4.933 -11.619  19.414  0.00  0.00    +0.042 A 
ATOM     30  C   UNL     1      -4.666 -12.577  18.463  0.00  0.00    +0.196 A 
ENDBRANCH  20  23
ENDBRANCH  15   5
ENDBRANCH  10  15
TORSDOF 5
ENDMDL
MODEL 6
REMARK VINA RESULT:      -6.8     26.389     29.985
REMARK  Name = 40777113
REMARK  6 active torsions:
REMARK  status: ('A' for Active; 'I' for Inactive)
REMARK    1  A    between atoms: N_5  and  C_15
REMARK    2  A    between atoms: C_9  and  C_16
REMARK    3  A    between atoms: C_10  and  C_15
REMARK    4  A    between atoms: C_18  and  C_21
REMARK    5  A    between atoms: C_19  and  C_22
REMARK    6  A    between atoms: C_20  and  C_23
REMARK                            x       y       z     vdW  Elec       q    Type
REMARK                         _______ _______ _______ _____ _____    ______ ____
ROOT
ATOM      4  N   UNL     1      -7.823  -9.905  16.965  0.00  0.00    -0.297 NA
ATOM      8  C   UNL     1      -6.341 -12.038  16.774  0.00  0.00    +0.002 C 
ATOM      9  C   UNL     1      -5.459 -10.760  16.747  0.00  0.00    +0.055 C 
ATOM     10  C   UNL     1      -8.355 -10.801  15.904  0.00  0.00    +0.074 C 
ATOM     11  C   UNL     1      -7.379 -11.966  15.635  0.00  0.00    +0.024 C 
ATOM     12  C   UNL     1      -7.124 -12.011  18.104  0.00  0.00    +0.019 C 
ATOM     13  C   UNL     1      -6.416  -9.537  16.660  0.00  0.00    +0.094 C 
ATOM     14  C   UNL     1      -7.839 -10.655  18.244  0.00  0.00    +0.085 C 
ENDROOT
BRANCH   9  16
ATOM      6  N   UNL     1      -3.082 -10.553  16.213  0.00  0.00    -0.237 NA
ATOM      7  N   UNL     1      -2.272 -10.542  13.944  0.00  0.00    -0.232 NA
ATOM     16  C   UNL     1      -4.333 -10.684  15.727  0.00  0.00    +0.050 A 
ATOM     17  C   UNL     1      -4.629 -10.752  14.380  0.00  0.00    +0.052 A 
ATOM     18  C   UNL     1      -3.548 -10.674  13.527  0.00  0.00    +0.076 A 
ATOM     19  C   UNL     1      -2.113 -10.488  15.280  0.00  0.00    +0.127 A 
ATOM     22  C   UNL     1      -0.715 -10.340  15.779  0.00  0.00    +0.088 C 
BRANCH  18  21
ATOM      1 BR   UNL     1      -3.003 -13.535  12.202  0.00  0.00    -0.050 Br
ATOM     21  C   UNL     1      -3.723 -10.731  12.095  0.00  0.00    +0.014 A 
ATOM     24  C   UNL     1      -3.523 -11.907  11.371  0.00  0.00    +0.027 A 
ATOM     25  C   UNL     1      -4.104  -9.562  11.436  0.00  0.00    +0.011 A 
ATOM     27  C   UNL     1      -3.705 -11.913   9.987  0.00  0.00    +0.016 A 
ATOM     28  C   UNL     1      -4.285  -9.569  10.052  0.00  0.00    +0.001 A 
ATOM     31  C   UNL     1      -4.086 -10.745   9.328  0.00  0.00    +0.001 A 
ENDBRANCH  18  21
ENDBRANCH   9  16
BRANCH  10  15
ATOM     15  C   UNL     1      -8.706 -10.042  14.622  0.00  0.00    +0.123 C 
BRANCH  15   5
ATOM      2  O   UNL     1      -7.341  -9.167  12.252  0.00  0.00    -0.267 OA
ATOM      5  N   UNL     1      -8.412 -10.831  13.466  0.00  0.00    -0.307 N 
ATOM     20  C   UNL     1      -7.741 -10.323  12.353  0.00  0.00    +0.279 C 
ATOM     32  H   UNL     1      -8.714 -11.800  13.456  0.00  0.00    +0.149 HD
BRANCH  20  23
ATOM      3  O   UNL     1      -7.736 -10.795   9.962  0.00  0.00    -0.458 OA
ATOM     23  C   UNL     1      -7.536 -11.264  11.221  0.00  0.00    +0.189 A 
ATOM     26  C   UNL     1      -7.164 -12.588  11.192  0.00  0.00    +0.054 A 
ATOM     29  C   UNL     1      -7.133 -12.955   9.826  0.00  0.00    +0.042 A 
ATOM     30  C   UNL     1      -7.488 -11.831   9.118  0.00  0.00    +0.196 A 
ENDBRANCH  20  23
ENDBRANCH  15   5
ENDBRANCH  10  15
TORSDOF 5
ENDMDL
MODEL 7
REMARK VINA RESULT:      -6.8     15.256     18.098
REMARK  Name = 40777113
REMARK  6 active torsions:
REMARK  status: ('A' for Active; 'I' for Inactive)
REMARK    1  A    between atoms: N_5  and  C_15
REMARK    2  A    between atoms: C_9  and  C_16
REMARK    3  A    between atoms: C_10  and  C_15
REMARK    4  A    between atoms: C_18  and  C_21
REMARK    5  A    between atoms: C_19  and  C_22
REMARK    6  A    between atoms: C_20  and  C_23
REMARK                            x       y       z     vdW  Elec       q    Type
REMARK                         _______ _______ _______ _____ _____    ______ ____
ROOT
ATOM      4  N   UNL     1      10.337   7.120   7.989  0.00  0.00    -0.297 NA
ATOM      8  C   UNL     1       9.683   5.514   6.046  0.00  0.00    +0.002 C 
ATOM      9  C   UNL     1      11.161   5.968   5.901  0.00  0.00    +0.055 C 
ATOM     10  C   UNL     1       9.064   7.569   7.364  0.00  0.00    +0.074 C 
ATOM     11  C   UNL     1       8.769   6.756   6.085  0.00  0.00    +0.024 C 
ATOM     12  C   UNL     1       9.563   4.818   7.418  0.00  0.00    +0.019 C 
ATOM     13  C   UNL     1      11.414   7.071   6.968  0.00  0.00    +0.094 C 
ATOM     14  C   UNL     1      10.128   5.746   8.508  0.00  0.00    +0.085 C 
ENDROOT
BRANCH   9  16
ATOM      6  N   UNL     1      12.462   7.457   4.461  0.00  0.00    -0.237 NA
ATOM      7  N   UNL     1      12.575   7.157   2.073  0.00  0.00    -0.232 NA
ATOM     16  C   UNL     1      11.657   6.376   4.521  0.00  0.00    +0.050 A 
ATOM     17  C   UNL     1      11.272   5.644   3.415  0.00  0.00    +0.052 A 
ATOM     18  C   UNL     1      11.767   6.086   2.206  0.00  0.00    +0.076 A 
ATOM     19  C   UNL     1      12.878   7.787   3.224  0.00  0.00    +0.127 A 
ATOM     22  C   UNL     1      13.769   8.979   3.117  0.00  0.00    +0.088 C 
BRANCH  18  21
ATOM      1 BR   UNL     1      13.692   3.649   1.439  0.00  0.00    -0.050 Br
ATOM     21  C   UNL     1      11.438   5.408   0.974  0.00  0.00    +0.014 A 
ATOM     24  C   UNL     1      12.182   4.326   0.504  0.00  0.00    +0.027 A 
ATOM     25  C   UNL     1      10.338   5.867   0.249  0.00  0.00    +0.011 A 
ATOM     27  C   UNL     1      11.826   3.702  -0.692  0.00  0.00    +0.016 A 
ATOM     28  C   UNL     1       9.983   5.244  -0.947  0.00  0.00    +0.001 A 
ATOM     31  C   UNL     1      10.727   4.161  -1.418  0.00  0.00    +0.001 A 
ENDBRANCH  18  21
ENDBRANCH   9  16
BRANCH  10  15
ATOM     15  C   UNL     1       9.045   9.076   7.099  0.00  0.00    +0.123 C 
BRANCH  15   5
ATOM      2  O   UNL     1      11.380  10.697   7.505  0.00  0.00    -0.267 OA
ATOM      5  N   UNL     1       9.382   9.806   8.282  0.00  0.00    -0.307 N 
ATOM     20  C   UNL     1      10.542  10.572   8.394  0.00  0.00    +0.279 C 
ATOM     32  H   UNL     1       8.751   9.754   9.075  0.00  0.00    +0.149 HD
BRANCH  20  23
ATOM      3  O   UNL     1       9.720  11.302  10.570  0.00  0.00    -0.458 OA
ATOM     23  C   UNL     1      10.761  11.249   9.699  0.00  0.00    +0.189 A 
ATOM     26  C   UNL     1      11.869  11.867  10.231  0.00  0.00    +0.054 A 
ATOM     29  C   UNL     1      11.482  12.329  11.512  0.00  0.00    +0.042 A 
ATOM     30  C   UNL     1      10.167  11.960  11.671  0.00  0.00    +0.196 A 
ENDBRANCH  20  23
ENDBRANCH  15   5
ENDBRANCH  10  15
TORSDOF 5
ENDMDL
MODEL 8
REMARK VINA RESULT:      -6.7     26.384     29.945
REMARK  Name = 40777113
REMARK  6 active torsions:
REMARK  status: ('A' for Active; 'I' for Inactive)
REMARK    1  A    between atoms: N_5  and  C_15
REMARK    2  A    between atoms: C_9  and  C_16
REMARK    3  A    between atoms: C_10  and  C_15
REMARK    4  A    between atoms: C_18  and  C_21
REMARK    5  A    between atoms: C_19  and  C_22
REMARK    6  A    between atoms: C_20  and  C_23
REMARK                            x       y       z     vdW  Elec       q    Type
REMARK                         _______ _______ _______ _____ _____    ______ ____
ROOT
ATOM      4  N   UNL     1      -7.450 -11.630  17.485  0.00  0.00    -0.297 NA
ATOM      8  C   UNL     1      -5.041 -11.122  18.334  0.00  0.00    +0.002 C 
ATOM      9  C   UNL     1      -5.293 -10.428  16.968  0.00  0.00    +0.055 C 
ATOM     10  C   UNL     1      -6.773 -12.894  17.879  0.00  0.00    +0.074 C 
ATOM     11  C   UNL     1      -5.282 -12.639  18.188  0.00  0.00    +0.024 C 
ATOM     12  C   UNL     1      -6.109 -10.585  19.310  0.00  0.00    +0.019 C 
ATOM     13  C   UNL     1      -6.662 -10.938  16.434  0.00  0.00    +0.094 C 
ATOM     14  C   UNL     1      -7.502 -10.751  18.678  0.00  0.00    +0.085 C 
ENDROOT
BRANCH   9  16
ATOM      6  N   UNL     1      -2.927 -10.390  16.348  0.00  0.00    -0.237 NA
ATOM      7  N   UNL     1      -2.194 -10.620  14.065  0.00  0.00    -0.232 NA
ATOM     16  C   UNL     1      -4.199 -10.500  15.912  0.00  0.00    +0.050 A 
ATOM     17  C   UNL     1      -4.543 -10.671  14.586  0.00  0.00    +0.052 A 
ATOM     18  C   UNL     1      -3.488 -10.724  13.698  0.00  0.00    +0.076 A 
ATOM     19  C   UNL     1      -1.988 -10.457  15.385  0.00  0.00    +0.127 A 
ATOM     22  C   UNL     1      -0.569 -10.336  15.829  0.00  0.00    +0.088 C 
BRANCH  18  21
ATOM      1 BR   UNL     1      -2.781 -13.627  12.555  0.00  0.00    -0.050 Br
ATOM     21  C   UNL     1      -3.713 -10.898  12.283  0.00  0.00    +0.014 A 
ATOM     24  C   UNL     1      -3.453 -12.105  11.635  0.00  0.00    +0.027 A 
ATOM     25  C   UNL     1      -4.207  -9.811  11.561  0.00  0.00    +0.011 A 
ATOM     27  C   UNL     1      -3.687 -12.227  10.265  0.00  0.00    +0.016 A 
ATOM     28  C   UNL     1      -4.440  -9.932  10.191  0.00  0.00    +0.001 A 
ATOM     31  C   UNL     1      -4.180 -11.140   9.543  0.00  0.00    +0.001 A 
ENDBRANCH  18  21
ENDBRANCH   9  16
BRANCH  10  15
ATOM     15  C   UNL     1      -6.959 -14.002  16.842  0.00  0.00    +0.123 C 
BRANCH  15   5
ATOM      2  O   UNL     1      -5.799 -14.912  14.377  0.00  0.00    -0.267 OA
ATOM      5  N   UNL     1      -7.180 -13.452  15.540  0.00  0.00    -0.307 N 
ATOM     20  C   UNL     1      -6.573 -13.958  14.391  0.00  0.00    +0.279 C 
ATOM     32  H   UNL     1      -7.799 -12.652  15.456  0.00  0.00    +0.149 HD
BRANCH  20  23
ATOM      3  O   UNL     1      -7.311 -11.970  13.190  0.00  0.00    -0.458 OA
ATOM     23  C   UNL     1      -6.884 -13.257  13.118  0.00  0.00    +0.189 A 
ATOM     26  C   UNL     1      -6.823 -13.674  11.809  0.00  0.00    +0.054 A 
ATOM     29  C   UNL     1      -7.238 -12.571  11.026  0.00  0.00    +0.042 A 
ATOM     30  C   UNL     1      -7.524 -11.559  11.913  0.00  0.00    +0.196 A 
ENDBRANCH  20  23
ENDBRANCH  15   5
ENDBRANCH  10  15
TORSDOF 5
ENDMDL
MODEL 9
REMARK VINA RESULT:      -6.7     27.271     30.553
REMARK  Name = 40777113
REMARK  6 active torsions:
REMARK  status: ('A' for Active; 'I' for Inactive)
REMARK    1  A    between atoms: N_5  and  C_15
REMARK    2  A    between atoms: C_9  and  C_16
REMARK    3  A    between atoms: C_10  and  C_15
REMARK    4  A    between atoms: C_18  and  C_21
REMARK    5  A    between atoms: C_19  and  C_22
REMARK    6  A    between atoms: C_20  and  C_23
REMARK                            x       y       z     vdW  Elec       q    Type
REMARK                         _______ _______ _______ _____ _____    ______ ____
ROOT
ATOM      4  N   UNL     1     -12.166   9.299  32.504  0.00  0.00    -0.297 NA
ATOM      8  C   UNL     1     -13.622   8.569  34.537  0.00  0.00    +0.002 C 
ATOM      9  C   UNL     1     -13.326   7.353  33.616  0.00  0.00    +0.055 C 
ATOM     10  C   UNL     1     -13.331  10.211  32.649  0.00  0.00    +0.074 C 
ATOM     11  C   UNL     1     -14.312   9.677  33.715  0.00  0.00    +0.024 C 
ATOM     12  C   UNL     1     -12.256   9.127  34.991  0.00  0.00    +0.019 C 
ATOM     13  C   UNL     1     -12.634   7.900  32.335  0.00  0.00    +0.094 C 
ATOM     14  C   UNL     1     -11.372   9.373  33.755  0.00  0.00    +0.085 C 
ENDROOT
BRANCH   9  16
ATOM      6  N   UNL     1     -15.635   6.616  33.936  0.00  0.00    -0.237 NA
ATOM      7  N   UNL     1     -16.554   4.725  32.758  0.00  0.00    -0.232 NA
ATOM     16  C   UNL     1     -14.468   6.401  33.294  0.00  0.00    +0.050 A 
ATOM     17  C   UNL     1     -14.270   5.383  32.382  0.00  0.00    +0.052 A 
ATOM     18  C   UNL     1     -15.358   4.568  32.152  0.00  0.00    +0.076 A 
ATOM     19  C   UNL     1     -16.622   5.752  33.625  0.00  0.00    +0.127 A 
ATOM     22  C   UNL     1     -17.927   5.955  34.317  0.00  0.00    +0.088 C 
BRANCH  18  21
ATOM      1 BR   UNL     1     -14.677   1.730  33.462  0.00  0.00    -0.050 Br
ATOM     21  C   UNL     1     -15.281   3.466  31.223  0.00  0.00    +0.014 A 
ATOM     24  C   UNL     1     -14.994   2.166  31.639  0.00  0.00    +0.027 A 
ATOM     25  C   UNL     1     -15.506   3.733  29.872  0.00  0.00    +0.011 A 
ATOM     27  C   UNL     1     -14.931   1.132  30.704  0.00  0.00    +0.016 A 
ATOM     28  C   UNL     1     -15.442   2.700  28.937  0.00  0.00    +0.001 A 
ATOM     31  C   UNL     1     -15.155   1.399  29.353  0.00  0.00    +0.001 A 
ENDBRANCH  18  21
ENDBRANCH   9  16
BRANCH  10  15
ATOM     15  C   UNL     1     -14.030  10.481  31.315  0.00  0.00    +0.123 C 
BRANCH  15   5
ATOM      2  O   UNL     1     -14.641  10.614  28.512  0.00  0.00    -0.267 OA
ATOM      5  N   UNL     1     -13.092  10.459  30.235  0.00  0.00    -0.307 N 
ATOM     20  C   UNL     1     -13.478  10.529  28.896  0.00  0.00    +0.279 C 
ATOM     32  H   UNL     1     -12.105  10.381  30.457  0.00  0.00    +0.149 HD
BRANCH  20  23
ATOM      3  O   UNL     1     -11.247   9.806  28.230  0.00  0.00    -0.458 OA
ATOM     23  C   UNL     1     -12.384  10.467  27.891  0.00  0.00    +0.189 A 
ATOM     26  C   UNL     1     -12.288  10.974  26.616  0.00  0.00    +0.054 A 
ATOM     29  C   UNL     1     -11.009  10.599  26.141  0.00  0.00    +0.042 A 
ATOM     30  C   UNL     1     -10.415   9.890  27.160  0.00  0.00    +0.196 A 
ENDBRANCH  20  23
ENDBRANCH  15   5
ENDBRANCH  10  15
TORSDOF 5
ENDMDL
MODEL 10
REMARK VINA RESULT:      -6.6     13.391     16.458
REMARK  Name = 40777113
REMARK  6 active torsions:
REMARK  status: ('A' for Active; 'I' for Inactive)
REMARK    1  A    between atoms: N_5  and  C_15
REMARK    2  A    between atoms: C_9  and  C_16
REMARK    3  A    between atoms: C_10  and  C_15
REMARK    4  A    between atoms: C_18  and  C_21
REMARK    5  A    between atoms: C_19  and  C_22
REMARK    6  A    between atoms: C_20  and  C_23
REMARK                            x       y       z     vdW  Elec       q    Type
REMARK                         _______ _______ _______ _____ _____    ______ ____
ROOT
ATOM      4  N   UNL     1      18.387  -2.913  22.860  0.00  0.00    -0.297 NA
ATOM      8  C   UNL     1      16.663  -2.279  24.707  0.00  0.00    +0.002 C 
ATOM      9  C   UNL     1      18.109  -1.969  25.183  0.00  0.00    +0.055 C 
ATOM     10  C   UNL     1      17.454  -4.047  23.096  0.00  0.00    +0.074 C 
ATOM     11  C   UNL     1      16.561  -3.770  24.324  0.00  0.00    +0.024 C 
ATOM     12  C   UNL     1      16.436  -1.463  23.416  0.00  0.00    +0.019 C 
ATOM     13  C   UNL     1      19.083  -2.557  24.122  0.00  0.00    +0.094 C 
ATOM     14  C   UNL     1      17.583  -1.745  22.429  0.00  0.00    +0.085 C 
ENDROOT
BRANCH   9  16
ATOM      6  N   UNL     1      19.818  -2.453  26.865  0.00  0.00    -0.237 NA
ATOM      7  N   UNL     1      19.256  -3.057  29.129  0.00  0.00    -0.232 NA
ATOM     16  C   UNL     1      18.498  -2.360  26.602  0.00  0.00    +0.050 A 
ATOM     17  C   UNL     1      17.511  -2.596  27.538  0.00  0.00    +0.052 A 
ATOM     18  C   UNL     1      17.953  -2.945  28.796  0.00  0.00    +0.076 A 
ATOM     19  C   UNL     1      20.122  -2.802  28.130  0.00  0.00    +0.127 A 
ATOM     22  C   UNL     1      21.572  -2.918  28.459  0.00  0.00    +0.088 C 
BRANCH  18  21
ATOM      1 BR   UNL     1      16.741  -5.906  28.815  0.00  0.00    -0.050 Br
ATOM     21  C   UNL     1      17.022  -3.220  29.865  0.00  0.00    +0.014 A 
ATOM     24  C   UNL     1      16.408  -4.465  30.009  0.00  0.00    +0.027 A 
ATOM     25  C   UNL     1      16.743  -2.195  30.769  0.00  0.00    +0.011 A 
ATOM     27  C   UNL     1      15.515  -4.684  31.059  0.00  0.00    +0.016 A 
ATOM     28  C   UNL     1      15.849  -2.415  31.817  0.00  0.00    +0.001 A 
ATOM     31  C   UNL     1      15.235  -3.660  31.962  0.00  0.00    +0.001 A 
ENDBRANCH  18  21
ENDBRANCH   9  16
BRANCH  10  15
ATOM     15  C   UNL     1      18.183  -5.387  23.212  0.00  0.00    +0.123 C 
BRANCH  15   5
ATOM      2  O   UNL     1      19.189  -7.638  24.686  0.00  0.00    -0.267 OA
ATOM      5  N   UNL     1      17.413  -6.323  23.972  0.00  0.00    -0.307 N 
ATOM     20  C   UNL     1      17.985  -7.393  24.661  0.00  0.00    +0.279 C 
ATOM     32  H   UNL     1      16.406  -6.205  24.000  0.00  0.00    +0.149 HD
BRANCH  20  23
ATOM      3  O   UNL     1      17.472  -9.545  25.683  0.00  0.00    -0.458 OA
ATOM     23  C   UNL     1      17.046  -8.291  25.381  0.00  0.00    +0.189 A 
ATOM     26  C   UNL     1      15.760  -8.096  25.827  0.00  0.00    +0.054 A 
ATOM     29  C   UNL     1      15.371  -9.309  26.444  0.00  0.00    +0.042 A 
ATOM     30  C   UNL     1      16.448 -10.159  26.331  0.00  0.00    +0.196 A 
ENDBRANCH  20  23
ENDBRANCH  15   5
ENDBRANCH  10  15
TORSDOF 5
ENDMDL
