MODEL 1
REMARK VINA RESULT:      -8.8      0.000      0.000
REMARK  Name = 11912770
REMARK  7 active torsions:
REMARK  status: ('A' for Active; 'I' for Inactive)
REMARK    1  A    between atoms: O_3  and  C_15
REMARK    2  A    between atoms: O_3  and  C_19
REMARK    3  A    between atoms: N_8  and  C_14
REMARK    4  A    between atoms: N_11  and  C_23
REMARK    5  A    between atoms: C_20  and  C_24
REMARK    6  A    between atoms: C_32  and  C_36
REMARK    7  A    between atoms: C_36  and  C_37
REMARK                            x       y       z     vdW  Elec       q    Type
REMARK                         _______ _______ _______ _____ _____    ______ ____
ROOT
ATOM      1  O   UNL     1     -11.598  -8.674  17.415  0.00  0.00    -0.368 OA
ATOM      2  O   UNL     1      -9.540  -8.404  15.156  0.00  0.00    -0.368 OA
ATOM     12  C   UNL     1      -9.382  -8.529  16.585  0.00  0.00    +0.173 C 
ATOM     13  C   UNL     1     -10.515  -7.750  17.223  0.00  0.00    +0.192 C 
ATOM     14  C   UNL     1      -9.636  -9.957  17.010  0.00  0.00    +0.130 C 
ATOM     15  C   UNL     1     -10.840  -6.721  16.166  0.00  0.00    +0.235 C 
ATOM     16  C   UNL     1     -11.151 -10.002  17.104  0.00  0.00    +0.185 C 
ATOM     17  C   UNL     1     -10.620  -7.497  14.887  0.00  0.00    +0.207 C 
ENDROOT
BRANCH  14   8
ATOM      8  N   UNL     1      -9.045 -10.207  18.307  0.00  0.00    -0.306 N 
ATOM      9  N   UNL     1      -6.920 -10.444  17.400  0.00  0.00    -0.214 NA
ATOM     10  N   UNL     1      -7.299 -10.662  19.769  0.00  0.00    -0.223 NA
ATOM     18  C   UNL     1      -7.696 -10.449  18.500  0.00  0.00    +0.216 A 
ATOM     20  C   UNL     1      -5.612 -10.683  17.623  0.00  0.00    +0.076 A 
ATOM     21  C   UNL     1      -5.978 -10.894  19.921  0.00  0.00    +0.116 A 
ATOM     22  C   UNL     1      -5.078 -10.916  18.874  0.00  0.00    +0.048 A 
ATOM     38  H   UNL     1      -9.625 -10.157  19.137  0.00  0.00    +0.149 HD
BRANCH  20  24
ATOM      5  O   UNL     1      -4.901 -10.377  12.791  0.00  0.00    -0.453 OA
ATOM      6  O   UNL     1      -2.517 -10.648  13.020  0.00  0.00    -0.453 OA
ATOM     24  C   UNL     1      -4.777 -10.678  16.446  0.00  0.00    +0.004 A 
ATOM     25  C   UNL     1      -5.356 -10.516  15.186  0.00  0.00    +0.059 A 
ATOM     28  C   UNL     1      -3.386 -10.837  16.579  0.00  0.00    +0.014 A 
ATOM     29  C   UNL     1      -4.518 -10.518  14.090  0.00  0.00    +0.167 A 
ATOM     30  C   UNL     1      -3.157 -10.674  14.220  0.00  0.00    +0.166 A 
ATOM     31  C   UNL     1      -2.560 -10.835  15.453  0.00  0.00    +0.050 A 
ATOM     35  C   UNL     1      -3.627 -10.460  12.119  0.00  0.00    +0.466 C 
ENDBRANCH  20  24
ENDBRANCH  14   8
BRANCH  15   3
ATOM      3  O   UNL     1     -12.151  -6.212  16.260  0.00  0.00    -0.442 OA
BRANCH   3  19
ATOM      4  O   UNL     1     -13.725  -6.819  14.717  0.00  0.00    -0.226 OA
ATOM     11  N   UNL     1     -12.381  -4.925  14.423  0.00  0.00    -0.251 N 
ATOM     19  C   UNL     1     -12.843  -6.050  15.079  0.00  0.00    +0.405 C 
ATOM     39  H   UNL     1     -11.637  -4.409  14.886  0.00  0.00    +0.158 HD
BRANCH  11  23
ATOM     23  C   UNL     1     -12.816  -4.399  13.185  0.00  0.00    +0.037 A 
ATOM     26  C   UNL     1     -11.985  -4.465  12.068  0.00  0.00    +0.034 A 
ATOM     27  C   UNL     1     -14.079  -3.814  13.082  0.00  0.00    +0.023 A 
ATOM     32  C   UNL     1     -12.415  -3.945  10.847  0.00  0.00    +0.019 A 
ATOM     33  C   UNL     1     -14.509  -3.294  11.861  0.00  0.00    +0.002 A 
ATOM     34  C   UNL     1     -13.677  -3.359  10.744  0.00  0.00    +0.011 A 
BRANCH  32  36
ATOM      7  O   UNL     1     -11.280  -2.998   9.008  0.00  0.00    -0.292 OA
ATOM     36  C   UNL     1     -11.548  -4.014   9.681  0.00  0.00    +0.160 C 
ATOM     37  C   UNL     1     -10.940  -5.345   9.253  0.00  0.00    +0.091 C 
ENDBRANCH  32  36
ENDBRANCH  11  23
ENDBRANCH   3  19
ENDBRANCH  15   3
TORSDOF 6
ENDMDL
MODEL 2
REMARK VINA RESULT:      -8.6      5.790      9.623
REMARK  Name = 11912770
REMARK  7 active torsions:
REMARK  status: ('A' for Active; 'I' for Inactive)
REMARK    1  A    between atoms: O_3  and  C_15
REMARK    2  A    between atoms: O_3  and  C_19
REMARK    3  A    between atoms: N_8  and  C_14
REMARK    4  A    between atoms: N_11  and  C_23
REMARK    5  A    between atoms: C_20  and  C_24
REMARK    6  A    between atoms: C_32  and  C_36
REMARK    7  A    between atoms: C_36  and  C_37
REMARK                            x       y       z     vdW  Elec       q    Type
REMARK                         _______ _______ _______ _____ _____    ______ ____
ROOT
ATOM      1  O   UNL     1      -5.254  -8.921  10.429  0.00  0.00    -0.368 OA
ATOM      2  O   UNL     1      -6.495 -11.699  10.823  0.00  0.00    -0.368 OA
ATOM     12  C   UNL     1      -5.134 -11.233  10.940  0.00  0.00    +0.173 C 
ATOM     13  C   UNL     1      -4.930 -10.197   9.853  0.00  0.00    +0.192 C 
ATOM     14  C   UNL     1      -4.963 -10.455  12.224  0.00  0.00    +0.130 C 
ATOM     15  C   UNL     1      -5.939 -10.612   8.810  0.00  0.00    +0.235 C 
ATOM     16  C   UNL     1      -5.475  -9.079  11.839  0.00  0.00    +0.185 C 
ATOM     17  C   UNL     1      -7.089 -11.106   9.659  0.00  0.00    +0.207 C 
ENDROOT
BRANCH  14   8
ATOM      8  N   UNL     1      -3.564 -10.388  12.587  0.00  0.00    -0.306 N 
ATOM      9  N   UNL     1      -4.038 -10.665  14.844  0.00  0.00    -0.214 NA
ATOM     10  N   UNL     1      -1.772 -10.412  14.064  0.00  0.00    -0.223 NA
ATOM     18  C   UNL     1      -3.104 -10.493  13.889  0.00  0.00    +0.216 A 
ATOM     20  C   UNL     1      -3.556 -10.763  16.100  0.00  0.00    +0.076 A 
ATOM     21  C   UNL     1      -1.359 -10.519  15.345  0.00  0.00    +0.116 A 
ATOM     22  C   UNL     1      -2.214 -10.697  16.413  0.00  0.00    +0.048 A 
ATOM     38  H   UNL     1      -2.863 -10.311  11.859  0.00  0.00    +0.149 HD
BRANCH  20  24
ATOM      5  O   UNL     1      -8.121 -10.469  17.840  0.00  0.00    -0.453 OA
ATOM      6  O   UNL     1      -7.485 -11.420  19.961  0.00  0.00    -0.453 OA
ATOM     24  C   UNL     1      -4.554 -10.949  17.126  0.00  0.00    +0.004 A 
ATOM     25  C   UNL     1      -5.877 -10.576  16.883  0.00  0.00    +0.059 A 
ATOM     28  C   UNL     1      -4.182 -11.503  18.364  0.00  0.00    +0.014 A 
ATOM     29  C   UNL     1      -6.795 -10.772  17.894  0.00  0.00    +0.167 A 
ATOM     30  C   UNL     1      -6.432 -11.314  19.106  0.00  0.00    +0.166 A 
ATOM     31  C   UNL     1      -5.131 -11.691  19.372  0.00  0.00    +0.050 A 
ATOM     35  C   UNL     1      -8.551 -10.884  19.153  0.00  0.00    +0.466 C 
ENDBRANCH  20  24
ENDBRANCH  14   8
BRANCH  15   3
ATOM      3  O   UNL     1      -6.325  -9.563   7.951  0.00  0.00    -0.442 OA
BRANCH   3  19
ATOM      4  O   UNL     1      -6.653  -9.021   5.754  0.00  0.00    -0.226 OA
ATOM     11  N   UNL     1      -5.559 -10.992   6.383  0.00  0.00    -0.251 N 
ATOM     19  C   UNL     1      -6.216  -9.795   6.596  0.00  0.00    +0.405 C 
ATOM     39  H   UNL     1      -5.269 -11.499   7.215  0.00  0.00    +0.158 HD
BRANCH  11  23
ATOM     23  C   UNL     1      -5.239 -11.603   5.149  0.00  0.00    +0.037 A 
ATOM     26  C   UNL     1      -3.947 -12.074   4.918  0.00  0.00    +0.034 A 
ATOM     27  C   UNL     1      -6.216 -11.734   4.162  0.00  0.00    +0.023 A 
ATOM     32  C   UNL     1      -3.632 -12.676   3.700  0.00  0.00    +0.019 A 
ATOM     33  C   UNL     1      -5.901 -12.336   2.944  0.00  0.00    +0.002 A 
ATOM     34  C   UNL     1      -4.609 -12.807   2.713  0.00  0.00    +0.011 A 
BRANCH  32  36
ATOM      7  O   UNL     1      -1.689 -12.936   2.387  0.00  0.00    -0.292 OA
ATOM     36  C   UNL     1      -2.285 -13.168   3.459  0.00  0.00    +0.160 C 
ATOM     37  C   UNL     1      -1.563 -13.987   4.524  0.00  0.00    +0.091 C 
ENDBRANCH  32  36
ENDBRANCH  11  23
ENDBRANCH   3  19
ENDBRANCH  15   3
TORSDOF 6
ENDMDL
MODEL 3
REMARK VINA RESULT:      -8.2      3.707      6.988
REMARK  Name = 11912770
REMARK  7 active torsions:
REMARK  status: ('A' for Active; 'I' for Inactive)
REMARK    1  A    between atoms: O_3  and  C_15
REMARK    2  A    between atoms: O_3  and  C_19
REMARK    3  A    between atoms: N_8  and  C_14
REMARK    4  A    between atoms: N_11  and  C_23
REMARK    5  A    between atoms: C_20  and  C_24
REMARK    6  A    between atoms: C_32  and  C_36
REMARK    7  A    between atoms: C_36  and  C_37
REMARK                            x       y       z     vdW  Elec       q    Type
REMARK                         _______ _______ _______ _____ _____    ______ ____
ROOT
ATOM      1  O   UNL     1      -4.695  -8.995  10.087  0.00  0.00    -0.368 OA
ATOM      2  O   UNL     1      -6.088 -11.697  10.499  0.00  0.00    -0.368 OA
ATOM     12  C   UNL     1      -4.721 -11.282  10.710  0.00  0.00    +0.173 C 
ATOM     13  C   UNL     1      -4.382 -10.309   9.599  0.00  0.00    +0.192 C 
ATOM     14  C   UNL     1      -4.621 -10.451  11.967  0.00  0.00    +0.130 C 
ATOM     15  C   UNL     1      -5.321 -10.733   8.494  0.00  0.00    +0.235 C 
ATOM     16  C   UNL     1      -5.038  -9.075  11.479  0.00  0.00    +0.185 C 
ATOM     17  C   UNL     1      -6.558 -11.137   9.264  0.00  0.00    +0.207 C 
ENDROOT
BRANCH  14   8
ATOM      8  N   UNL     1      -3.256 -10.423  12.443  0.00  0.00    -0.306 N 
ATOM      9  N   UNL     1      -3.923 -10.606  14.660  0.00  0.00    -0.214 NA
ATOM     10  N   UNL     1      -1.593 -10.464  14.064  0.00  0.00    -0.223 NA
ATOM     18  C   UNL     1      -2.909 -10.501  13.781  0.00  0.00    +0.216 A 
ATOM     20  C   UNL     1      -3.551 -10.679  15.954  0.00  0.00    +0.076 A 
ATOM     21  C   UNL     1      -1.291 -10.543  15.377  0.00  0.00    +0.116 A 
ATOM     22  C   UNL     1      -2.237 -10.653  16.376  0.00  0.00    +0.048 A 
ATOM     38  H   UNL     1      -2.495 -10.397  11.773  0.00  0.00    +0.149 HD
BRANCH  20  24
ATOM      5  O   UNL     1      -8.222 -10.136  17.306  0.00  0.00    -0.453 OA
ATOM      6  O   UNL     1      -7.805 -11.057  19.494  0.00  0.00    -0.453 OA
ATOM     24  C   UNL     1      -4.635 -10.792  16.899  0.00  0.00    +0.004 A 
ATOM     25  C   UNL     1      -5.916 -10.368  16.539  0.00  0.00    +0.059 A 
ATOM     28  C   UNL     1      -4.392 -11.330  18.176  0.00  0.00    +0.014 A 
ATOM     29  C   UNL     1      -6.921 -10.496  17.477  0.00  0.00    +0.167 A 
ATOM     30  C   UNL     1      -6.683 -11.021  18.726  0.00  0.00    +0.166 A 
ATOM     31  C   UNL     1      -5.427 -11.448  19.106  0.00  0.00    +0.050 A 
ATOM     35  C   UNL     1      -8.777 -10.495  18.589  0.00  0.00    +0.466 C 
ENDBRANCH  20  24
ENDBRANCH  14   8
BRANCH  15   3
ATOM      3  O   UNL     1      -5.587  -9.712   7.559  0.00  0.00    -0.442 OA
BRANCH   3  19
ATOM      4  O   UNL     1      -7.733  -9.775   6.771  0.00  0.00    -0.226 OA
ATOM     11  N   UNL     1      -7.041  -8.168   8.326  0.00  0.00    -0.251 N 
ATOM     19  C   UNL     1      -6.886  -9.255   7.487  0.00  0.00    +0.405 C 
ATOM     39  H   UNL     1      -6.216  -7.881   8.846  0.00  0.00    +0.158 HD
BRANCH  11  23
ATOM     23  C   UNL     1      -8.208  -7.403   8.554  0.00  0.00    +0.037 A 
ATOM     26  C   UNL     1      -9.306  -7.979   9.193  0.00  0.00    +0.034 A 
ATOM     27  C   UNL     1      -8.261  -6.072   8.140  0.00  0.00    +0.023 A 
ATOM     32  C   UNL     1     -10.457  -7.223   9.417  0.00  0.00    +0.019 A 
ATOM     33  C   UNL     1      -9.411  -5.317   8.365  0.00  0.00    +0.002 A 
ATOM     34  C   UNL     1     -10.509  -5.892   9.003  0.00  0.00    +0.011 A 
BRANCH  32  36
ATOM      7  O   UNL     1     -11.838  -9.045  10.000  0.00  0.00    -0.292 OA
ATOM     36  C   UNL     1     -11.601  -7.823  10.085  0.00  0.00    +0.160 C 
ATOM     37  C   UNL     1     -12.547  -6.960  10.913  0.00  0.00    +0.091 C 
ENDBRANCH  32  36
ENDBRANCH  11  23
ENDBRANCH   3  19
ENDBRANCH  15   3
TORSDOF 6
ENDMDL
MODEL 4
REMARK VINA RESULT:      -8.0      1.845      2.255
REMARK  Name = 11912770
REMARK  7 active torsions:
REMARK  status: ('A' for Active; 'I' for Inactive)
REMARK    1  A    between atoms: O_3  and  C_15
REMARK    2  A    between atoms: O_3  and  C_19
REMARK    3  A    between atoms: N_8  and  C_14
REMARK    4  A    between atoms: N_11  and  C_23
REMARK    5  A    between atoms: C_20  and  C_24
REMARK    6  A    between atoms: C_32  and  C_36
REMARK    7  A    between atoms: C_36  and  C_37
REMARK                            x       y       z     vdW  Elec       q    Type
REMARK                         _______ _______ _______ _____ _____    ______ ____
ROOT
ATOM      1  O   UNL     1     -10.855  -9.976  16.544  0.00  0.00    -0.368 OA
ATOM      2  O   UNL     1      -9.849  -7.090  16.278  0.00  0.00    -0.368 OA
ATOM     12  C   UNL     1      -9.762  -8.038  17.363  0.00  0.00    +0.173 C 
ATOM     13  C   UNL     1     -11.062  -8.818  17.369  0.00  0.00    +0.192 C 
ATOM     14  C   UNL     1      -8.712  -9.080  17.057  0.00  0.00    +0.130 C 
ATOM     15  C   UNL     1     -12.030  -7.847  16.736  0.00  0.00    +0.235 C 
ATOM     16  C   UNL     1      -9.470 -10.054  16.173  0.00  0.00    +0.185 C 
ATOM     17  C   UNL     1     -11.163  -7.159  15.706  0.00  0.00    +0.207 C 
ENDROOT
BRANCH  14   8
ATOM      8  N   UNL     1      -8.284  -9.734  18.274  0.00  0.00    -0.306 N 
ATOM      9  N   UNL     1      -6.204 -10.249  17.380  0.00  0.00    -0.214 NA
ATOM     10  N   UNL     1      -6.788 -10.883  19.630  0.00  0.00    -0.223 NA
ATOM     18  C   UNL     1      -7.037 -10.314  18.435  0.00  0.00    +0.216 A 
ATOM     20  C   UNL     1      -4.999 -10.824  17.570  0.00  0.00    +0.076 A 
ATOM     21  C   UNL     1      -5.564 -11.438  19.752  0.00  0.00    +0.116 A 
ATOM     22  C   UNL     1      -4.619 -11.439  18.745  0.00  0.00    +0.048 A 
ATOM     38  H   UNL     1      -8.897  -9.733  19.082  0.00  0.00    +0.149 HD
BRANCH  20  24
ATOM      5  O   UNL     1      -4.042 -10.494  12.782  0.00  0.00    -0.453 OA
ATOM      6  O   UNL     1      -1.660 -10.556  13.147  0.00  0.00    -0.453 OA
ATOM     24  C   UNL     1      -4.102 -10.756  16.441  0.00  0.00    +0.004 A 
ATOM     25  C   UNL     1      -4.620 -10.654  15.149  0.00  0.00    +0.059 A 
ATOM     28  C   UNL     1      -2.712 -10.792  16.655  0.00  0.00    +0.014 A 
ATOM     29  C   UNL     1      -3.723 -10.592  14.102  0.00  0.00    +0.167 A 
ATOM     30  C   UNL     1      -2.363 -10.628  14.310  0.00  0.00    +0.166 A 
ATOM     31  C   UNL     1      -1.826 -10.728  15.577  0.00  0.00    +0.050 A 
ATOM     35  C   UNL     1      -2.729 -10.472  12.184  0.00  0.00    +0.466 C 
ENDBRANCH  20  24
ENDBRANCH  14   8
BRANCH  15   3
ATOM      3  O   UNL     1     -13.153  -8.469  16.155  0.00  0.00    -0.442 OA
BRANCH   3  19
ATOM      4  O   UNL     1     -14.920  -7.018  16.191  0.00  0.00    -0.226 OA
ATOM     11  N   UNL     1     -13.898  -7.661  14.186  0.00  0.00    -0.251 N 
ATOM     19  C   UNL     1     -14.082  -7.646  15.555  0.00  0.00    +0.405 C 
ATOM     39  H   UNL     1     -13.143  -8.248  13.841  0.00  0.00    +0.158 HD
BRANCH  11  23
ATOM     23  C   UNL     1     -14.630  -6.960  13.201  0.00  0.00    +0.037 A 
ATOM     26  C   UNL     1     -14.374  -5.608  12.972  0.00  0.00    +0.034 A 
ATOM     27  C   UNL     1     -15.608  -7.620  12.457  0.00  0.00    +0.023 A 
ATOM     32  C   UNL     1     -15.097  -4.917  12.000  0.00  0.00    +0.019 A 
ATOM     33  C   UNL     1     -16.330  -6.929  11.485  0.00  0.00    +0.002 A 
ATOM     34  C   UNL     1     -16.075  -5.578  11.256  0.00  0.00    +0.011 A 
BRANCH  32  36
ATOM      7  O   UNL     1     -13.897  -2.914  12.339  0.00  0.00    -0.292 OA
ATOM     36  C   UNL     1     -14.830  -3.508  11.760  0.00  0.00    +0.160 C 
ATOM     37  C   UNL     1     -15.694  -2.716  10.784  0.00  0.00    +0.091 C 
ENDBRANCH  32  36
ENDBRANCH  11  23
ENDBRANCH   3  19
ENDBRANCH  15   3
TORSDOF 6
ENDMDL
MODEL 5
REMARK VINA RESULT:      -7.9     16.581     19.630
REMARK  Name = 11912770
REMARK  7 active torsions:
REMARK  status: ('A' for Active; 'I' for Inactive)
REMARK    1  A    between atoms: O_3  and  C_15
REMARK    2  A    between atoms: O_3  and  C_19
REMARK    3  A    between atoms: N_8  and  C_14
REMARK    4  A    between atoms: N_11  and  C_23
REMARK    5  A    between atoms: C_20  and  C_24
REMARK    6  A    between atoms: C_32  and  C_36
REMARK    7  A    between atoms: C_36  and  C_37
REMARK                            x       y       z     vdW  Elec       q    Type
REMARK                         _______ _______ _______ _____ _____    ______ ____
ROOT
ATOM      1  O   UNL     1     -16.179   5.972  24.156  0.00  0.00    -0.368 OA
ATOM      2  O   UNL     1     -16.007   3.095  23.106  0.00  0.00    -0.368 OA
ATOM     12  C   UNL     1     -16.933   4.165  22.819  0.00  0.00    +0.173 C 
ATOM     13  C   UNL     1     -17.151   4.915  24.118  0.00  0.00    +0.192 C 
ATOM     14  C   UNL     1     -16.281   5.184  21.914  0.00  0.00    +0.130 C 
ATOM     15  C   UNL     1     -16.868   3.859  25.159  0.00  0.00    +0.235 C 
ATOM     16  C   UNL     1     -15.494   6.034  22.896  0.00  0.00    +0.185 C 
ATOM     17  C   UNL     1     -15.748   3.071  24.517  0.00  0.00    +0.207 C 
ENDROOT
BRANCH  14   8
ATOM      8  N   UNL     1     -17.288   5.984  21.252  0.00  0.00    -0.306 N 
ATOM      9  N   UNL     1     -15.720   6.974  19.854  0.00  0.00    -0.214 NA
ATOM     10  N   UNL     1     -18.058   7.543  19.712  0.00  0.00    -0.223 NA
ATOM     18  C   UNL     1     -17.010   6.873  20.228  0.00  0.00    +0.216 A 
ATOM     20  C   UNL     1     -15.484   7.848  18.854  0.00  0.00    +0.076 A 
ATOM     21  C   UNL     1     -17.750   8.400  18.716  0.00  0.00    +0.116 A 
ATOM     22  C   UNL     1     -16.468   8.595  18.241  0.00  0.00    +0.048 A 
ATOM     38  H   UNL     1     -18.263   5.865  21.503  0.00  0.00    +0.149 HD
BRANCH  20  24
ATOM      5  O   UNL     1     -11.967   8.799  15.587  0.00  0.00    -0.453 OA
ATOM      6  O   UNL     1     -10.218   8.307  17.171  0.00  0.00    -0.453 OA
ATOM     24  C   UNL     1     -14.103   7.958  18.449  0.00  0.00    +0.004 A 
ATOM     25  C   UNL     1     -13.792   8.348  17.145  0.00  0.00    +0.059 A 
ATOM     28  C   UNL     1     -13.083   7.671  19.373  0.00  0.00    +0.014 A 
ATOM     29  C   UNL     1     -12.458   8.439  16.804  0.00  0.00    +0.167 A 
ATOM     30  C   UNL     1     -11.459   8.158  17.708  0.00  0.00    +0.166 A 
ATOM     31  C   UNL     1     -11.740   7.771  19.003  0.00  0.00    +0.050 A 
ATOM     35  C   UNL     1     -10.547   8.714  15.827  0.00  0.00    +0.466 C 
ENDBRANCH  20  24
ENDBRANCH  14   8
BRANCH  15   3
ATOM      3  O   UNL     1     -16.496   4.387  26.412  0.00  0.00    -0.442 OA
BRANCH   3  19
ATOM      4  O   UNL     1     -17.849   3.299  27.899  0.00  0.00    -0.226 OA
ATOM     11  N   UNL     1     -15.516   3.217  28.072  0.00  0.00    -0.251 N 
ATOM     19  C   UNL     1     -16.724   3.594  27.516  0.00  0.00    +0.405 C 
ATOM     39  H   UNL     1     -14.681   3.563  27.608  0.00  0.00    +0.158 HD
BRANCH  11  23
ATOM     23  C   UNL     1     -15.296   2.407  29.209  0.00  0.00    +0.037 A 
ATOM     26  C   UNL     1     -14.979   2.993  30.434  0.00  0.00    +0.034 A 
ATOM     27  C   UNL     1     -15.398   1.019  29.106  0.00  0.00    +0.023 A 
ATOM     32  C   UNL     1     -14.762   2.193  31.555  0.00  0.00    +0.019 A 
ATOM     33  C   UNL     1     -15.182   0.219  30.228  0.00  0.00    +0.002 A 
ATOM     34  C   UNL     1     -14.863   0.805  31.452  0.00  0.00    +0.011 A 
BRANCH  32  36
ATOM      7  O   UNL     1     -14.608   2.200  33.909  0.00  0.00    -0.292 OA
ATOM     36  C   UNL     1     -14.431   2.805  32.832  0.00  0.00    +0.160 C 
ATOM     37  C   UNL     1     -13.852   4.214  32.883  0.00  0.00    +0.091 C 
ENDBRANCH  32  36
ENDBRANCH  11  23
ENDBRANCH   3  19
ENDBRANCH  15   3
TORSDOF 6
ENDMDL
MODEL 6
REMARK VINA RESULT:      -7.9     20.425     22.977
REMARK  Name = 11912770
REMARK  7 active torsions:
REMARK  status: ('A' for Active; 'I' for Inactive)
REMARK    1  A    between atoms: O_3  and  C_15
REMARK    2  A    between atoms: O_3  and  C_19
REMARK    3  A    between atoms: N_8  and  C_14
REMARK    4  A    between atoms: N_11  and  C_23
REMARK    5  A    between atoms: C_20  and  C_24
REMARK    6  A    between atoms: C_32  and  C_36
REMARK    7  A    between atoms: C_36  and  C_37
REMARK                            x       y       z     vdW  Elec       q    Type
REMARK                         _______ _______ _______ _____ _____    ______ ____
ROOT
ATOM      1  O   UNL     1     -16.159   3.503  32.477  0.00  0.00    -0.368 OA
ATOM      2  O   UNL     1     -13.092   3.466  32.415  0.00  0.00    -0.368 OA
ATOM     12  C   UNL     1     -14.044   4.486  32.047  0.00  0.00    +0.173 C 
ATOM     13  C   UNL     1     -15.226   3.776  31.418  0.00  0.00    +0.192 C 
ATOM     14  C   UNL     1     -14.621   5.127  33.287  0.00  0.00    +0.130 C 
ATOM     15  C   UNL     1     -14.602   2.509  30.884  0.00  0.00    +0.235 C 
ATOM     16  C   UNL     1     -15.714   4.149  33.680  0.00  0.00    +0.185 C 
ATOM     17  C   UNL     1     -13.563   2.197  31.938  0.00  0.00    +0.207 C 
ENDROOT
BRANCH  14   8
ATOM      8  N   UNL     1     -15.192   6.417  32.967  0.00  0.00    -0.306 N 
ATOM      9  N   UNL     1     -13.593   7.544  34.218  0.00  0.00    -0.214 NA
ATOM     10  N   UNL     1     -15.325   8.735  33.039  0.00  0.00    -0.223 NA
ATOM     18  C   UNL     1     -14.681   7.617  33.428  0.00  0.00    +0.216 A 
ATOM     20  C   UNL     1     -13.121   8.731  34.650  0.00  0.00    +0.076 A 
ATOM     21  C   UNL     1     -14.799   9.886  33.507  0.00  0.00    +0.116 A 
ATOM     22  C   UNL     1     -13.688   9.945  34.324  0.00  0.00    +0.048 A 
ATOM     38  H   UNL     1     -15.979   6.468  32.330  0.00  0.00    +0.149 HD
BRANCH  20  24
ATOM      5  O   UNL     1      -8.617  10.100  35.987  0.00  0.00    -0.453 OA
ATOM      6  O   UNL     1      -8.574   8.540  37.823  0.00  0.00    -0.453 OA
ATOM     24  C   UNL     1     -11.954   8.656  35.496  0.00  0.00    +0.004 A 
ATOM     25  C   UNL     1     -10.860   9.487  35.244  0.00  0.00    +0.059 A 
ATOM     28  C   UNL     1     -11.929   7.745  36.567  0.00  0.00    +0.014 A 
ATOM     29  C   UNL     1      -9.767   9.379  36.079  0.00  0.00    +0.167 A 
ATOM     30  C   UNL     1      -9.742   8.487  37.127  0.00  0.00    +0.166 A 
ATOM     31  C   UNL     1     -10.810   7.655  37.398  0.00  0.00    +0.050 A 
ATOM     35  C   UNL     1      -7.866   9.563  37.096  0.00  0.00    +0.466 C 
ENDBRANCH  20  24
ENDBRANCH  14   8
BRANCH  15   3
ATOM      3  O   UNL     1     -15.522   1.455  30.716  0.00  0.00    -0.442 OA
BRANCH   3  19
ATOM      4  O   UNL     1     -15.063  -0.017  29.027  0.00  0.00    -0.226 OA
ATOM     11  N   UNL     1     -16.601   1.726  28.755  0.00  0.00    -0.251 N 
ATOM     19  C   UNL     1     -15.677   0.959  29.439  0.00  0.00    +0.405 C 
ATOM     39  H   UNL     1     -17.009   2.502  29.269  0.00  0.00    +0.158 HD
BRANCH  11  23
ATOM     23  C   UNL     1     -17.053   1.565  27.425  0.00  0.00    +0.037 A 
ATOM     26  C   UNL     1     -16.476   2.310  26.397  0.00  0.00    +0.034 A 
ATOM     27  C   UNL     1     -18.075   0.659  27.141  0.00  0.00    +0.023 A 
ATOM     32  C   UNL     1     -16.922   2.150  25.085  0.00  0.00    +0.019 A 
ATOM     33  C   UNL     1     -18.521   0.499  25.829  0.00  0.00    +0.002 A 
ATOM     34  C   UNL     1     -17.945   1.245  24.801  0.00  0.00    +0.011 A 
BRANCH  32  36
ATOM      7  O   UNL     1     -16.426   2.579  22.819  0.00  0.00    -0.292 OA
ATOM     36  C   UNL     1     -16.321   2.927  24.013  0.00  0.00    +0.160 C 
ATOM     37  C   UNL     1     -15.542   4.200  24.328  0.00  0.00    +0.091 C 
ENDBRANCH  32  36
ENDBRANCH  11  23
ENDBRANCH   3  19
ENDBRANCH  15   3
TORSDOF 6
ENDMDL
MODEL 7
REMARK VINA RESULT:      -7.6     29.443     32.859
REMARK  Name = 11912770
REMARK  7 active torsions:
REMARK  status: ('A' for Active; 'I' for Inactive)
REMARK    1  A    between atoms: O_3  and  C_15
REMARK    2  A    between atoms: O_3  and  C_19
REMARK    3  A    between atoms: N_8  and  C_14
REMARK    4  A    between atoms: N_11  and  C_23
REMARK    5  A    between atoms: C_20  and  C_24
REMARK    6  A    between atoms: C_32  and  C_36
REMARK    7  A    between atoms: C_36  and  C_37
REMARK                            x       y       z     vdW  Elec       q    Type
REMARK                         _______ _______ _______ _____ _____    ______ ____
ROOT
ATOM      1  O   UNL     1      21.463   8.193  21.038  0.00  0.00    -0.368 OA
ATOM      2  O   UNL     1      20.438   5.926  22.833  0.00  0.00    -0.368 OA
ATOM     12  C   UNL     1      21.153   5.906  21.579  0.00  0.00    +0.173 C 
ATOM     13  C   UNL     1      20.624   7.062  20.754  0.00  0.00    +0.192 C 
ATOM     14  C   UNL     1      22.605   6.252  21.805  0.00  0.00    +0.130 C 
ATOM     15  C   UNL     1      19.231   7.249  21.305  0.00  0.00    +0.235 C 
ATOM     16  C   UNL     1      22.574   7.770  21.844  0.00  0.00    +0.185 C 
ATOM     17  C   UNL     1      19.425   6.941  22.773  0.00  0.00    +0.207 C 
ENDROOT
BRANCH  14   8
ATOM      8  N   UNL     1      23.410   5.794  20.694  0.00  0.00    -0.306 N 
ATOM      9  N   UNL     1      23.859   3.765  21.731  0.00  0.00    -0.214 NA
ATOM     10  N   UNL     1      24.746   4.277  19.550  0.00  0.00    -0.223 NA
ATOM     18  C   UNL     1      24.033   4.558  20.657  0.00  0.00    +0.216 A 
ATOM     20  C   UNL     1      24.479   2.570  21.662  0.00  0.00    +0.076 A 
ATOM     21  C   UNL     1      25.338   3.065  19.547  0.00  0.00    +0.116 A 
ATOM     22  C   UNL     1      25.239   2.161  20.586  0.00  0.00    +0.048 A 
ATOM     38  H   UNL     1      23.493   6.374  19.867  0.00  0.00    +0.149 HD
BRANCH  20  24
ATOM      5  O   UNL     1      22.002   1.034  25.594  0.00  0.00    -0.453 OA
ATOM      6  O   UNL     1      23.654  -0.643  26.109  0.00  0.00    -0.453 OA
ATOM     24  C   UNL     1      24.295   1.716  22.812  0.00  0.00    +0.004 A 
ATOM     25  C   UNL     1      23.163   1.869  23.615  0.00  0.00    +0.059 A 
ATOM     28  C   UNL     1      25.260   0.738  23.113  0.00  0.00    +0.014 A 
ATOM     29  C   UNL     1      23.031   1.031  24.703  0.00  0.00    +0.167 A 
ATOM     30  C   UNL     1      23.975   0.073  24.998  0.00  0.00    +0.166 A 
ATOM     31  C   UNL     1      25.102  -0.098  24.220  0.00  0.00    +0.050 A 
ATOM     35  C   UNL     1      22.404  -0.029  26.482  0.00  0.00    +0.466 C 
ENDBRANCH  20  24
ENDBRANCH  14   8
BRANCH  15   3
ATOM      3  O   UNL     1      18.711   8.542  21.098  0.00  0.00    -0.442 OA
BRANCH   3  19
ATOM      4  O   UNL     1      16.753   9.497  21.793  0.00  0.00    -0.226 OA
ATOM     11  N   UNL     1      16.784   7.750  20.236  0.00  0.00    -0.251 N 
ATOM     19  C   UNL     1      17.338   8.671  21.103  0.00  0.00    +0.405 C 
ATOM     39  H   UNL     1      17.437   7.144  19.747  0.00  0.00    +0.158 HD
BRANCH  11  23
ATOM     23  C   UNL     1      15.417   7.544  19.942  0.00  0.00    +0.037 A 
ATOM     26  C   UNL     1      14.896   7.962  18.717  0.00  0.00    +0.034 A 
ATOM     27  C   UNL     1      14.589   6.922  20.876  0.00  0.00    +0.023 A 
ATOM     32  C   UNL     1      13.546   7.759  18.428  0.00  0.00    +0.019 A 
ATOM     33  C   UNL     1      13.240   6.718  20.586  0.00  0.00    +0.002 A 
ATOM     34  C   UNL     1      12.718   7.137  19.363  0.00  0.00    +0.011 A 
BRANCH  32  36
ATOM      7  O   UNL     1      13.658   8.086  16.094  0.00  0.00    -0.292 OA
ATOM     36  C   UNL     1      13.003   8.194  17.151  0.00  0.00    +0.160 C 
ATOM     37  C   UNL     1      11.604   8.796  17.076  0.00  0.00    +0.091 C 
ENDBRANCH  32  36
ENDBRANCH  11  23
ENDBRANCH   3  19
ENDBRANCH  15   3
TORSDOF 6
ENDMDL
MODEL 8
REMARK VINA RESULT:      -7.6     29.417     32.052
REMARK  Name = 11912770
REMARK  7 active torsions:
REMARK  status: ('A' for Active; 'I' for Inactive)
REMARK    1  A    between atoms: O_3  and  C_15
REMARK    2  A    between atoms: O_3  and  C_19
REMARK    3  A    between atoms: N_8  and  C_14
REMARK    4  A    between atoms: N_11  and  C_23
REMARK    5  A    between atoms: C_20  and  C_24
REMARK    6  A    between atoms: C_32  and  C_36
REMARK    7  A    between atoms: C_36  and  C_37
REMARK                            x       y       z     vdW  Elec       q    Type
REMARK                         _______ _______ _______ _____ _____    ______ ____
ROOT
ATOM      1  O   UNL     1      11.089  13.059  24.358  0.00  0.00    -0.368 OA
ATOM      2  O   UNL     1      13.922  12.284  23.472  0.00  0.00    -0.368 OA
ATOM     12  C   UNL     1      12.746  11.486  23.725  0.00  0.00    +0.173 C 
ATOM     13  C   UNL     1      12.030  12.120  24.901  0.00  0.00    +0.192 C 
ATOM     14  C   UNL     1      11.768  11.629  22.583  0.00  0.00    +0.130 C 
ATOM     15  C   UNL     1      13.154  12.816  25.633  0.00  0.00    +0.235 C 
ATOM     16  C   UNL     1      11.051  12.921  22.929  0.00  0.00    +0.185 C 
ATOM     17  C   UNL     1      14.032  13.285  24.495  0.00  0.00    +0.207 C 
ENDROOT
BRANCH  14   8
ATOM      8  N   UNL     1      10.836  10.522  22.578  0.00  0.00    -0.306 N 
ATOM      9  N   UNL     1      12.471   9.022  21.894  0.00  0.00    -0.214 NA
ATOM     10  N   UNL     1      10.202   8.307  22.284  0.00  0.00    -0.223 NA
ATOM     18  C   UNL     1      11.185   9.227  22.237  0.00  0.00    +0.216 A 
ATOM     20  C   UNL     1      12.776   7.750  21.566  0.00  0.00    +0.076 A 
ATOM     21  C   UNL     1      10.578   7.056  21.946  0.00  0.00    +0.116 A 
ATOM     22  C   UNL     1      11.863   6.715  21.575  0.00  0.00    +0.048 A 
ATOM     38  H   UNL     1       9.883  10.674  22.889  0.00  0.00    +0.149 HD
BRANCH  20  24
ATOM      5  O   UNL     1      16.272   5.699  18.823  0.00  0.00    -0.453 OA
ATOM      6  O   UNL     1      18.028   6.799  20.053  0.00  0.00    -0.453 OA
ATOM     24  C   UNL     1      14.154   7.525  21.199  0.00  0.00    +0.004 A 
ATOM     25  C   UNL     1      14.458   6.673  20.134  0.00  0.00    +0.059 A 
ATOM     28  C   UNL     1      15.179   8.167  21.917  0.00  0.00    +0.014 A 
ATOM     29  C   UNL     1      15.788   6.489  19.820  0.00  0.00    +0.167 A 
ATOM     30  C   UNL     1      16.792   7.117  20.523  0.00  0.00    +0.166 A 
ATOM     31  C   UNL     1      16.518   7.963  21.578  0.00  0.00    +0.050 A 
ATOM     35  C   UNL     1      17.692   5.901  18.977  0.00  0.00    +0.466 C 
ENDBRANCH  20  24
ENDBRANCH  14   8
BRANCH  15   3
ATOM      3  O   UNL     1      12.721  13.883  26.445  0.00  0.00    -0.442 OA
BRANCH   3  19
ATOM      4  O   UNL     1      13.613  15.284  28.017  0.00  0.00    -0.226 OA
ATOM     11  N   UNL     1      13.991  12.975  28.072  0.00  0.00    -0.251 N 
ATOM     19  C   UNL     1      13.469  14.152  27.572  0.00  0.00    +0.405 C 
ATOM     39  H   UNL     1      13.758  12.127  27.561  0.00  0.00    +0.158 HD
BRANCH  11  23
ATOM     23  C   UNL     1      14.811  12.800  29.210  0.00  0.00    +0.037 A 
ATOM     26  C   UNL     1      14.236  12.718  30.478  0.00  0.00    +0.034 A 
ATOM     27  C   UNL     1      16.195  12.709  29.065  0.00  0.00    +0.023 A 
ATOM     32  C   UNL     1      15.046  12.546  31.601  0.00  0.00    +0.019 A 
ATOM     33  C   UNL     1      17.005  12.536  30.187  0.00  0.00    +0.002 A 
ATOM     34  C   UNL     1      16.430  12.455  31.456  0.00  0.00    +0.011 A 
BRANCH  32  36
ATOM      7  O   UNL     1      15.147  12.449  33.956  0.00  0.00    -0.292 OA
ATOM     36  C   UNL     1      14.447  12.459  32.923  0.00  0.00    +0.160 C 
ATOM     37  C   UNL     1      12.932  12.381  33.078  0.00  0.00    +0.091 C 
ENDBRANCH  32  36
ENDBRANCH  11  23
ENDBRANCH   3  19
ENDBRANCH  15   3
TORSDOF 6
ENDMDL
MODEL 9
REMARK VINA RESULT:      -7.5      5.526     10.851
REMARK  Name = 11912770
REMARK  7 active torsions:
REMARK  status: ('A' for Active; 'I' for Inactive)
REMARK    1  A    between atoms: O_3  and  C_15
REMARK    2  A    between atoms: O_3  and  C_19
REMARK    3  A    between atoms: N_8  and  C_14
REMARK    4  A    between atoms: N_11  and  C_23
REMARK    5  A    between atoms: C_20  and  C_24
REMARK    6  A    between atoms: C_32  and  C_36
REMARK    7  A    between atoms: C_36  and  C_37
REMARK                            x       y       z     vdW  Elec       q    Type
REMARK                         _______ _______ _______ _____ _____    ______ ____
ROOT
ATOM      1  O   UNL     1      -3.358 -10.723  12.648  0.00  0.00    -0.368 OA
ATOM      2  O   UNL     1      -3.213 -13.231  10.887  0.00  0.00    -0.368 OA
ATOM     12  C   UNL     1      -4.207 -12.190  10.990  0.00  0.00    +0.173 C 
ATOM     13  C   UNL     1      -4.286 -11.802  12.453  0.00  0.00    +0.192 C 
ATOM     14  C   UNL     1      -3.716 -10.936  10.306  0.00  0.00    +0.130 C 
ATOM     15  C   UNL     1      -3.832 -13.061  13.152  0.00  0.00    +0.235 C 
ATOM     16  C   UNL     1      -2.842 -10.304  11.374  0.00  0.00    +0.185 C 
ATOM     17  C   UNL     1      -2.774 -13.586  12.207  0.00  0.00    +0.207 C 
ENDROOT
BRANCH  14   8
ATOM      8  N   UNL     1      -4.829 -10.068   9.988  0.00  0.00    -0.306 N 
ATOM      9  N   UNL     1      -4.870 -10.769   7.775  0.00  0.00    -0.214 NA
ATOM     10  N   UNL     1      -6.435  -9.131   8.597  0.00  0.00    -0.223 NA
ATOM     18  C   UNL     1      -5.403  -9.986   8.732  0.00  0.00    +0.216 A 
ATOM     20  C   UNL     1      -5.452 -10.664   6.563  0.00  0.00    +0.076 A 
ATOM     21  C   UNL     1      -6.970  -9.077   7.359  0.00  0.00    +0.116 A 
ATOM     22  C   UNL     1      -6.516  -9.828   6.293  0.00  0.00    +0.048 A 
ATOM     38  H   UNL     1      -5.259  -9.521  10.726  0.00  0.00    +0.149 HD
BRANCH  20  24
ATOM      5  O   UNL     1      -2.003 -13.650   4.792  0.00  0.00    -0.453 OA
ATOM      6  O   UNL     1      -3.161 -13.913   2.694  0.00  0.00    -0.453 OA
ATOM     24  C   UNL     1      -4.884 -11.503   5.535  0.00  0.00    +0.004 A 
ATOM     25  C   UNL     1      -3.670 -12.154   5.763  0.00  0.00    +0.059 A 
ATOM     28  C   UNL     1      -5.560 -11.656   4.311  0.00  0.00    +0.014 A 
ATOM     29  C   UNL     1      -3.167 -12.945   4.751  0.00  0.00    +0.167 A 
ATOM     30  C   UNL     1      -3.827 -13.095   3.553  0.00  0.00    +0.166 A 
ATOM     31  C   UNL     1      -5.028 -12.463   3.302  0.00  0.00    +0.050 A 
ATOM     35  C   UNL     1      -2.007 -14.261   3.485  0.00  0.00    +0.466 C 
ENDBRANCH  20  24
ENDBRANCH  14   8
BRANCH  15   3
ATOM      3  O   UNL     1      -3.323 -12.835  14.447  0.00  0.00    -0.442 OA
BRANCH   3  19
ATOM      4  O   UNL     1      -4.833 -13.946  15.756  0.00  0.00    -0.226 OA
ATOM     11  N   UNL     1      -4.285 -11.704  16.144  0.00  0.00    -0.251 N 
ATOM     19  C   UNL     1      -4.218 -12.920  15.492  0.00  0.00    +0.405 C 
ATOM     39  H   UNL     1      -3.693 -10.964  15.775  0.00  0.00    +0.158 HD
BRANCH  11  23
ATOM     23  C   UNL     1      -5.074 -11.359  17.265  0.00  0.00    +0.037 A 
ATOM     26  C   UNL     1      -6.367 -10.868  17.084  0.00  0.00    +0.034 A 
ATOM     27  C   UNL     1      -4.559 -11.510  18.553  0.00  0.00    +0.023 A 
ATOM     32  C   UNL     1      -7.145 -10.528  18.191  0.00  0.00    +0.019 A 
ATOM     33  C   UNL     1      -5.337 -11.170  19.659  0.00  0.00    +0.002 A 
ATOM     34  C   UNL     1      -6.630 -10.679  19.478  0.00  0.00    +0.011 A 
BRANCH  32  36
ATOM      7  O   UNL     1      -9.480 -10.576  18.524  0.00  0.00    -0.292 OA
ATOM     36  C   UNL     1      -8.493 -10.017  18.002  0.00  0.00    +0.160 C 
ATOM     37  C   UNL     1      -8.733  -8.772  17.155  0.00  0.00    +0.091 C 
ENDBRANCH  32  36
ENDBRANCH  11  23
ENDBRANCH   3  19
ENDBRANCH  15   3
TORSDOF 6
ENDMDL
MODEL 10
REMARK VINA RESULT:      -7.5      3.786     11.669
REMARK  Name = 11912770
REMARK  7 active torsions:
REMARK  status: ('A' for Active; 'I' for Inactive)
REMARK    1  A    between atoms: O_3  and  C_15
REMARK    2  A    between atoms: O_3  and  C_19
REMARK    3  A    between atoms: N_8  and  C_14
REMARK    4  A    between atoms: N_11  and  C_23
REMARK    5  A    between atoms: C_20  and  C_24
REMARK    6  A    between atoms: C_32  and  C_36
REMARK    7  A    between atoms: C_36  and  C_37
REMARK                            x       y       z     vdW  Elec       q    Type
REMARK                         _______ _______ _______ _____ _____    ______ ____
ROOT
ATOM      1  O   UNL     1      -6.551 -10.421   9.890  0.00  0.00    -0.368 OA
ATOM      2  O   UNL     1      -4.222  -8.425   9.827  0.00  0.00    -0.368 OA
ATOM     12  C   UNL     1      -5.035  -8.981   8.772  0.00  0.00    +0.173 C 
ATOM     13  C   UNL     1      -5.319 -10.421   9.150  0.00  0.00    +0.192 C 
ATOM     14  C   UNL     1      -6.397  -8.328   8.769  0.00  0.00    +0.130 C 
ATOM     15  C   UNL     1      -4.141 -10.768  10.028  0.00  0.00    +0.235 C 
ATOM     16  C   UNL     1      -7.133  -9.109   9.844  0.00  0.00    +0.185 C 
ATOM     17  C   UNL     1      -3.892  -9.467  10.757  0.00  0.00    +0.207 C 
ENDROOT
BRANCH  14   8
ATOM      8  N   UNL     1      -7.039  -8.511   7.486  0.00  0.00    -0.306 N 
ATOM      9  N   UNL     1      -8.801  -7.111   8.060  0.00  0.00    -0.214 NA
ATOM     10  N   UNL     1      -8.702  -8.174   5.899  0.00  0.00    -0.223 NA
ATOM     18  C   UNL     1      -8.233  -7.906   7.133  0.00  0.00    +0.216 A 
ATOM     20  C   UNL     1      -9.962  -6.538   7.684  0.00  0.00    +0.076 A 
ATOM     21  C   UNL     1      -9.866  -7.567   5.589  0.00  0.00    +0.116 A 
ATOM     22  C   UNL     1     -10.548  -6.730   6.450  0.00  0.00    +0.048 A 
ATOM     38  H   UNL     1      -6.580  -9.068   6.774  0.00  0.00    +0.149 HD
BRANCH  20  24
ATOM      5  O   UNL     1     -12.783  -5.743  11.604  0.00  0.00    -0.453 OA
ATOM      6  O   UNL     1     -12.375  -3.368  11.545  0.00  0.00    -0.453 OA
ATOM     24  C   UNL     1     -10.574  -5.684   8.674  0.00  0.00    +0.004 A 
ATOM     25  C   UNL     1     -11.396  -6.240   9.657  0.00  0.00    +0.059 A 
ATOM     28  C   UNL     1     -10.336  -4.298   8.640  0.00  0.00    +0.014 A 
ATOM     29  C   UNL     1     -11.959  -5.384  10.582  0.00  0.00    +0.167 A 
ATOM     30  C   UNL     1     -11.727  -4.028  10.548  0.00  0.00    +0.166 A 
ATOM     31  C   UNL     1     -10.918  -3.454   9.588  0.00  0.00    +0.050 A 
ATOM     35  C   UNL     1     -13.042  -4.460  12.210  0.00  0.00    +0.466 C 
ENDBRANCH  20  24
ENDBRANCH  14   8
BRANCH  15   3
ATOM      3  O   UNL     1      -4.394 -11.834  10.915  0.00  0.00    -0.442 OA
BRANCH   3  19
ATOM      4  O   UNL     1      -2.581 -12.782  11.936  0.00  0.00    -0.226 OA
ATOM     11  N   UNL     1      -3.870 -11.142  12.996  0.00  0.00    -0.251 N 
ATOM     19  C   UNL     1      -3.516 -11.992  11.966  0.00  0.00    +0.405 C 
ATOM     39  H   UNL     1      -4.684 -10.555  12.834  0.00  0.00    +0.158 HD
BRANCH  11  23
ATOM     23  C   UNL     1      -3.239 -10.984  14.251  0.00  0.00    +0.037 A 
ATOM     26  C   UNL     1      -3.956 -11.209  15.426  0.00  0.00    +0.034 A 
ATOM     27  C   UNL     1      -1.899 -10.602  14.314  0.00  0.00    +0.023 A 
ATOM     32  C   UNL     1      -3.333 -11.053  16.664  0.00  0.00    +0.019 A 
ATOM     33  C   UNL     1      -1.276 -10.447  15.552  0.00  0.00    +0.002 A 
ATOM     34  C   UNL     1      -1.993 -10.672  16.727  0.00  0.00    +0.011 A 
BRANCH  32  36
ATOM      7  O   UNL     1      -3.551 -11.835  18.879  0.00  0.00    -0.292 OA
ATOM     36  C   UNL     1      -4.080 -11.289  17.889  0.00  0.00    +0.160 C 
ATOM     37  C   UNL     1      -5.542 -10.867  17.992  0.00  0.00    +0.091 C 
ENDBRANCH  32  36
ENDBRANCH  11  23
ENDBRANCH   3  19
ENDBRANCH  15   3
TORSDOF 6
ENDMDL
