MODEL 1
REMARK VINA RESULT:      -6.7      0.000      0.000
REMARK  Name = 11885190
REMARK  3 active torsions:
REMARK  status: ('A' for Active; 'I' for Inactive)
REMARK    1  A    between atoms: S_1  and  N_7
REMARK    2  A    between atoms: S_1  and  C_20
REMARK    3  A    between atoms: C_18  and  C_21
REMARK                            x       y       z     vdW  Elec       q    Type
REMARK                         _______ _______ _______ _____ _____    ______ ____
ROOT
ATOM      6  O   UNL     1     -14.883   9.424  19.844  0.00  0.00    -0.267 OA
ATOM      7  N   UNL     1     -11.376   9.539  16.304  0.00  0.00    -0.176 NA
ATOM      8  N   UNL     1     -12.644   9.520  19.197  0.00  0.00    -0.311 N 
ATOM      9  C   UNL     1     -11.680  11.474  17.851  0.00  0.00    +0.025 C 
ATOM     10  C   UNL     1     -10.224   9.609  18.506  0.00  0.00    +0.052 C 
ATOM     11  C   UNL     1     -10.373  11.128  18.549  0.00  0.00    +0.017 C 
ATOM     12  C   UNL     1     -11.653  11.001  16.388  0.00  0.00    +0.114 C 
ATOM     13  C   UNL     1     -10.138   9.143  17.041  0.00  0.00    +0.119 C 
ATOM     14  C   UNL     1     -12.845  10.867  18.642  0.00  0.00    +0.130 C 
ATOM     15  C   UNL     1     -11.380   8.926  19.211  0.00  0.00    +0.026 A 
ATOM     16  C   UNL     1     -11.198   7.748  19.827  0.00  0.00    +0.022 A 
ATOM     17  C   UNL     1     -13.761   8.914  19.805  0.00  0.00    +0.260 A 
ATOM     18  C   UNL     1     -13.533   7.577  20.456  0.00  0.00    +0.053 A 
ATOM     19  C   UNL     1     -12.294   7.064  20.452  0.00  0.00    +0.016 A 
ENDROOT
BRANCH  18  21
ATOM      2  S   UNL     1     -14.904   6.961  22.772  0.00  0.00    -0.096 S 
ATOM     21  C   UNL     1     -14.640   6.832  21.080  0.00  0.00    +0.024 A 
ATOM     24  C   UNL     1     -15.563   5.990  20.486  0.00  0.00    +0.016 A 
ATOM     28  C   UNL     1     -16.488   5.451  21.426  0.00  0.00    +0.008 A 
ATOM     29  C   UNL     1     -16.244   5.897  22.706  0.00  0.00    +0.046 A 
ENDBRANCH  18  21
BRANCH   7   1
ATOM      1  S   UNL     1     -11.570   8.837  14.755  0.00  0.00    +0.061 S 
ATOM      4  O   UNL     1     -10.640   7.734  14.630  0.00  0.00    -0.153 OA
ATOM      5  O   UNL     1     -11.650   9.889  13.763  0.00  0.00    -0.153 OA
BRANCH   1  20
ATOM      3  F   UNL     1     -16.888   6.344  14.602  0.00  0.00    -0.205 F 
ATOM     20  C   UNL     1     -13.189   8.077  14.708  0.00  0.00    +0.106 A 
ATOM     22  C   UNL     1     -13.996   8.189  15.815  0.00  0.00    +0.031 A 
ATOM     23  C   UNL     1     -13.566   7.410  13.568  0.00  0.00    +0.031 A 
ATOM     25  C   UNL     1     -15.258   7.597  15.779  0.00  0.00    +0.040 A 
ATOM     26  C   UNL     1     -14.829   6.818  13.532  0.00  0.00    +0.040 A 
ATOM     27  C   UNL     1     -15.675   6.912  14.637  0.00  0.00    +0.124 A 
ENDBRANCH   1  20
ENDBRANCH   7   1
TORSDOF 3
ENDMDL
MODEL 2
REMARK VINA RESULT:      -6.5     26.825     30.026
REMARK  Name = 11885190
REMARK  3 active torsions:
REMARK  status: ('A' for Active; 'I' for Inactive)
REMARK    1  A    between atoms: S_1  and  N_7
REMARK    2  A    between atoms: S_1  and  C_20
REMARK    3  A    between atoms: C_18  and  C_21
REMARK                            x       y       z     vdW  Elec       q    Type
REMARK                         _______ _______ _______ _____ _____    ______ ____
ROOT
ATOM      6  O   UNL     1      11.106   6.884   0.909  0.00  0.00    -0.267 OA
ATOM      7  N   UNL     1      11.319   7.123   5.883  0.00  0.00    -0.176 NA
ATOM      8  N   UNL     1      10.382   6.189   3.015  0.00  0.00    -0.311 N 
ATOM      9  C   UNL     1       9.235   7.771   4.670  0.00  0.00    +0.025 C 
ATOM     10  C   UNL     1       9.606   5.423   5.285  0.00  0.00    +0.052 C 
ATOM     11  C   UNL     1       8.543   6.513   5.176  0.00  0.00    +0.017 C 
ATOM     12  C   UNL     1      10.332   8.217   5.651  0.00  0.00    +0.114 C 
ATOM     13  C   UNL     1      10.673   5.845   6.311  0.00  0.00    +0.119 C 
ATOM     14  C   UNL     1       9.781   7.508   3.261  0.00  0.00    +0.130 C 
ATOM     15  C   UNL     1      10.247   5.149   3.937  0.00  0.00    +0.026 A 
ATOM     16  C   UNL     1      10.703   3.922   3.640  0.00  0.00    +0.022 A 
ATOM     17  C   UNL     1      11.001   6.001   1.763  0.00  0.00    +0.260 A 
ATOM     18  C   UNL     1      11.534   4.623   1.473  0.00  0.00    +0.053 A 
ATOM     19  C   UNL     1      11.361   3.662   2.392  0.00  0.00    +0.016 A 
ENDROOT
BRANCH  18  21
ATOM      2  S   UNL     1      11.340   3.948  -1.196  0.00  0.00    -0.096 S 
ATOM     21  C   UNL     1      12.241   4.327   0.215  0.00  0.00    +0.024 A 
ATOM     24  C   UNL     1      13.602   4.303  -0.030  0.00  0.00    +0.016 A 
ATOM     28  C   UNL     1      13.903   3.971  -1.382  0.00  0.00    +0.008 A 
ATOM     29  C   UNL     1      12.765   3.753  -2.127  0.00  0.00    +0.046 A 
ENDBRANCH  18  21
BRANCH   7   1
ATOM      1  S   UNL     1      12.725   7.567   6.751  0.00  0.00    +0.061 S 
ATOM      4  O   UNL     1      13.090   6.473   7.627  0.00  0.00    -0.153 OA
ATOM      5  O   UNL     1      12.575   8.922   7.239  0.00  0.00    -0.153 OA
BRANCH   1  20
ATOM      3  F   UNL     1      17.141   7.933   2.893  0.00  0.00    -0.205 F 
ATOM     20  C   UNL     1      14.069   7.680   5.576  0.00  0.00    +0.106 A 
ATOM     22  C   UNL     1      15.299   8.096   6.027  0.00  0.00    +0.031 A 
ATOM     23  C   UNL     1      13.823   7.344   4.267  0.00  0.00    +0.031 A 
ATOM     25  C   UNL     1      16.347   8.183   5.111  0.00  0.00    +0.040 A 
ATOM     26  C   UNL     1      14.872   7.431   3.351  0.00  0.00    +0.040 A 
ATOM     27  C   UNL     1      16.134   7.851   3.773  0.00  0.00    +0.124 A 
ENDBRANCH   1  20
ENDBRANCH   7   1
TORSDOF 3
ENDMDL
MODEL 3
REMARK VINA RESULT:      -6.4     27.681     30.354
REMARK  Name = 11885190
REMARK  3 active torsions:
REMARK  status: ('A' for Active; 'I' for Inactive)
REMARK    1  A    between atoms: S_1  and  N_7
REMARK    2  A    between atoms: S_1  and  C_20
REMARK    3  A    between atoms: C_18  and  C_21
REMARK                            x       y       z     vdW  Elec       q    Type
REMARK                         _______ _______ _______ _____ _____    ______ ____
ROOT
ATOM      6  O   UNL     1      12.324   7.720   2.760  0.00  0.00    -0.267 OA
ATOM      7  N   UNL     1      13.523   4.410  -0.768  0.00  0.00    -0.176 NA
ATOM      8  N   UNL     1      12.878   5.551   2.106  0.00  0.00    -0.311 N 
ATOM      9  C   UNL     1      15.138   4.963   1.054  0.00  0.00    +0.025 C 
ATOM     10  C   UNL     1      13.461   3.203   1.405  0.00  0.00    +0.052 C 
ATOM     11  C   UNL     1      14.912   3.592   1.676  0.00  0.00    +0.017 C 
ATOM     12  C   UNL     1      14.893   4.914  -0.463  0.00  0.00    +0.114 C 
ATOM     13  C   UNL     1      13.232   3.098  -0.114  0.00  0.00    +0.119 C 
ATOM     14  C   UNL     1      14.240   5.985   1.760  0.00  0.00    +0.130 C 
ATOM     15  C   UNL     1      12.503   4.209   2.015  0.00  0.00    +0.026 A 
ATOM     16  C   UNL     1      11.294   3.818   2.447  0.00  0.00    +0.022 A 
ATOM     17  C   UNL     1      12.016   6.533   2.631  0.00  0.00    +0.260 A 
ATOM     18  C   UNL     1      10.654   6.071   3.072  0.00  0.00    +0.053 A 
ATOM     19  C   UNL     1      10.356   4.766   2.976  0.00  0.00    +0.016 A 
ENDROOT
BRANCH  18  21
ATOM      2  S   UNL     1       9.629   7.393   5.268  0.00  0.00    -0.096 S 
ATOM     21  C   UNL     1       9.655   7.021   3.592  0.00  0.00    +0.024 A 
ATOM     24  C   UNL     1       8.670   7.707   2.905  0.00  0.00    +0.016 A 
ATOM     28  C   UNL     1       7.893   8.540   3.761  0.00  0.00    +0.008 A 
ATOM     29  C   UNL     1       8.308   8.465   5.072  0.00  0.00    +0.046 A 
ENDBRANCH  18  21
BRANCH   7   1
ATOM      1  S   UNL     1      13.031   4.546  -2.402  0.00  0.00    +0.061 S 
ATOM      4  O   UNL     1      13.028   3.224  -2.993  0.00  0.00    -0.153 OA
ATOM      5  O   UNL     1      13.724   5.659  -3.016  0.00  0.00    -0.153 OA
BRANCH   1  20
ATOM      3  F   UNL     1       7.397   6.212  -2.413  0.00  0.00    -0.205 F 
ATOM     20  C   UNL     1      11.315   5.052  -2.406  0.00  0.00    +0.106 A 
ATOM     22  C   UNL     1      10.693   5.264  -1.198  0.00  0.00    +0.031 A 
ATOM     23  C   UNL     1      10.684   5.212  -3.614  0.00  0.00    +0.031 A 
ATOM     25  C   UNL     1       9.356   5.659  -1.201  0.00  0.00    +0.040 A 
ATOM     26  C   UNL     1       9.345   5.608  -3.617  0.00  0.00    +0.040 A 
ATOM     27  C   UNL     1       8.681   5.831  -2.411  0.00  0.00    +0.124 A 
ENDBRANCH   1  20
ENDBRANCH   7   1
TORSDOF 3
ENDMDL
MODEL 4
REMARK VINA RESULT:      -6.4     19.573     20.748
REMARK  Name = 11885190
REMARK  3 active torsions:
REMARK  status: ('A' for Active; 'I' for Inactive)
REMARK    1  A    between atoms: S_1  and  N_7
REMARK    2  A    between atoms: S_1  and  C_20
REMARK    3  A    between atoms: C_18  and  C_21
REMARK                            x       y       z     vdW  Elec       q    Type
REMARK                         _______ _______ _______ _____ _____    ______ ____
ROOT
ATOM      6  O   UNL     1      -7.847  -8.936  17.117  0.00  0.00    -0.267 OA
ATOM      7  N   UNL     1      -3.965 -11.680  15.616  0.00  0.00    -0.176 NA
ATOM      8  N   UNL     1      -6.718 -10.974  16.995  0.00  0.00    -0.311 N 
ATOM      9  C   UNL     1      -4.413 -11.338  18.049  0.00  0.00    +0.025 C 
ATOM     10  C   UNL     1      -5.513 -13.181  16.855  0.00  0.00    +0.052 C 
ATOM     11  C   UNL     1      -4.855 -12.789  18.176  0.00  0.00    +0.017 C 
ATOM     12  C   UNL     1      -3.400 -11.181  16.902  0.00  0.00    +0.114 C 
ATOM     13  C   UNL     1      -4.481 -13.079  15.717  0.00  0.00    +0.119 C 
ATOM     14  C   UNL     1      -5.651 -10.454  17.862  0.00  0.00    +0.130 C 
ATOM     15  C   UNL     1      -6.714 -12.302  16.561  0.00  0.00    +0.026 A 
ATOM     16  C   UNL     1      -7.756 -12.787  15.869  0.00  0.00    +0.022 A 
ATOM     17  C   UNL     1      -7.790 -10.103  16.720  0.00  0.00    +0.260 A 
ATOM     18  C   UNL     1      -8.928 -10.665  15.911  0.00  0.00    +0.053 A 
ATOM     19  C   UNL     1      -8.874 -11.951  15.536  0.00  0.00    +0.016 A 
ENDROOT
BRANCH  18  21
ATOM      2  S   UNL     1     -11.403  -9.658  16.603  0.00  0.00    -0.096 S 
ATOM     21  C   UNL     1     -10.078  -9.829  15.525  0.00  0.00    +0.024 A 
ATOM     24  C   UNL     1     -10.276  -9.112  14.359  0.00  0.00    +0.016 A 
ATOM     28  C   UNL     1     -11.523  -8.422  14.354  0.00  0.00    +0.008 A 
ATOM     29  C   UNL     1     -12.235  -8.631  15.513  0.00  0.00    +0.046 A 
ENDBRANCH  18  21
BRANCH   7   1
ATOM      1  S   UNL     1      -3.043 -11.332  14.218  0.00  0.00    +0.061 S 
ATOM      4  O   UNL     1      -2.725 -12.579  13.553  0.00  0.00    -0.153 OA
ATOM      5  O   UNL     1      -2.024 -10.358  14.550  0.00  0.00    -0.153 OA
BRANCH   1  20
ATOM      3  F   UNL     1      -6.546  -8.486  10.456  0.00  0.00    -0.205 F 
ATOM     20  C   UNL     1      -4.110 -10.464  13.073  0.00  0.00    +0.106 A 
ATOM     22  C   UNL     1      -3.607 -10.125  11.839  0.00  0.00    +0.031 A 
ATOM     23  C   UNL     1      -5.392 -10.171  13.468  0.00  0.00    +0.031 A 
ATOM     25  C   UNL     1      -4.438  -9.449  10.947  0.00  0.00    +0.040 A 
ATOM     26  C   UNL     1      -6.224  -9.494  12.574  0.00  0.00    +0.040 A 
ATOM     27  C   UNL     1      -5.747  -9.134  11.314  0.00  0.00    +0.124 A 
ENDBRANCH   1  20
ENDBRANCH   7   1
TORSDOF 3
ENDMDL
MODEL 5
REMARK VINA RESULT:      -6.3     21.151     23.286
REMARK  Name = 11885190
REMARK  3 active torsions:
REMARK  status: ('A' for Active; 'I' for Inactive)
REMARK    1  A    between atoms: S_1  and  N_7
REMARK    2  A    between atoms: S_1  and  C_20
REMARK    3  A    between atoms: C_18  and  C_21
REMARK                            x       y       z     vdW  Elec       q    Type
REMARK                         _______ _______ _______ _____ _____    ______ ____
ROOT
ATOM      6  O   UNL     1      -5.088 -12.806   8.696  0.00  0.00    -0.267 OA
ATOM      7  N   UNL     1      -4.526 -11.517  13.478  0.00  0.00    -0.176 NA
ATOM      8  N   UNL     1      -3.878 -11.766  10.397  0.00  0.00    -0.311 N 
ATOM      9  C   UNL     1      -2.897 -13.057  12.379  0.00  0.00    +0.025 C 
ATOM     10  C   UNL     1      -2.572 -10.628  12.225  0.00  0.00    +0.052 C 
ATOM     11  C   UNL     1      -1.843 -11.958  12.393  0.00  0.00    +0.017 C 
ATOM     12  C   UNL     1      -3.892 -12.865  13.536  0.00  0.00    +0.114 C 
ATOM     13  C   UNL     1      -3.525 -10.410  13.414  0.00  0.00    +0.119 C 
ATOM     14  C   UNL     1      -3.586 -13.070  11.010  0.00  0.00    +0.130 C 
ATOM     15  C   UNL     1      -3.340 -10.587  10.918  0.00  0.00    +0.026 A 
ATOM     16  C   UNL     1      -3.523  -9.423  10.275  0.00  0.00    +0.022 A 
ATOM     17  C   UNL     1      -4.629 -11.781   9.206  0.00  0.00    +0.260 A 
ATOM     18  C   UNL     1      -4.848 -10.456   8.527  0.00  0.00    +0.053 A 
ATOM     19  C   UNL     1      -4.294  -9.360   9.066  0.00  0.00    +0.016 A 
ENDROOT
BRANCH  18  21
ATOM      2  S   UNL     1      -7.198  -9.592   7.365  0.00  0.00    -0.096 S 
ATOM     21  C   UNL     1      -5.658 -10.350   7.302  0.00  0.00    +0.024 A 
ATOM     24  C   UNL     1      -5.363 -10.791   6.025  0.00  0.00    +0.016 A 
ATOM     28  C   UNL     1      -6.406 -10.503   5.098  0.00  0.00    +0.008 A 
ATOM     29  C   UNL     1      -7.463  -9.853   5.693  0.00  0.00    +0.046 A 
ENDBRANCH  18  21
BRANCH   7   1
ATOM      1  S   UNL     1      -5.835 -11.269  14.553  0.00  0.00    +0.061 S 
ATOM      4  O   UNL     1      -6.825 -12.300  14.318  0.00  0.00    -0.153 OA
ATOM      5  O   UNL     1      -6.180  -9.862  14.564  0.00  0.00    -0.153 OA
BRANCH   1  20
ATOM      3  F   UNL     1      -3.867 -12.289  19.993  0.00  0.00    -0.205 F 
ATOM     20  C   UNL     1      -5.237 -11.578  16.210  0.00  0.00    +0.106 A 
ATOM     22  C   UNL     1      -5.392 -12.839  16.736  0.00  0.00    +0.031 A 
ATOM     23  C   UNL     1      -4.643 -10.547  16.894  0.00  0.00    +0.031 A 
ATOM     25  C   UNL     1      -4.925 -13.081  18.028  0.00  0.00    +0.040 A 
ATOM     26  C   UNL     1      -4.175 -10.789  18.187  0.00  0.00    +0.040 A 
ATOM     27  C   UNL     1      -4.316 -12.056  18.753  0.00  0.00    +0.124 A 
ENDBRANCH   1  20
ENDBRANCH   7   1
TORSDOF 3
ENDMDL
MODEL 6
REMARK VINA RESULT:      -6.2     21.277     22.624
REMARK  Name = 11885190
REMARK  3 active torsions:
REMARK  status: ('A' for Active; 'I' for Inactive)
REMARK    1  A    between atoms: S_1  and  N_7
REMARK    2  A    between atoms: S_1  and  C_20
REMARK    3  A    between atoms: C_18  and  C_21
REMARK                            x       y       z     vdW  Elec       q    Type
REMARK                         _______ _______ _______ _____ _____    ______ ____
ROOT
ATOM      6  O   UNL     1      -6.637 -10.139  14.191  0.00  0.00    -0.267 OA
ATOM      7  N   UNL     1      -5.512 -11.062   9.424  0.00  0.00    -0.176 NA
ATOM      8  N   UNL     1      -5.331  -9.760  12.296  0.00  0.00    -0.311 N 
ATOM      9  C   UNL     1      -6.295  -8.798  10.127  0.00  0.00    +0.025 C 
ATOM     10  C   UNL     1      -3.907  -9.356  10.258  0.00  0.00    +0.052 C 
ATOM     11  C   UNL     1      -4.893  -8.243   9.916  0.00  0.00    +0.017 C 
ATOM     12  C   UNL     1      -6.542 -10.006   9.208  0.00  0.00    +0.114 C 
ATOM     13  C   UNL     1      -4.117 -10.542   9.299  0.00  0.00    +0.119 C 
ATOM     14  C   UNL     1      -6.476  -9.144  11.610  0.00  0.00    +0.130 C 
ATOM     15  C   UNL     1      -4.070  -9.806  11.698  0.00  0.00    +0.026 A 
ATOM     16  C   UNL     1      -3.014 -10.267  12.388  0.00  0.00    +0.022 A 
ATOM     17  C   UNL     1      -5.547 -10.198  13.618  0.00  0.00    +0.260 A 
ATOM     18  C   UNL     1      -4.352 -10.742  14.353  0.00  0.00    +0.053 A 
ATOM     19  C   UNL     1      -3.163 -10.747  13.732  0.00  0.00    +0.016 A 
ENDROOT
BRANCH  18  21
ATOM      2  S   UNL     1      -4.967 -12.898  15.964  0.00  0.00    -0.096 S 
ATOM     21  C   UNL     1      -4.474 -11.271  15.722  0.00  0.00    +0.024 A 
ATOM     24  C   UNL     1      -4.241 -10.629  16.924  0.00  0.00    +0.016 A 
ATOM     28  C   UNL     1      -4.469 -11.478  18.046  0.00  0.00    +0.008 A 
ATOM     29  C   UNL     1      -4.868 -12.740  17.666  0.00  0.00    +0.046 A 
ENDBRANCH  18  21
BRANCH   7   1
ATOM      1  S   UNL     1      -5.815 -12.559   8.652  0.00  0.00    +0.061 S 
ATOM      4  O   UNL     1      -7.215 -12.613   8.283  0.00  0.00    -0.153 OA
ATOM      5  O   UNL     1      -5.180 -13.620   9.406  0.00  0.00    -0.153 OA
BRANCH   1  20
ATOM      3  F   UNL     1      -2.918 -12.532   3.540  0.00  0.00    -0.205 F 
ATOM     20  C   UNL     1      -4.933 -12.550   7.096  0.00  0.00    +0.106 A 
ATOM     22  C   UNL     1      -3.807 -13.330   6.977  0.00  0.00    +0.031 A 
ATOM     23  C   UNL     1      -5.413 -11.765   6.076  0.00  0.00    +0.031 A 
ATOM     25  C   UNL     1      -3.119 -13.323   5.764  0.00  0.00    +0.040 A 
ATOM     26  C   UNL     1      -4.725 -11.758   4.862  0.00  0.00    +0.040 A 
ATOM     27  C   UNL     1      -3.578 -12.538   4.706  0.00  0.00    +0.124 A 
ENDBRANCH   1  20
ENDBRANCH   7   1
TORSDOF 3
ENDMDL
MODEL 7
REMARK VINA RESULT:      -6.2     15.015     17.366
REMARK  Name = 11885190
REMARK  3 active torsions:
REMARK  status: ('A' for Active; 'I' for Inactive)
REMARK    1  A    between atoms: S_1  and  N_7
REMARK    2  A    between atoms: S_1  and  C_20
REMARK    3  A    between atoms: C_18  and  C_21
REMARK                            x       y       z     vdW  Elec       q    Type
REMARK                         _______ _______ _______ _____ _____    ______ ____
ROOT
ATOM      6  O   UNL     1      -6.255  10.449   5.171  0.00  0.00    -0.267 OA
ATOM      7  N   UNL     1      -1.378  10.632   4.160  0.00  0.00    -0.176 NA
ATOM      8  N   UNL     1      -4.065   9.750   5.566  0.00  0.00    -0.311 N 
ATOM      9  C   UNL     1      -2.238  11.340   6.395  0.00  0.00    +0.025 C 
ATOM     10  C   UNL     1      -1.705   8.978   5.987  0.00  0.00    +0.052 C 
ATOM     11  C   UNL     1      -1.635  10.094   7.027  0.00  0.00    +0.017 C 
ATOM     12  C   UNL     1      -1.442  11.751   5.144  0.00  0.00    +0.114 C 
ATOM     13  C   UNL     1      -0.860   9.365   4.760  0.00  0.00    +0.119 C 
ATOM     14  C   UNL     1      -3.717  11.079   6.088  0.00  0.00    +0.130 C 
ATOM     15  C   UNL     1      -3.140   8.704   5.577  0.00  0.00    +0.026 A 
ATOM     16  C   UNL     1      -3.514   7.470   5.205  0.00  0.00    +0.022 A 
ATOM     17  C   UNL     1      -5.401   9.560   5.160  0.00  0.00    +0.260 A 
ATOM     18  C   UNL     1      -5.782   8.174   4.714  0.00  0.00    +0.053 A 
ATOM     19  C   UNL     1      -4.853   7.207   4.762  0.00  0.00    +0.016 A 
ENDROOT
BRANCH  18  21
ATOM      2  S   UNL     1      -8.178   6.879   5.161  0.00  0.00    -0.096 S 
ATOM     21  C   UNL     1      -7.138   7.875   4.225  0.00  0.00    +0.024 A 
ATOM     24  C   UNL     1      -7.751   8.291   3.057  0.00  0.00    +0.016 A 
ATOM     28  C   UNL     1      -9.079   7.790   2.934  0.00  0.00    +0.008 A 
ATOM     29  C   UNL     1      -9.439   7.008   4.008  0.00  0.00    +0.046 A 
ENDBRANCH  18  21
BRANCH   7   1
ATOM      1  S   UNL     1      -0.744  11.035   2.622  0.00  0.00    +0.061 S 
ATOM      4  O   UNL     1       0.474  10.278   2.414  0.00  0.00    -0.153 OA
ATOM      5  O   UNL     1      -0.793  12.472   2.449  0.00  0.00    -0.153 OA
BRANCH   1  20
ATOM      3  F   UNL     1      -4.489   9.001  -1.421  0.00  0.00    -0.205 F 
ATOM     20  C   UNL     1      -1.884  10.414   1.391  0.00  0.00    +0.106 A 
ATOM     22  C   UNL     1      -3.232  10.553   1.620  0.00  0.00    +0.031 A 
ATOM     23  C   UNL     1      -1.370   9.824   0.263  0.00  0.00    +0.031 A 
ATOM     25  C   UNL     1      -4.121  10.070   0.660  0.00  0.00    +0.040 A 
ATOM     26  C   UNL     1      -2.260   9.340  -0.697  0.00  0.00    +0.040 A 
ATOM     27  C   UNL     1      -3.635   9.464  -0.499  0.00  0.00    +0.124 A 
ENDBRANCH   1  20
ENDBRANCH   7   1
TORSDOF 3
ENDMDL
MODEL 8
REMARK VINA RESULT:      -6.2      3.883      8.169
REMARK  Name = 11885190
REMARK  3 active torsions:
REMARK  status: ('A' for Active; 'I' for Inactive)
REMARK    1  A    between atoms: S_1  and  N_7
REMARK    2  A    between atoms: S_1  and  C_20
REMARK    3  A    between atoms: C_18  and  C_21
REMARK                            x       y       z     vdW  Elec       q    Type
REMARK                         _______ _______ _______ _____ _____    ______ ____
ROOT
ATOM      6  O   UNL     1     -14.108   8.736  18.064  0.00  0.00    -0.267 OA
ATOM      7  N   UNL     1     -16.086   7.746  22.531  0.00  0.00    -0.176 NA
ATOM      8  N   UNL     1     -14.398   7.320  19.895  0.00  0.00    -0.311 N 
ATOM      9  C   UNL     1     -16.679   6.355  20.544  0.00  0.00    +0.025 C 
ATOM     10  C   UNL     1     -14.694   5.793  21.875  0.00  0.00    +0.052 C 
ATOM     11  C   UNL     1     -15.871   5.195  21.108  0.00  0.00    +0.017 C 
ATOM     12  C   UNL     1     -17.205   7.251  21.678  0.00  0.00    +0.114 C 
ATOM     13  C   UNL     1     -15.221   6.642  23.046  0.00  0.00    +0.119 C 
ATOM     14  C   UNL     1     -15.812   7.127  19.542  0.00  0.00    +0.130 C 
ATOM     15  C   UNL     1     -13.819   6.633  20.964  0.00  0.00    +0.026 A 
ATOM     16  C   UNL     1     -12.501   6.735  21.196  0.00  0.00    +0.022 A 
ATOM     17  C   UNL     1     -13.640   8.143  19.039  0.00  0.00    +0.260 A 
ATOM     18  C   UNL     1     -12.172   8.266  19.345  0.00  0.00    +0.053 A 
ATOM     19  C   UNL     1     -11.670   7.570  20.376  0.00  0.00    +0.016 A 
ENDROOT
BRANCH  18  21
ATOM      2  S   UNL     1     -10.613   8.544  17.083  0.00  0.00    -0.096 S 
ATOM     21  C   UNL     1     -11.295   9.137  18.544  0.00  0.00    +0.024 A 
ATOM     24  C   UNL     1     -10.904  10.440  18.792  0.00  0.00    +0.016 A 
ATOM     28  C   UNL     1     -10.042  10.950  17.778  0.00  0.00    +0.008 A 
ATOM     29  C   UNL     1      -9.802  10.024  16.789  0.00  0.00    +0.046 A 
ENDBRANCH  18  21
BRANCH   7   1
ATOM      1  S   UNL     1     -16.503   8.952  23.671  0.00  0.00    +0.061 S 
ATOM      4  O   UNL     1     -16.969   8.303  24.879  0.00  0.00    -0.153 OA
ATOM      5  O   UNL     1     -17.272   9.986  23.010  0.00  0.00    -0.153 OA
BRANCH   1  20
ATOM      3  F   UNL     1     -11.542  11.673  25.254  0.00  0.00    -0.205 F 
ATOM     20  C   UNL     1     -14.993   9.782  24.152  0.00  0.00    +0.106 A 
ATOM     22  C   UNL     1     -14.887  10.255  25.438  0.00  0.00    +0.031 A 
ATOM     23  C   UNL     1     -13.993   9.914  23.220  0.00  0.00    +0.031 A 
ATOM     25  C   UNL     1     -13.710  10.901  25.814  0.00  0.00    +0.040 A 
ATOM     26  C   UNL     1     -12.815  10.560  23.595  0.00  0.00    +0.040 A 
ATOM     27  C   UNL     1     -12.673  11.053  24.893  0.00  0.00    +0.124 A 
ENDBRANCH   1  20
ENDBRANCH   7   1
TORSDOF 3
ENDMDL
MODEL 9
REMARK VINA RESULT:      -6.1     30.218     31.836
REMARK  Name = 11885190
REMARK  3 active torsions:
REMARK  status: ('A' for Active; 'I' for Inactive)
REMARK    1  A    between atoms: S_1  and  N_7
REMARK    2  A    between atoms: S_1  and  C_20
REMARK    3  A    between atoms: C_18  and  C_21
REMARK                            x       y       z     vdW  Elec       q    Type
REMARK                         _______ _______ _______ _____ _____    ______ ____
ROOT
ATOM      6  O   UNL     1       9.299 -11.868  31.708  0.00  0.00    -0.267 OA
ATOM      7  N   UNL     1       7.097  -8.895  35.049  0.00  0.00    -0.176 NA
ATOM      8  N   UNL     1       8.513  -9.772  32.365  0.00  0.00    -0.311 N 
ATOM      9  C   UNL     1       9.470  -8.508  34.375  0.00  0.00    +0.025 C 
ATOM     10  C   UNL     1       7.653  -7.510  33.060  0.00  0.00    +0.052 C 
ATOM     11  C   UNL     1       9.054  -7.259  33.610  0.00  0.00    +0.017 C 
ATOM     12  C   UNL     1       8.500  -8.777  35.538  0.00  0.00    +0.114 C 
ATOM     13  C   UNL     1       6.672  -7.721  34.228  0.00  0.00    +0.119 C 
ATOM     14  C   UNL     1       9.554  -9.687  33.398  0.00  0.00    +0.130 C 
ATOM     15  C   UNL     1       7.636  -8.710  32.132  0.00  0.00    +0.026 A 
ATOM     16  C   UNL     1       6.771  -8.763  31.107  0.00  0.00    +0.022 A 
ATOM     17  C   UNL     1       8.517 -10.927  31.557  0.00  0.00    +0.260 A 
ATOM     18  C   UNL     1       7.511 -10.973  30.438  0.00  0.00    +0.053 A 
ATOM     19  C   UNL     1       6.707  -9.915  30.255  0.00  0.00    +0.016 A 
ENDROOT
BRANCH  18  21
ATOM      2  S   UNL     1       6.258 -13.381  29.938  0.00  0.00    -0.096 S 
ATOM     21  C   UNL     1       7.396 -12.151  29.562  0.00  0.00    +0.024 A 
ATOM     24  C   UNL     1       8.103 -12.449  28.412  0.00  0.00    +0.016 A 
ATOM     28  C   UNL     1       7.706 -13.692  27.839  0.00  0.00    +0.008 A 
ATOM     29  C   UNL     1       6.710 -14.303  28.567  0.00  0.00    +0.046 A 
ENDBRANCH  18  21
BRANCH   7   1
ATOM      1  S   UNL     1       5.955  -9.444  36.199  0.00  0.00    +0.061 S 
ATOM      4  O   UNL     1       5.089  -8.339  36.552  0.00  0.00    -0.153 OA
ATOM      5  O   UNL     1       6.635 -10.237  37.203  0.00  0.00    -0.153 OA
BRANCH   1  20
ATOM      3  F   UNL     1       2.444 -13.304  33.498  0.00  0.00    -0.205 F 
ATOM     20  C   UNL     1       4.885 -10.618  35.376  0.00  0.00    +0.106 A 
ATOM     22  C   UNL     1       5.417 -11.399  34.377  0.00  0.00    +0.031 A 
ATOM     23  C   UNL     1       3.574 -10.699  35.774  0.00  0.00    +0.031 A 
ATOM     25  C   UNL     1       4.583 -12.314  33.735  0.00  0.00    +0.040 A 
ATOM     26  C   UNL     1       2.739 -11.615  35.132  0.00  0.00    +0.040 A 
ATOM     27  C   UNL     1       3.244 -12.423  34.113  0.00  0.00    +0.124 A 
ENDBRANCH   1  20
ENDBRANCH   7   1
TORSDOF 3
ENDMDL
MODEL 10
REMARK VINA RESULT:      -6.1     20.716     22.559
REMARK  Name = 11885190
REMARK  3 active torsions:
REMARK  status: ('A' for Active; 'I' for Inactive)
REMARK    1  A    between atoms: S_1  and  N_7
REMARK    2  A    between atoms: S_1  and  C_20
REMARK    3  A    between atoms: C_18  and  C_21
REMARK                            x       y       z     vdW  Elec       q    Type
REMARK                         _______ _______ _______ _____ _____    ______ ____
ROOT
ATOM      6  O   UNL     1      -5.273 -12.667  10.086  0.00  0.00    -0.267 OA
ATOM      7  N   UNL     1      -3.734 -11.828  14.753  0.00  0.00    -0.176 NA
ATOM      8  N   UNL     1      -3.587 -12.156  11.614  0.00  0.00    -0.311 N 
ATOM      9  C   UNL     1      -2.860 -13.776  13.459  0.00  0.00    +0.025 C 
ATOM     10  C   UNL     1      -1.763 -11.589  13.256  0.00  0.00    +0.052 C 
ATOM     11  C   UNL     1      -1.506 -13.091  13.334  0.00  0.00    +0.017 C 
ATOM     12  C   UNL     1      -3.584 -13.312  14.733  0.00  0.00    +0.114 C 
ATOM     13  C   UNL     1      -2.436 -11.114  14.557  0.00  0.00    +0.119 C 
ATOM     14  C   UNL     1      -3.675 -13.506  12.189  0.00  0.00    +0.130 C 
ATOM     15  C   UNL     1      -2.627 -11.243  12.058  0.00  0.00    +0.026 A 
ATOM     16  C   UNL     1      -2.487 -10.060  11.440  0.00  0.00    +0.022 A 
ATOM     17  C   UNL     1      -4.440 -11.873  10.529  0.00  0.00    +0.260 A 
ATOM     18  C   UNL     1      -4.284 -10.525   9.880  0.00  0.00    +0.053 A 
ATOM     19  C   UNL     1      -3.334  -9.697  10.340  0.00  0.00    +0.016 A 
ENDROOT
BRANCH  18  21
ATOM      2  S   UNL     1      -6.519  -9.113   9.086  0.00  0.00    -0.096 S 
ATOM     21  C   UNL     1      -5.155 -10.107   8.768  0.00  0.00    +0.024 A 
ATOM     24  C   UNL     1      -5.048 -10.406   7.422  0.00  0.00    +0.016 A 
ATOM     28  C   UNL     1      -6.091  -9.814   6.652  0.00  0.00    +0.008 A 
ATOM     29  C   UNL     1      -6.959  -9.083   7.431  0.00  0.00    +0.046 A 
ENDBRANCH  18  21
BRANCH   7   1
ATOM      1  S   UNL     1      -4.744 -11.203  15.985  0.00  0.00    +0.061 S 
ATOM      4  O   UNL     1      -4.107 -10.032  16.552  0.00  0.00    -0.153 OA
ATOM      5  O   UNL     1      -5.217 -12.294  16.811  0.00  0.00    -0.153 OA
BRANCH   1  20
ATOM      3  F   UNL     1      -9.615  -9.166  13.409  0.00  0.00    -0.205 F 
ATOM     20  C   UNL     1      -6.227 -10.581  15.201  0.00  0.00    +0.106 A 
ATOM     22  C   UNL     1      -6.223 -10.409  13.838  0.00  0.00    +0.031 A 
ATOM     23  C   UNL     1      -7.315 -10.301  15.990  0.00  0.00    +0.031 A 
ATOM     25  C   UNL     1      -7.379  -9.925  13.226  0.00  0.00    +0.040 A 
ATOM     26  C   UNL     1      -8.472  -9.817  15.379  0.00  0.00    +0.040 A 
ATOM     27  C   UNL     1      -8.504  -9.629  13.996  0.00  0.00    +0.124 A 
ENDBRANCH   1  20
ENDBRANCH   7   1
TORSDOF 3
ENDMDL
