REMARK  Name = 45784239
REMARK  4 active torsions:
REMARK  status: ('A' for Active; 'I' for Inactive)
REMARK    1  A    between atoms: N_2  and  C_10
REMARK    2  A    between atoms: C_5  and  C_9
REMARK    3  A    between atoms: C_10  and  C_11
REMARK    4  A    between atoms: C_14  and  C_19
REMARK                            x       y       z     vdW  Elec       q    Type
REMARK                         _______ _______ _______ _____ _____    ______ ____
ROOT
ATOM      2  N   UNL     1      -1.850  -0.152   0.002  0.00  0.00    -0.297 NA
ATOM      5  C   UNL     1       0.348  -0.587   0.694  0.00  0.00    +0.070 C 
ATOM      6  C   UNL     1      -0.329   0.363   1.698  0.00  0.00    +0.028 C 
ATOM      7  C   UNL     1      -0.551  -0.544  -0.549  0.00  0.00    +0.096 C 
ATOM      8  C   UNL     1      -1.547   0.908   0.964  0.00  0.00    +0.085 C 
ENDROOT
BRANCH   5   9
ATOM      1  F   UNL     1       7.560  -0.560  -0.182  0.00  0.00    -0.205 F 
ATOM      3  N   UNL     1       2.791  -1.163   0.638  0.00  0.00    -0.341 N 
ATOM      4  N   UNL     1       2.255   0.855  -0.126  0.00  0.00    -0.232 NA
ATOM      9  C   UNL     1       1.792  -0.263   0.388  0.00  0.00    +0.113 A 
ATOM     12  C   UNL     1       3.977  -0.588   0.259  0.00  0.00    +0.069 A 
ATOM     13  C   UNL     1       3.616   0.671  -0.214  0.00  0.00    +0.089 A 
ATOM     16  C   UNL     1       5.294  -1.047   0.290  0.00  0.00    +0.066 A 
ATOM     17  C   UNL     1       4.616   1.536  -0.689  0.00  0.00    +0.032 A 
ATOM     21  C   UNL     1       6.277  -0.172  -0.187  0.00  0.00    +0.125 A 
ATOM     22  C   UNL     1       5.945   1.097  -0.668  0.00  0.00    +0.040 A 
ATOM     24  H   UNL     1       2.679  -2.088   1.031  0.00  0.00    +0.167 HD
ENDBRANCH   5   9
BRANCH   2  10
ATOM     10  C   UNL     1      -2.781   0.283  -1.028  0.00  0.00    +0.119 C 
BRANCH  10  11
ATOM     11  C   UNL     1      -4.206   0.263  -0.540  0.00  0.00    -0.030 A 
ATOM     14  C   UNL     1      -4.906  -0.938  -0.421  0.00  0.00    -0.046 A 
ATOM     15  C   UNL     1      -4.824   1.467  -0.206  0.00  0.00    +0.005 A 
ATOM     18  C   UNL     1      -6.225  -0.933   0.033  0.00  0.00    +0.003 A 
ATOM     19  C   UNL     1      -4.266  -2.240  -0.773  0.00  0.00    +0.044 C 
ATOM     20  C   UNL     1      -6.143   1.472   0.248  0.00  0.00    +0.000 A 
ATOM     23  C   UNL     1      -6.844   0.272   0.368  0.00  0.00    +0.000 A 
ENDBRANCH  10  11
ENDBRANCH   2  10
TORSDOF 3
