MODEL 1
REMARK VINA RESULT:      -7.6      0.000      0.000
REMARK  Name = 40586265
REMARK  7 active torsions:
REMARK  status: ('A' for Active; 'I' for Inactive)
REMARK    1  A    between atoms: O_3  and  C_12
REMARK    2  A    between atoms: O_3  and  C_22
REMARK    3  A    between atoms: O_6  and  C_28
REMARK    4  A    between atoms: O_6  and  C_29
REMARK    5  A    between atoms: N_7  and  C_11
REMARK    6  A    between atoms: N_8  and  C_23
REMARK    7  A    between atoms: C_15  and  C_18
REMARK                            x       y       z     vdW  Elec       q    Type
REMARK                         _______ _______ _______ _____ _____    ______ ____
ROOT
ATOM      1  O   UNL     1     -16.714   4.943  25.355  0.00  0.00    -0.368 OA
ATOM      2  O   UNL     1     -16.689   2.025  24.412  0.00  0.00    -0.368 OA
ATOM      9  C   UNL     1     -15.814   2.749  25.302  0.00  0.00    +0.173 C 
ATOM     10  C   UNL     1     -15.681   4.152  24.743  0.00  0.00    +0.192 C 
ATOM     11  C   UNL     1     -16.489   2.954  26.639  0.00  0.00    +0.130 C 
ATOM     12  C   UNL     1     -15.936   3.941  23.270  0.00  0.00    +0.235 C 
ATOM     13  C   UNL     1     -17.363   4.168  26.375  0.00  0.00    +0.185 C 
ATOM     14  C   UNL     1     -16.989   2.856  23.280  0.00  0.00    +0.207 C 
ENDROOT
BRANCH  11   7
ATOM      4  O   UNL     1     -16.660   2.204  29.439  0.00  0.00    -0.276 OA
ATOM      7  N   UNL     1     -15.524   3.218  27.677  0.00  0.00    -0.307 N 
ATOM     18  C   UNL     1     -15.694   2.817  28.994  0.00  0.00    +0.216 C 
ATOM     30  H   UNL     1     -14.651   3.663  27.408  0.00  0.00    +0.149 HD
BRANCH  18  15
ATOM     15  C   UNL     1     -14.529   3.197  29.862  0.00  0.00    +0.075 C 
ATOM     16  C   UNL     1     -14.985   4.040  31.055  0.00  0.00    +0.013 C 
ATOM     17  C   UNL     1     -13.755   1.946  30.281  0.00  0.00    +0.013 C 
ATOM     19  C   UNL     1     -15.658   3.221  32.156  0.00  0.00    +0.001 C 
ATOM     20  C   UNL     1     -14.457   1.147  31.377  0.00  0.00    +0.001 C 
ATOM     21  C   UNL     1     -14.811   2.024  32.573  0.00  0.00    +0.000 C 
ENDBRANCH  18  15
ENDBRANCH  11   7
BRANCH  12   3
ATOM      3  O   UNL     1     -16.378   5.103  22.605  0.00  0.00    -0.442 OA
BRANCH   3  22
ATOM      5  O   UNL     1     -16.046   5.065  20.343  0.00  0.00    -0.226 OA
ATOM      8  N   UNL     1     -14.645   6.282  21.770  0.00  0.00    -0.251 N 
ATOM     22  C   UNL     1     -15.706   5.456  21.452  0.00  0.00    +0.405 C 
ATOM     31  H   UNL     1     -14.523   6.496  22.757  0.00  0.00    +0.158 HD
BRANCH   8  23
ATOM     23  C   UNL     1     -13.705   6.867  20.892  0.00  0.00    +0.037 A 
ATOM     24  C   UNL     1     -14.143   7.668  19.837  0.00  0.00    +0.027 A 
ATOM     25  C   UNL     1     -12.342   6.644  21.080  0.00  0.00    +0.027 A 
ATOM     26  C   UNL     1     -13.216   8.246  18.969  0.00  0.00    +0.047 A 
ATOM     27  C   UNL     1     -11.414   7.222  20.213  0.00  0.00    +0.047 A 
ATOM     28  C   UNL     1     -11.852   8.022  19.157  0.00  0.00    +0.120 A 
BRANCH  28   6
ATOM      6  O   UNL     1     -10.947   8.587  18.310  0.00  0.00    -0.495 OA
ATOM     29  C   UNL     1     -10.176   9.675  18.818  0.00  0.00    +0.277 C 
ENDBRANCH  28   6
ENDBRANCH   8  23
ENDBRANCH   3  22
ENDBRANCH  12   3
TORSDOF 6
ENDMDL
MODEL 2
REMARK VINA RESULT:      -7.2     26.720     29.986
REMARK  Name = 40586265
REMARK  7 active torsions:
REMARK  status: ('A' for Active; 'I' for Inactive)
REMARK    1  A    between atoms: O_3  and  C_12
REMARK    2  A    between atoms: O_3  and  C_22
REMARK    3  A    between atoms: O_6  and  C_28
REMARK    4  A    between atoms: O_6  and  C_29
REMARK    5  A    between atoms: N_7  and  C_11
REMARK    6  A    between atoms: N_8  and  C_23
REMARK    7  A    between atoms: C_15  and  C_18
REMARK                            x       y       z     vdW  Elec       q    Type
REMARK                         _______ _______ _______ _____ _____    ______ ____
ROOT
ATOM      1  O   UNL     1      12.363  10.487  20.999  0.00  0.00    -0.368 OA
ATOM      2  O   UNL     1      10.494   8.318  22.097  0.00  0.00    -0.368 OA
ATOM      9  C   UNL     1      11.525   9.102  22.733  0.00  0.00    +0.173 C 
ATOM     10  C   UNL     1      12.637   9.272  21.716  0.00  0.00    +0.192 C 
ATOM     11  C   UNL     1      11.033  10.511  22.970  0.00  0.00    +0.130 C 
ATOM     12  C   UNL     1      12.467   8.055  20.840  0.00  0.00    +0.235 C 
ATOM     13  C   UNL     1      11.255  11.162  21.616  0.00  0.00    +0.185 C 
ATOM     14  C   UNL     1      10.964   7.890  20.810  0.00  0.00    +0.207 C 
ENDROOT
BRANCH  11   7
ATOM      4  O   UNL     1      10.185  12.702  24.677  0.00  0.00    -0.276 OA
ATOM      7  N   UNL     1      11.800  11.167  24.000  0.00  0.00    -0.307 N 
ATOM     18  C   UNL     1      11.307  12.211  24.769  0.00  0.00    +0.216 C 
ATOM     30  H   UNL     1      12.723  10.796  24.209  0.00  0.00    +0.149 HD
BRANCH  18  15
ATOM     15  C   UNL     1      12.303  12.693  25.783  0.00  0.00    +0.075 C 
ATOM     16  C   UNL     1      13.736  12.470  25.297  0.00  0.00    +0.013 C 
ATOM     17  C   UNL     1      12.021  14.153  26.145  0.00  0.00    +0.013 C 
ATOM     19  C   UNL     1      14.183  13.479  24.239  0.00  0.00    +0.001 C 
ATOM     20  C   UNL     1      12.473  15.135  25.066  0.00  0.00    +0.001 C 
ATOM     21  C   UNL     1      13.933  14.916  24.683  0.00  0.00    +0.000 C 
ENDBRANCH  18  15
ENDBRANCH  11   7
BRANCH  12   3
ATOM      3  O   UNL     1      13.009   8.212  19.549  0.00  0.00    -0.442 OA
BRANCH   3  22
ATOM      5  O   UNL     1      14.949   9.243  18.915  0.00  0.00    -0.226 OA
ATOM      8  N   UNL     1      14.960   7.196  20.051  0.00  0.00    -0.251 N 
ATOM     22  C   UNL     1      14.383   8.301  19.455  0.00  0.00    +0.405 C 
ATOM     31  H   UNL     1      14.319   6.514  20.450  0.00  0.00    +0.158 HD
BRANCH   8  23
ATOM     23  C   UNL     1      16.335   6.894  20.174  0.00  0.00    +0.037 A 
ATOM     24  C   UNL     1      17.097   7.510  21.167  0.00  0.00    +0.027 A 
ATOM     25  C   UNL     1      16.930   5.981  19.304  0.00  0.00    +0.027 A 
ATOM     26  C   UNL     1      18.455   7.212  21.290  0.00  0.00    +0.047 A 
ATOM     27  C   UNL     1      18.287   5.683  19.427  0.00  0.00    +0.047 A 
ATOM     28  C   UNL     1      19.049   6.299  20.419  0.00  0.00    +0.120 A 
BRANCH  28   6
ATOM      6  O   UNL     1      20.374   6.008  20.540  0.00  0.00    -0.495 OA
ATOM     29  C   UNL     1      20.741   4.629  20.508  0.00  0.00    +0.277 C 
ENDBRANCH  28   6
ENDBRANCH   8  23
ENDBRANCH   3  22
ENDBRANCH  12   3
TORSDOF 6
ENDMDL
MODEL 3
REMARK VINA RESULT:      -7.2     31.349     35.683
REMARK  Name = 40586265
REMARK  7 active torsions:
REMARK  status: ('A' for Active; 'I' for Inactive)
REMARK    1  A    between atoms: O_3  and  C_12
REMARK    2  A    between atoms: O_3  and  C_22
REMARK    3  A    between atoms: O_6  and  C_28
REMARK    4  A    between atoms: O_6  and  C_29
REMARK    5  A    between atoms: N_7  and  C_11
REMARK    6  A    between atoms: N_8  and  C_23
REMARK    7  A    between atoms: C_15  and  C_18
REMARK                            x       y       z     vdW  Elec       q    Type
REMARK                         _______ _______ _______ _____ _____    ______ ____
ROOT
ATOM      1  O   UNL     1      21.813   6.626  20.186  0.00  0.00    -0.368 OA
ATOM      2  O   UNL     1      20.872   5.728  22.963  0.00  0.00    -0.368 OA
ATOM      9  C   UNL     1      21.621   5.040  21.939  0.00  0.00    +0.173 C 
ATOM     10  C   UNL     1      21.050   5.483  20.606  0.00  0.00    +0.192 C 
ATOM     11  C   UNL     1      23.045   5.546  21.909  0.00  0.00    +0.130 C 
ATOM     12  C   UNL     1      19.633   5.857  20.966  0.00  0.00    +0.235 C 
ATOM     13  C   UNL     1      22.919   6.815  21.084  0.00  0.00    +0.185 C 
ATOM     14  C   UNL     1      19.801   6.456  22.345  0.00  0.00    +0.207 C 
ENDROOT
BRANCH  11   7
ATOM      4  O   UNL     1      25.732   4.813  22.730  0.00  0.00    -0.276 OA
ATOM      7  N   UNL     1      23.925   4.594  21.278  0.00  0.00    -0.307 N 
ATOM     18  C   UNL     1      25.199   4.309  21.746  0.00  0.00    +0.216 C 
ATOM     30  H   UNL     1      23.561   4.065  20.490  0.00  0.00    +0.149 HD
BRANCH  18  15
ATOM     15  C   UNL     1      25.891   3.264  20.919  0.00  0.00    +0.075 C 
ATOM     16  C   UNL     1      26.886   2.465  21.763  0.00  0.00    +0.013 C 
ATOM     17  C   UNL     1      24.859   2.376  20.221  0.00  0.00    +0.013 C 
ATOM     19  C   UNL     1      26.219   1.435  22.676  0.00  0.00    +0.001 C 
ATOM     20  C   UNL     1      24.208   1.363  21.161  0.00  0.00    +0.001 C 
ATOM     21  C   UNL     1      25.250   0.541  21.911  0.00  0.00    +0.000 C 
ENDBRANCH  18  15
ENDBRANCH  11   7
BRANCH  12   3
ATOM      3  O   UNL     1      19.044   6.764  20.062  0.00  0.00    -0.442 OA
BRANCH   3  22
ATOM      5  O   UNL     1      17.431   5.553  18.986  0.00  0.00    -0.226 OA
ATOM      8  N   UNL     1      16.910   7.482  20.205  0.00  0.00    -0.251 N 
ATOM     22  C   UNL     1      17.742   6.511  19.682  0.00  0.00    +0.405 C 
ATOM     31  H   UNL     1      17.358   8.204  20.764  0.00  0.00    +0.158 HD
BRANCH   8  23
ATOM     23  C   UNL     1      15.509   7.598  20.058  0.00  0.00    +0.037 A 
ATOM     24  C   UNL     1      14.980   8.476  19.112  0.00  0.00    +0.027 A 
ATOM     25  C   UNL     1      14.658   6.838  20.858  0.00  0.00    +0.027 A 
ATOM     26  C   UNL     1      13.596   8.592  18.966  0.00  0.00    +0.047 A 
ATOM     27  C   UNL     1      13.275   6.953  20.712  0.00  0.00    +0.047 A 
ATOM     28  C   UNL     1      12.745   7.831  19.767  0.00  0.00    +0.120 A 
BRANCH  28   6
ATOM      6  O   UNL     1      11.396   7.944  19.624  0.00  0.00    -0.495 OA
ATOM     29  C   UNL     1      10.630   8.121  20.816  0.00  0.00    +0.277 C 
ENDBRANCH  28   6
ENDBRANCH   8  23
ENDBRANCH   3  22
ENDBRANCH  12   3
TORSDOF 6
ENDMDL
MODEL 4
REMARK VINA RESULT:      -7.0     18.441     19.955
REMARK  Name = 40586265
REMARK  7 active torsions:
REMARK  status: ('A' for Active; 'I' for Inactive)
REMARK    1  A    between atoms: O_3  and  C_12
REMARK    2  A    between atoms: O_3  and  C_22
REMARK    3  A    between atoms: O_6  and  C_28
REMARK    4  A    between atoms: O_6  and  C_29
REMARK    5  A    between atoms: N_7  and  C_11
REMARK    6  A    between atoms: N_8  and  C_23
REMARK    7  A    between atoms: C_15  and  C_18
REMARK                            x       y       z     vdW  Elec       q    Type
REMARK                         _______ _______ _______ _____ _____    ______ ____
ROOT
ATOM      1  O   UNL     1      -6.742 -11.509  17.009  0.00  0.00    -0.368 OA
ATOM      2  O   UNL     1      -6.176 -11.206  20.007  0.00  0.00    -0.368 OA
ATOM      9  C   UNL     1      -6.753 -10.297  19.047  0.00  0.00    +0.173 C 
ATOM     10  C   UNL     1      -6.014 -10.509  17.741  0.00  0.00    +0.192 C 
ATOM     11  C   UNL     1      -8.173 -10.709  18.731  0.00  0.00    +0.130 C 
ATOM     12  C   UNL     1      -4.672 -11.021  18.206  0.00  0.00    +0.235 C 
ATOM     13  C   UNL     1      -7.967 -11.803  17.698  0.00  0.00    +0.185 C 
ATOM     14  C   UNL     1      -5.049 -11.861  19.406  0.00  0.00    +0.207 C 
ENDROOT
BRANCH  11   7
ATOM      4  O   UNL     1     -11.060 -10.483  18.524  0.00  0.00    -0.276 OA
ATOM      7  N   UNL     1      -8.928  -9.608  18.187  0.00  0.00    -0.307 N 
ATOM     18  C   UNL     1     -10.314  -9.591  18.131  0.00  0.00    +0.216 C 
ATOM     30  H   UNL     1      -8.414  -8.783  17.893  0.00  0.00    +0.149 HD
BRANCH  18  15
ATOM     15  C   UNL     1     -10.846  -8.316  17.541  0.00  0.00    +0.075 C 
ATOM     16  C   UNL     1      -9.844  -7.704  16.561  0.00  0.00    +0.013 C 
ATOM     17  C   UNL     1     -12.218  -8.560  16.910  0.00  0.00    +0.013 C 
ATOM     19  C   UNL     1      -9.799  -8.420  15.211  0.00  0.00    +0.001 C 
ATOM     20  C   UNL     1     -12.139  -9.283  15.567  0.00  0.00    +0.001 C 
ATOM     21  C   UNL     1     -11.188  -8.578  14.605  0.00  0.00    +0.000 C 
ENDBRANCH  18  15
ENDBRANCH  11   7
BRANCH  12   3
ATOM      3  O   UNL     1      -3.988 -11.771  17.228  0.00  0.00    -0.442 OA
BRANCH   3  22
ATOM      5  O   UNL     1      -2.475 -10.297  16.354  0.00  0.00    -0.226 OA
ATOM      8  N   UNL     1      -4.058 -11.375  15.008  0.00  0.00    -0.251 N 
ATOM     22  C   UNL     1      -3.413 -11.066  16.190  0.00  0.00    +0.405 C 
ATOM     31  H   UNL     1      -4.823 -12.042  15.075  0.00  0.00    +0.158 HD
BRANCH   8  23
ATOM     23  C   UNL     1      -3.787 -10.876  13.714  0.00  0.00    +0.037 A 
ATOM     24  C   UNL     1      -4.811 -10.297  12.964  0.00  0.00    +0.027 A 
ATOM     25  C   UNL     1      -2.500 -10.964  13.187  0.00  0.00    +0.027 A 
ATOM     26  C   UNL     1      -4.545  -9.804  11.685  0.00  0.00    +0.047 A 
ATOM     27  C   UNL     1      -2.233 -10.471  11.909  0.00  0.00    +0.047 A 
ATOM     28  C   UNL     1      -3.256  -9.892  11.159  0.00  0.00    +0.120 A 
BRANCH  28   6
ATOM      6  O   UNL     1      -2.997  -9.411   9.912  0.00  0.00    -0.495 OA
ATOM     29  C   UNL     1      -4.082  -8.801   9.213  0.00  0.00    +0.277 C 
ENDBRANCH  28   6
ENDBRANCH   8  23
ENDBRANCH   3  22
ENDBRANCH  12   3
TORSDOF 6
ENDMDL
MODEL 5
REMARK VINA RESULT:      -6.8     16.087     18.768
REMARK  Name = 40586265
REMARK  7 active torsions:
REMARK  status: ('A' for Active; 'I' for Inactive)
REMARK    1  A    between atoms: O_3  and  C_12
REMARK    2  A    between atoms: O_3  and  C_22
REMARK    3  A    between atoms: O_6  and  C_28
REMARK    4  A    between atoms: O_6  and  C_29
REMARK    5  A    between atoms: N_7  and  C_11
REMARK    6  A    between atoms: N_8  and  C_23
REMARK    7  A    between atoms: C_15  and  C_18
REMARK                            x       y       z     vdW  Elec       q    Type
REMARK                         _______ _______ _______ _____ _____    ______ ____
ROOT
ATOM      1  O   UNL     1     -12.154  -7.966  14.499  0.00  0.00    -0.368 OA
ATOM      2  O   UNL     1     -11.160  -6.062  16.688  0.00  0.00    -0.368 OA
ATOM      9  C   UNL     1     -11.053  -6.004  15.250  0.00  0.00    +0.173 C 
ATOM     10  C   UNL     1     -10.849  -7.426  14.766  0.00  0.00    +0.192 C 
ATOM     11  C   UNL     1     -12.380  -5.604  14.647  0.00  0.00    +0.130 C 
ATOM     12  C   UNL     1     -10.205  -8.087  15.961  0.00  0.00    +0.235 C 
ATOM     13  C   UNL     1     -13.133  -6.922  14.622  0.00  0.00    +0.185 C 
ATOM     14  C   UNL     1     -10.903  -7.407  17.118  0.00  0.00    +0.207 C 
ENDROOT
BRANCH  11   7
ATOM      4  O   UNL     1     -13.940  -3.512  13.373  0.00  0.00    -0.276 OA
ATOM      7  N   UNL     1     -12.211  -5.070  13.318  0.00  0.00    -0.307 N 
ATOM     18  C   UNL     1     -13.010  -4.065  12.794  0.00  0.00    +0.216 C 
ATOM     30  H   UNL     1     -11.424  -5.409  12.770  0.00  0.00    +0.149 HD
BRANCH  18  15
ATOM     15  C   UNL     1     -12.603  -3.679  11.401  0.00  0.00    +0.075 C 
ATOM     16  C   UNL     1     -11.882  -4.832  10.700  0.00  0.00    +0.013 C 
ATOM     17  C   UNL     1     -13.818  -3.177  10.618  0.00  0.00    +0.013 C 
ATOM     19  C   UNL     1     -12.824  -5.937  10.221  0.00  0.00    +0.001 C 
ATOM     20  C   UNL     1     -14.741  -4.304  10.159  0.00  0.00    +0.001 C 
ATOM     21  C   UNL     1     -13.978  -5.381   9.395  0.00  0.00    +0.000 C 
ENDBRANCH  18  15
ENDBRANCH  11   7
BRANCH  12   3
ATOM      3  O   UNL     1     -10.374  -9.486  15.988  0.00  0.00    -0.442 OA
BRANCH   3  22
ATOM      5  O   UNL     1      -9.221 -11.424  15.610  0.00  0.00    -0.226 OA
ATOM      8  N   UNL     1      -8.157  -9.497  16.408  0.00  0.00    -0.251 N 
ATOM     22  C   UNL     1      -9.227 -10.254  15.970  0.00  0.00    +0.405 C 
ATOM     31  H   UNL     1      -8.362  -8.535  16.666  0.00  0.00    +0.158 HD
BRANCH   8  23
ATOM     23  C   UNL     1      -6.808  -9.896  16.543  0.00  0.00    +0.037 A 
ATOM     24  C   UNL     1      -6.322 -10.296  17.788  0.00  0.00    +0.027 A 
ATOM     25  C   UNL     1      -5.963  -9.889  15.434  0.00  0.00    +0.027 A 
ATOM     26  C   UNL     1      -4.990 -10.690  17.923  0.00  0.00    +0.047 A 
ATOM     27  C   UNL     1      -4.631 -10.283  15.569  0.00  0.00    +0.047 A 
ATOM     28  C   UNL     1      -4.145 -10.682  16.813  0.00  0.00    +0.120 A 
BRANCH  28   6
ATOM      6  O   UNL     1      -2.846 -11.067  16.945  0.00  0.00    -0.495 OA
ATOM     29  C   UNL     1      -1.970 -10.776  15.857  0.00  0.00    +0.277 C 
ENDBRANCH  28   6
ENDBRANCH   8  23
ENDBRANCH   3  22
ENDBRANCH  12   3
TORSDOF 6
ENDMDL
MODEL 6
REMARK VINA RESULT:      -6.6     20.461     21.830
REMARK  Name = 40586265
REMARK  7 active torsions:
REMARK  status: ('A' for Active; 'I' for Inactive)
REMARK    1  A    between atoms: O_3  and  C_12
REMARK    2  A    between atoms: O_3  and  C_22
REMARK    3  A    between atoms: O_6  and  C_28
REMARK    4  A    between atoms: O_6  and  C_29
REMARK    5  A    between atoms: N_7  and  C_11
REMARK    6  A    between atoms: N_8  and  C_23
REMARK    7  A    between atoms: C_15  and  C_18
REMARK                            x       y       z     vdW  Elec       q    Type
REMARK                         _______ _______ _______ _____ _____    ______ ____
ROOT
ATOM      1  O   UNL     1      -3.929 -11.949  14.532  0.00  0.00    -0.368 OA
ATOM      2  O   UNL     1      -1.817 -10.861  16.470  0.00  0.00    -0.368 OA
ATOM      9  C   UNL     1      -3.157 -10.418  16.170  0.00  0.00    +0.173 C 
ATOM     10  C   UNL     1      -3.369 -10.634  14.685  0.00  0.00    +0.192 C 
ATOM     11  C   UNL     1      -4.164 -11.339  16.818  0.00  0.00    +0.130 C 
ATOM     12  C   UNL     1      -1.963 -10.557  14.141  0.00  0.00    +0.235 C 
ATOM     13  C   UNL     1      -4.232 -12.489  15.828  0.00  0.00    +0.185 C 
ATOM     14  C   UNL     1      -1.157 -11.207  15.243  0.00  0.00    +0.207 C 
ENDROOT
BRANCH  11   7
ATOM      4  O   UNL     1      -5.838 -11.253  19.189  0.00  0.00    -0.276 OA
ATOM      7  N   UNL     1      -5.446 -10.695  16.962  0.00  0.00    -0.307 N 
ATOM     18  C   UNL     1      -6.175 -10.707  18.142  0.00  0.00    +0.216 C 
ATOM     30  H   UNL     1      -5.793 -10.153  16.176  0.00  0.00    +0.149 HD
BRANCH  18  15
ATOM     15  C   UNL     1      -7.461  -9.940  18.027  0.00  0.00    +0.075 C 
ATOM     16  C   UNL     1      -7.777  -9.612  16.566  0.00  0.00    +0.013 C 
ATOM     17  C   UNL     1      -8.593 -10.702  18.721  0.00  0.00    +0.013 C 
ATOM     19  C   UNL     1      -8.309 -10.808  15.776  0.00  0.00    +0.001 C 
ATOM     20  C   UNL     1      -9.098 -11.893  17.909  0.00  0.00    +0.001 C 
ATOM     21  C   UNL     1      -9.474 -11.487  16.488  0.00  0.00    +0.000 C 
ENDBRANCH  18  15
ENDBRANCH  11   7
BRANCH  12   3
ATOM      3  O   UNL     1      -1.802 -11.218  12.906  0.00  0.00    -0.442 OA
BRANCH   3  22
ATOM      5  O   UNL     1      -1.505  -9.617  11.302  0.00  0.00    -0.226 OA
ATOM      8  N   UNL     1      -3.378 -11.020  11.304  0.00  0.00    -0.251 N 
ATOM     22  C   UNL     1      -2.177 -10.525  11.773  0.00  0.00    +0.405 C 
ATOM     31  H   UNL     1      -3.787 -11.784  11.836  0.00  0.00    +0.158 HD
BRANCH   8  23
ATOM     23  C   UNL     1      -4.111 -10.596  10.173  0.00  0.00    +0.037 A 
ATOM     24  C   UNL     1      -4.132 -11.383   9.021  0.00  0.00    +0.027 A 
ATOM     25  C   UNL     1      -4.813  -9.391  10.208  0.00  0.00    +0.027 A 
ATOM     26  C   UNL     1      -4.856 -10.965   7.904  0.00  0.00    +0.047 A 
ATOM     27  C   UNL     1      -5.537  -8.973   9.091  0.00  0.00    +0.047 A 
ATOM     28  C   UNL     1      -5.557  -9.759   7.939  0.00  0.00    +0.120 A 
BRANCH  28   6
ATOM      6  O   UNL     1      -6.264  -9.352   6.849  0.00  0.00    -0.495 OA
ATOM     29  C   UNL     1      -6.231 -10.199   5.701  0.00  0.00    +0.277 C 
ENDBRANCH  28   6
ENDBRANCH   8  23
ENDBRANCH   3  22
ENDBRANCH  12   3
TORSDOF 6
ENDMDL
MODEL 7
REMARK VINA RESULT:      -6.5     15.726     18.656
REMARK  Name = 40586265
REMARK  7 active torsions:
REMARK  status: ('A' for Active; 'I' for Inactive)
REMARK    1  A    between atoms: O_3  and  C_12
REMARK    2  A    between atoms: O_3  and  C_22
REMARK    3  A    between atoms: O_6  and  C_28
REMARK    4  A    between atoms: O_6  and  C_29
REMARK    5  A    between atoms: N_7  and  C_11
REMARK    6  A    between atoms: N_8  and  C_23
REMARK    7  A    between atoms: C_15  and  C_18
REMARK                            x       y       z     vdW  Elec       q    Type
REMARK                         _______ _______ _______ _____ _____    ______ ____
ROOT
ATOM      1  O   UNL     1     -11.934  -7.702  13.681  0.00  0.00    -0.368 OA
ATOM      2  O   UNL     1     -13.677  -7.265  16.165  0.00  0.00    -0.368 OA
ATOM      9  C   UNL     1     -13.067  -6.332  15.250  0.00  0.00    +0.173 C 
ATOM     10  C   UNL     1     -11.721  -6.912  14.862  0.00  0.00    +0.192 C 
ATOM     11  C   UNL     1     -13.837  -6.303  13.949  0.00  0.00    +0.130 C 
ATOM     12  C   UNL     1     -11.381  -7.769  16.057  0.00  0.00    +0.235 C 
ATOM     13  C   UNL     1     -13.280  -7.513  13.219  0.00  0.00    +0.185 C 
ATOM     14  C   UNL     1     -12.735  -8.307  16.461  0.00  0.00    +0.207 C 
ENDROOT
BRANCH  11   7
ATOM      4  O   UNL     1     -15.683  -4.857  12.237  0.00  0.00    -0.276 OA
ATOM      7  N   UNL     1     -13.584  -5.086  13.218  0.00  0.00    -0.307 N 
ATOM     18  C   UNL     1     -14.535  -4.465  12.421  0.00  0.00    +0.216 C 
ATOM     30  H   UNL     1     -12.683  -4.635  13.350  0.00  0.00    +0.149 HD
BRANCH  18  15
ATOM     15  C   UNL     1     -14.018  -3.203  11.794  0.00  0.00    +0.075 C 
ATOM     16  C   UNL     1     -12.493  -3.234  11.671  0.00  0.00    +0.013 C 
ATOM     17  C   UNL     1     -14.716  -2.956  10.455  0.00  0.00    +0.013 C 
ATOM     19  C   UNL     1     -11.995  -4.118  10.527  0.00  0.00    +0.001 C 
ATOM     20  C   UNL     1     -14.199  -3.858   9.336  0.00  0.00    +0.001 C 
ATOM     21  C   UNL     1     -12.682  -3.783   9.208  0.00  0.00    +0.000 C 
ENDBRANCH  18  15
ENDBRANCH  11   7
BRANCH  12   3
ATOM      3  O   UNL     1     -10.467  -8.802  15.764  0.00  0.00    -0.442 OA
BRANCH   3  22
ATOM      5  O   UNL     1      -9.340  -8.388  17.710  0.00  0.00    -0.226 OA
ATOM      8  N   UNL     1      -8.471  -9.810  16.067  0.00  0.00    -0.251 N 
ATOM     22  C   UNL     1      -9.399  -8.953  16.626  0.00  0.00    +0.405 C 
ATOM     31  H   UNL     1      -8.700 -10.183  15.149  0.00  0.00    +0.158 HD
BRANCH   8  23
ATOM     23  C   UNL     1      -7.238 -10.233  16.613  0.00  0.00    +0.037 A 
ATOM     24  C   UNL     1      -7.217 -11.210  17.608  0.00  0.00    +0.027 A 
ATOM     25  C   UNL     1      -6.045  -9.673  16.159  0.00  0.00    +0.027 A 
ATOM     26  C   UNL     1      -5.999 -11.629  18.148  0.00  0.00    +0.047 A 
ATOM     27  C   UNL     1      -4.828 -10.091  16.698  0.00  0.00    +0.047 A 
ATOM     28  C   UNL     1      -4.806 -11.068  17.694  0.00  0.00    +0.120 A 
BRANCH  28   6
ATOM      6  O   UNL     1      -3.619 -11.477  18.221  0.00  0.00    -0.495 OA
ATOM     29  C   UNL     1      -3.670 -12.205  19.447  0.00  0.00    +0.277 C 
ENDBRANCH  28   6
ENDBRANCH   8  23
ENDBRANCH   3  22
ENDBRANCH  12   3
TORSDOF 6
ENDMDL
MODEL 8
REMARK VINA RESULT:      -6.4     20.688     21.939
REMARK  Name = 40586265
REMARK  7 active torsions:
REMARK  status: ('A' for Active; 'I' for Inactive)
REMARK    1  A    between atoms: O_3  and  C_12
REMARK    2  A    between atoms: O_3  and  C_22
REMARK    3  A    between atoms: O_6  and  C_28
REMARK    4  A    between atoms: O_6  and  C_29
REMARK    5  A    between atoms: N_7  and  C_11
REMARK    6  A    between atoms: N_8  and  C_23
REMARK    7  A    between atoms: C_15  and  C_18
REMARK                            x       y       z     vdW  Elec       q    Type
REMARK                         _______ _______ _______ _____ _____    ______ ____
ROOT
ATOM      1  O   UNL     1      -4.608 -11.932  13.458  0.00  0.00    -0.368 OA
ATOM      2  O   UNL     1      -1.672 -11.285  14.064  0.00  0.00    -0.368 OA
ATOM      9  C   UNL     1      -2.899 -10.711  14.561  0.00  0.00    +0.173 C 
ATOM     10  C   UNL     1      -3.877 -10.695  13.403  0.00  0.00    +0.192 C 
ATOM     11  C   UNL     1      -3.540 -11.645  15.563  0.00  0.00    +0.130 C 
ATOM     12  C   UNL     1      -2.962 -10.639  12.204  0.00  0.00    +0.235 C 
ATOM     13  C   UNL     1      -4.265 -12.631  14.665  0.00  0.00    +0.185 C 
ATOM     14  C   UNL     1      -1.798 -11.495  12.650  0.00  0.00    +0.207 C 
ENDROOT
BRANCH  11   7
ATOM      4  O   UNL     1      -4.200 -12.257  18.323  0.00  0.00    -0.276 OA
ATOM      7  N   UNL     1      -4.460 -10.940  16.420  0.00  0.00    -0.307 N 
ATOM     18  C   UNL     1      -4.711 -11.309  17.733  0.00  0.00    +0.216 C 
ATOM     30  H   UNL     1      -4.892 -10.095  16.056  0.00  0.00    +0.149 HD
BRANCH  18  15
ATOM     15  C   UNL     1      -5.690 -10.392  18.407  0.00  0.00    +0.075 C 
ATOM     16  C   UNL     1      -6.859 -10.057  17.478  0.00  0.00    +0.013 C 
ATOM     17  C   UNL     1      -6.146 -10.994  19.738  0.00  0.00    +0.013 C 
ATOM     19  C   UNL     1      -7.872 -11.193  17.342  0.00  0.00    +0.001 C 
ATOM     20  C   UNL     1      -7.153 -12.130  19.567  0.00  0.00    +0.001 C 
ATOM     21  C   UNL     1      -8.334 -11.708  18.700  0.00  0.00    +0.000 C 
ENDBRANCH  18  15
ENDBRANCH  11   7
BRANCH  12   3
ATOM      3  O   UNL     1      -3.555 -11.124  11.021  0.00  0.00    -0.442 OA
BRANCH   3  22
ATOM      5  O   UNL     1      -3.351  -9.145   9.894  0.00  0.00    -0.226 OA
ATOM      8  N   UNL     1      -5.130 -10.612   9.488  0.00  0.00    -0.251 N 
ATOM     22  C   UNL     1      -3.966 -10.184  10.098  0.00  0.00    +0.405 C 
ATOM     31  H   UNL     1      -5.493 -11.512   9.795  0.00  0.00    +0.158 HD
BRANCH   8  23
ATOM     23  C   UNL     1      -5.881  -9.953   8.490  0.00  0.00    +0.037 A 
ATOM     24  C   UNL     1      -5.676 -10.264   7.145  0.00  0.00    +0.027 A 
ATOM     25  C   UNL     1      -6.827  -8.993   8.847  0.00  0.00    +0.027 A 
ATOM     26  C   UNL     1      -6.418  -9.614   6.158  0.00  0.00    +0.047 A 
ATOM     27  C   UNL     1      -7.569  -8.343   7.860  0.00  0.00    +0.047 A 
ATOM     28  C   UNL     1      -7.363  -8.654   6.516  0.00  0.00    +0.120 A 
BRANCH  28   6
ATOM      6  O   UNL     1      -8.087  -8.020   5.552  0.00  0.00    -0.495 OA
ATOM     29  C   UNL     1      -7.679  -8.219   4.199  0.00  0.00    +0.277 C 
ENDBRANCH  28   6
ENDBRANCH   8  23
ENDBRANCH   3  22
ENDBRANCH  12   3
TORSDOF 6
ENDMDL
MODEL 9
REMARK VINA RESULT:      -6.2     32.662     34.810
REMARK  Name = 40586265
REMARK  7 active torsions:
REMARK  status: ('A' for Active; 'I' for Inactive)
REMARK    1  A    between atoms: O_3  and  C_12
REMARK    2  A    between atoms: O_3  and  C_22
REMARK    3  A    between atoms: O_6  and  C_28
REMARK    4  A    between atoms: O_6  and  C_29
REMARK    5  A    between atoms: N_7  and  C_11
REMARK    6  A    between atoms: N_8  and  C_23
REMARK    7  A    between atoms: C_15  and  C_18
REMARK                            x       y       z     vdW  Elec       q    Type
REMARK                         _______ _______ _______ _____ _____    ______ ____
ROOT
ATOM      1  O   UNL     1      15.585  -7.548  26.463  0.00  0.00    -0.368 OA
ATOM      2  O   UNL     1      18.470  -8.336  25.785  0.00  0.00    -0.368 OA
ATOM      9  C   UNL     1      17.540  -7.455  25.123  0.00  0.00    +0.173 C 
ATOM     10  C   UNL     1      16.166  -8.081  25.261  0.00  0.00    +0.192 C 
ATOM     11  C   UNL     1      17.424  -6.155  25.886  0.00  0.00    +0.130 C 
ATOM     12  C   UNL     1      16.490  -9.549  25.398  0.00  0.00    +0.235 C 
ATOM     13  C   UNL     1      16.435  -6.513  26.982  0.00  0.00    +0.185 C 
ATOM     14  C   UNL     1      17.772  -9.520  26.200  0.00  0.00    +0.207 C 
ENDROOT
BRANCH  11   7
ATOM      4  O   UNL     1      18.841  -4.739  23.785  0.00  0.00    -0.276 OA
ATOM      7  N   UNL     1      16.917  -5.098  25.046  0.00  0.00    -0.307 N 
ATOM     18  C   UNL     1      17.674  -4.479  24.063  0.00  0.00    +0.216 C 
ATOM     30  H   UNL     1      15.938  -4.847  25.144  0.00  0.00    +0.149 HD
BRANCH  18  15
ATOM     15  C   UNL     1      16.898  -3.431  23.320  0.00  0.00    +0.075 C 
ATOM     16  C   UNL     1      15.832  -2.797  24.216  0.00  0.00    +0.013 C 
ATOM     17  C   UNL     1      17.852  -2.399  22.713  0.00  0.00    +0.013 C 
ATOM     19  C   UNL     1      16.402  -1.796  25.222  0.00  0.00    +0.001 C 
ATOM     20  C   UNL     1      18.407  -1.419  23.745  0.00  0.00    +0.001 C 
ATOM     21  C   UNL     1      17.293  -0.759  24.550  0.00  0.00    +0.000 C 
ENDBRANCH  18  15
ENDBRANCH  11   7
BRANCH  12   3
ATOM      3  O   UNL     1      15.478 -10.289  26.043  0.00  0.00    -0.442 OA
BRANCH   3  22
ATOM      5  O   UNL     1      13.515 -11.057  25.159  0.00  0.00    -0.226 OA
ATOM      8  N   UNL     1      15.568 -12.052  24.638  0.00  0.00    -0.251 N 
ATOM     22  C   UNL     1      14.732 -11.142  25.255  0.00  0.00    +0.405 C 
ATOM     31  H   UNL     1      16.560 -11.963  24.844  0.00  0.00    +0.158 HD
BRANCH   8  23
ATOM     23  C   UNL     1      15.215 -13.096  23.753  0.00  0.00    +0.037 A 
ATOM     24  C   UNL     1      14.665 -14.276  24.252  0.00  0.00    +0.027 A 
ATOM     25  C   UNL     1      15.418 -12.946  22.381  0.00  0.00    +0.027 A 
ATOM     26  C   UNL     1      14.316 -15.308  23.379  0.00  0.00    +0.047 A 
ATOM     27  C   UNL     1      15.069 -13.977  21.508  0.00  0.00    +0.047 A 
ATOM     28  C   UNL     1      14.519 -15.157  22.008  0.00  0.00    +0.120 A 
BRANCH  28   6
ATOM      6  O   UNL     1      14.178 -16.164  21.156  0.00  0.00    -0.495 OA
ATOM     29  C   UNL     1      15.001 -16.344  20.003  0.00  0.00    +0.277 C 
ENDBRANCH  28   6
ENDBRANCH   8  23
ENDBRANCH   3  22
ENDBRANCH  12   3
TORSDOF 6
ENDMDL
MODEL 10
REMARK VINA RESULT:      -6.2     20.628     23.763
REMARK  Name = 40586265
REMARK  7 active torsions:
REMARK  status: ('A' for Active; 'I' for Inactive)
REMARK    1  A    between atoms: O_3  and  C_12
REMARK    2  A    between atoms: O_3  and  C_22
REMARK    3  A    between atoms: O_6  and  C_28
REMARK    4  A    between atoms: O_6  and  C_29
REMARK    5  A    between atoms: N_7  and  C_11
REMARK    6  A    between atoms: N_8  and  C_23
REMARK    7  A    between atoms: C_15  and  C_18
REMARK                            x       y       z     vdW  Elec       q    Type
REMARK                         _______ _______ _______ _____ _____    ______ ____
ROOT
ATOM      1  O   UNL     1      -4.230  -9.338  11.371  0.00  0.00    -0.368 OA
ATOM      2  O   UNL     1      -3.295 -12.155  10.602  0.00  0.00    -0.368 OA
ATOM      9  C   UNL     1      -4.592 -11.526  10.531  0.00  0.00    +0.173 C 
ATOM     10  C   UNL     1      -4.716 -10.636  11.752  0.00  0.00    +0.192 C 
ATOM     11  C   UNL     1      -4.635 -10.557   9.371  0.00  0.00    +0.130 C 
ATOM     12  C   UNL     1      -3.796 -11.310  12.741  0.00  0.00    +0.235 C 
ATOM     13  C   UNL     1      -3.975  -9.322   9.958  0.00  0.00    +0.185 C 
ATOM     14  C   UNL     1      -2.679 -11.808  11.852  0.00  0.00    +0.207 C 
ENDROOT
BRANCH  11   7
ATOM      4  O   UNL     1      -5.600  -9.996   6.691  0.00  0.00    -0.276 OA
ATOM      7  N   UNL     1      -5.992 -10.286   8.967  0.00  0.00    -0.307 N 
ATOM     18  C   UNL     1      -6.359 -10.028   7.655  0.00  0.00    +0.216 C 
ATOM     30  H   UNL     1      -6.718 -10.352   9.676  0.00  0.00    +0.149 HD
BRANCH  18  15
ATOM     15  C   UNL     1      -7.836  -9.802   7.508  0.00  0.00    +0.075 C 
ATOM     16  C   UNL     1      -8.359  -8.860   8.594  0.00  0.00    +0.013 C 
ATOM     17  C   UNL     1      -8.156  -9.312   6.094  0.00  0.00    +0.013 C 
ATOM     19  C   UNL     1      -8.015  -7.392   8.343  0.00  0.00    +0.001 C 
ATOM     20  C   UNL     1      -7.795  -7.844   5.874  0.00  0.00    +0.001 C 
ATOM     21  C   UNL     1      -8.413  -6.947   6.940  0.00  0.00    +0.000 C 
ENDBRANCH  18  15
ENDBRANCH  11   7
BRANCH  12   3
ATOM      3  O   UNL     1      -3.325 -10.445  13.750  0.00  0.00    -0.442 OA
BRANCH   3  22
ATOM      5  O   UNL     1      -2.558 -11.150  15.784  0.00  0.00    -0.226 OA
ATOM      8  N   UNL     1      -4.843 -10.873  15.363  0.00  0.00    -0.251 N 
ATOM     22  C   UNL     1      -3.496 -10.857  15.056  0.00  0.00    +0.405 C 
ATOM     31  H   UNL     1      -5.478 -10.594  14.618  0.00  0.00    +0.158 HD
BRANCH   8  23
ATOM     23  C   UNL     1      -5.452 -11.233  16.586  0.00  0.00    +0.037 A 
ATOM     24  C   UNL     1      -5.523 -10.307  17.627  0.00  0.00    +0.027 A 
ATOM     25  C   UNL     1      -5.980 -12.513  16.754  0.00  0.00    +0.027 A 
ATOM     26  C   UNL     1      -6.124 -10.661  18.836  0.00  0.00    +0.047 A 
ATOM     27  C   UNL     1      -6.581 -12.867  17.962  0.00  0.00    +0.047 A 
ATOM     28  C   UNL     1      -6.652 -11.941  19.003  0.00  0.00    +0.120 A 
BRANCH  28   6
ATOM      6  O   UNL     1      -7.238 -12.286  20.182  0.00  0.00    -0.495 OA
ATOM     29  C   UNL     1      -8.540 -12.867  20.114  0.00  0.00    +0.277 C 
ENDBRANCH  28   6
ENDBRANCH   8  23
ENDBRANCH   3  22
ENDBRANCH  12   3
TORSDOF 6
ENDMDL
