MODEL 1
REMARK VINA RESULT:      -8.6      0.000      0.000
REMARK  Name = 7155575
REMARK  3 active torsions:
REMARK  status: ('A' for Active; 'I' for Inactive)
REMARK    1  A    between atoms: N_7  and  C_20
REMARK    2  A    between atoms: N_9  and  C_28
REMARK    3  A    between atoms: C_19  and  C_22
REMARK                            x       y       z     vdW  Elec       q    Type
REMARK                         _______ _______ _______ _____ _____    ______ ____
ROOT
ATOM      2  O   UNL     1      15.403   5.815  20.768  0.00  0.00    -0.266 OA
ATOM      3  O   UNL     1      11.565   7.376  17.671  0.00  0.00    -0.270 OA
ATOM      5  N   UNL     1      11.806   8.974  19.363  0.00  0.00    -0.297 N 
ATOM      6  N   UNL     1      14.301   7.864  20.977  0.00  0.00    -0.310 N 
ATOM     10  C   UNL     1      11.843   8.050  21.674  0.00  0.00    +0.027 C 
ATOM     11  C   UNL     1      13.124  10.086  21.149  0.00  0.00    +0.054 C 
ATOM     12  C   UNL     1      12.245   9.421  22.207  0.00  0.00    +0.018 C 
ATOM     13  C   UNL     1      11.063   8.195  20.354  0.00  0.00    +0.113 C 
ATOM     14  C   UNL     1      13.105   7.195  21.508  0.00  0.00    +0.130 C 
ATOM     15  C   UNL     1      12.319  10.266  19.846  0.00  0.00    +0.117 C 
ATOM     16  C   UNL     1      14.365   9.258  20.872  0.00  0.00    +0.027 A 
ATOM     17  C   UNL     1      15.507   9.856  20.494  0.00  0.00    +0.024 A 
ATOM     18  C   UNL     1      15.406   7.043  20.675  0.00  0.00    +0.273 A 
ATOM     19  C   UNL     1      11.991   8.454  18.080  0.00  0.00    +0.248 C 
ATOM     20  C   UNL     1      16.651   7.747  20.231  0.00  0.00    +0.100 A 
ATOM     21  C   UNL     1      16.671   9.083  20.167  0.00  0.00    +0.030 A 
ENDROOT
BRANCH  20   7
ATOM      4  O   UNL     1      18.808   7.093  21.967  0.00  0.00    -0.252 OA
ATOM      7  N   UNL     1      17.737   6.986  19.913  0.00  0.00    -0.265 N 
ATOM      9  N   UNL     1      19.738   5.892  20.177  0.00  0.00    -0.269 N 
ATOM     25  C   UNL     1      18.776   6.691  20.806  0.00  0.00    +0.308 C 
ATOM     34  H   UNL     1      17.919   6.834  18.924  0.00  0.00    +0.157 HD
ATOM     35  H   UNL     1      19.559   5.644  19.208  0.00  0.00    +0.156 HD
BRANCH   9  28
ATOM      1 CL   UNL     1      24.740   3.753  22.475  0.00  0.00    -0.084 Cl
ATOM     28  C   UNL     1      20.935   5.380  20.728  0.00  0.00    +0.035 A 
ATOM     29  C   UNL     1      21.986   6.244  20.989  0.00  0.00    +0.025 A 
ATOM     30  C   UNL     1      21.033   4.024  20.994  0.00  0.00    +0.025 A 
ATOM     31  C   UNL     1      23.167   5.739  21.532  0.00  0.00    +0.022 A 
ATOM     32  C   UNL     1      22.216   3.519  21.537  0.00  0.00    +0.022 A 
ATOM     33  C   UNL     1      23.283   4.376  21.805  0.00  0.00    +0.041 A 
ENDBRANCH   9  28
ENDBRANCH  20   7
BRANCH  19  22
ATOM      8  N   UNL     1      12.944  10.291  14.961  0.00  0.00    -0.263 NA
ATOM     22  C   UNL     1      12.780   9.243  17.127  0.00  0.00    +0.055 A 
ATOM     23  C   UNL     1      14.054   9.683  17.452  0.00  0.00    +0.016 A 
ATOM     24  C   UNL     1      12.270   9.567  15.883  0.00  0.00    +0.123 A 
ATOM     26  C   UNL     1      14.778  10.429  16.529  0.00  0.00    +0.020 A 
ATOM     27  C   UNL     1      14.183  10.703  15.308  0.00  0.00    +0.111 A 
ENDBRANCH  19  22
TORSDOF 3
ENDMDL
MODEL 2
REMARK VINA RESULT:      -8.3      1.697      2.114
REMARK  Name = 7155575
REMARK  3 active torsions:
REMARK  status: ('A' for Active; 'I' for Inactive)
REMARK    1  A    between atoms: N_7  and  C_20
REMARK    2  A    between atoms: N_9  and  C_28
REMARK    3  A    between atoms: C_19  and  C_22
REMARK                            x       y       z     vdW  Elec       q    Type
REMARK                         _______ _______ _______ _____ _____    ______ ____
ROOT
ATOM      2  O   UNL     1      15.657   5.942  19.242  0.00  0.00    -0.266 OA
ATOM      3  O   UNL     1      12.811   9.796  17.292  0.00  0.00    -0.270 OA
ATOM      5  N   UNL     1      12.428   9.728  19.599  0.00  0.00    -0.297 N 
ATOM      6  N   UNL     1      14.404   7.429  20.535  0.00  0.00    -0.310 N 
ATOM     10  C   UNL     1      11.842   7.480  20.494  0.00  0.00    +0.027 C 
ATOM     11  C   UNL     1      13.077   9.076  21.905  0.00  0.00    +0.054 C 
ATOM     12  C   UNL     1      11.972   8.021  21.914  0.00  0.00    +0.018 C 
ATOM     13  C   UNL     1      11.481   8.615  19.518  0.00  0.00    +0.113 C 
ATOM     14  C   UNL     1      13.153   6.783  20.109  0.00  0.00    +0.130 C 
ATOM     15  C   UNL     1      12.683  10.228  20.959  0.00  0.00    +0.117 C 
ATOM     16  C   UNL     1      14.398   8.479  21.461  0.00  0.00    +0.027 A 
ATOM     17  C   UNL     1      15.557   8.977  21.924  0.00  0.00    +0.024 A 
ATOM     18  C   UNL     1      15.602   6.875  20.043  0.00  0.00    +0.273 A 
ATOM     19  C   UNL     1      13.021  10.211  18.430  0.00  0.00    +0.248 C 
ATOM     20  C   UNL     1      16.871   7.478  20.564  0.00  0.00    +0.100 A 
ATOM     21  C   UNL     1      16.816   8.465  21.464  0.00  0.00    +0.030 A 
ENDROOT
BRANCH  20   7
ATOM      4  O   UNL     1      18.923   6.287  22.132  0.00  0.00    -0.252 OA
ATOM      7  N   UNL     1      18.053   6.981  20.098  0.00  0.00    -0.265 N 
ATOM      9  N   UNL     1      20.124   5.993  20.137  0.00  0.00    -0.269 N 
ATOM     25  C   UNL     1      19.034   6.402  20.914  0.00  0.00    +0.308 C 
ATOM     34  H   UNL     1      18.335   7.264  19.163  0.00  0.00    +0.157 HD
ATOM     35  H   UNL     1      20.057   6.160  19.136  0.00  0.00    +0.156 HD
BRANCH   9  28
ATOM      1 CL   UNL     1      25.097   3.382  21.961  0.00  0.00    -0.084 Cl
ATOM     28  C   UNL     1      21.315   5.368  20.573  0.00  0.00    +0.035 A 
ATOM     29  C   UNL     1      21.283   4.035  20.949  0.00  0.00    +0.025 A 
ATOM     30  C   UNL     1      22.489   6.102  20.617  0.00  0.00    +0.025 A 
ATOM     31  C   UNL     1      22.458   3.418  21.379  0.00  0.00    +0.022 A 
ATOM     32  C   UNL     1      23.664   5.485  21.048  0.00  0.00    +0.022 A 
ATOM     33  C   UNL     1      23.648   4.143  21.430  0.00  0.00    +0.041 A 
ENDBRANCH   9  28
ENDBRANCH  20   7
BRANCH  19  22
ATOM      8  N   UNL     1      14.462  13.663  18.530  0.00  0.00    -0.263 NA
ATOM     22  C   UNL     1      13.999  11.296  18.555  0.00  0.00    +0.055 A 
ATOM     23  C   UNL     1      15.336  11.023  18.806  0.00  0.00    +0.016 A 
ATOM     24  C   UNL     1      13.612  12.617  18.426  0.00  0.00    +0.123 A 
ATOM     26  C   UNL     1      16.240  12.073  18.920  0.00  0.00    +0.020 A 
ATOM     27  C   UNL     1      15.757  13.363  18.775  0.00  0.00    +0.111 A 
ENDBRANCH  19  22
TORSDOF 3
ENDMDL
MODEL 3
REMARK VINA RESULT:      -8.0      5.523      8.919
REMARK  Name = 7155575
REMARK  3 active torsions:
REMARK  status: ('A' for Active; 'I' for Inactive)
REMARK    1  A    between atoms: N_7  and  C_20
REMARK    2  A    between atoms: N_9  and  C_28
REMARK    3  A    between atoms: C_19  and  C_22
REMARK                            x       y       z     vdW  Elec       q    Type
REMARK                         _______ _______ _______ _____ _____    ______ ____
ROOT
ATOM      2  O   UNL     1      12.260   9.203  16.855  0.00  0.00    -0.266 OA
ATOM      3  O   UNL     1      10.543   9.159  21.734  0.00  0.00    -0.270 OA
ATOM      5  N   UNL     1      12.752   8.390  21.753  0.00  0.00    -0.297 N 
ATOM      6  N   UNL     1      13.588   8.690  18.707  0.00  0.00    -0.310 N 
ATOM     10  C   UNL     1      13.241   6.578  20.117  0.00  0.00    +0.027 C 
ATOM     11  C   UNL     1      15.005   8.183  20.728  0.00  0.00    +0.054 C 
ATOM     12  C   UNL     1      14.728   6.712  20.426  0.00  0.00    +0.018 C 
ATOM     13  C   UNL     1      12.399   7.036  21.322  0.00  0.00    +0.113 C 
ATOM     14  C   UNL     1      12.925   7.385  18.851  0.00  0.00    +0.130 C 
ATOM     15  C   UNL     1      14.190   8.618  21.964  0.00  0.00    +0.117 C 
ATOM     16  C   UNL     1      14.645   9.061  19.545  0.00  0.00    +0.027 A 
ATOM     17  C   UNL     1      15.313  10.206  19.323  0.00  0.00    +0.024 A 
ATOM     18  C   UNL     1      13.173   9.496  17.628  0.00  0.00    +0.273 A 
ATOM     19  C   UNL     1      11.745   9.345  21.909  0.00  0.00    +0.248 C 
ATOM     20  C   UNL     1      13.926  10.775  17.432  0.00  0.00    +0.100 A 
ATOM     21  C   UNL     1      14.943  11.079  18.245  0.00  0.00    +0.030 A 
ENDROOT
BRANCH  20   7
ATOM      4  O   UNL     1      14.638  10.480  14.694  0.00  0.00    -0.252 OA
ATOM      7  N   UNL     1      13.543  11.593  16.409  0.00  0.00    -0.265 N 
ATOM      9  N   UNL     1      13.367  12.408  14.271  0.00  0.00    -0.269 N 
ATOM     25  C   UNL     1      13.921  11.404  15.073  0.00  0.00    +0.308 C 
ATOM     34  H   UNL     1      13.174  12.506  16.662  0.00  0.00    +0.157 HD
ATOM     35  H   UNL     1      12.791  13.100  14.743  0.00  0.00    +0.156 HD
BRANCH   9  28
ATOM      1 CL   UNL     1      13.948  13.122   8.438  0.00  0.00    -0.084 Cl
ATOM     28  C   UNL     1      13.506  12.578  12.874  0.00  0.00    +0.035 A 
ATOM     29  C   UNL     1      14.745  12.911  12.351  0.00  0.00    +0.025 A 
ATOM     30  C   UNL     1      12.400  12.411  12.057  0.00  0.00    +0.025 A 
ATOM     31  C   UNL     1      14.882  13.079  10.974  0.00  0.00    +0.022 A 
ATOM     32  C   UNL     1      12.537  12.580  10.679  0.00  0.00    +0.022 A 
ATOM     33  C   UNL     1      13.778  12.914  10.137  0.00  0.00    +0.041 A 
ENDBRANCH   9  28
ENDBRANCH  20   7
BRANCH  19  22
ATOM      8  N   UNL     1      12.475  12.328  24.048  0.00  0.00    -0.263 NA
ATOM     22  C   UNL     1      12.141  10.702  22.297  0.00  0.00    +0.055 A 
ATOM     23  C   UNL     1      12.546  11.625  21.344  0.00  0.00    +0.016 A 
ATOM     24  C   UNL     1      12.122  11.094  23.624  0.00  0.00    +0.123 A 
ATOM     26  C   UNL     1      12.917  12.904  21.743  0.00  0.00    +0.020 A 
ATOM     27  C   UNL     1      12.864  13.203  23.094  0.00  0.00    +0.111 A 
ENDBRANCH  19  22
TORSDOF 3
ENDMDL
MODEL 4
REMARK VINA RESULT:      -7.6     28.057     30.951
REMARK  Name = 7155575
REMARK  3 active torsions:
REMARK  status: ('A' for Active; 'I' for Inactive)
REMARK    1  A    between atoms: N_7  and  C_20
REMARK    2  A    between atoms: N_9  and  C_28
REMARK    3  A    between atoms: C_19  and  C_22
REMARK                            x       y       z     vdW  Elec       q    Type
REMARK                         _______ _______ _______ _____ _____    ______ ____
ROOT
ATOM      2  O   UNL     1      -6.462  -9.664  13.939  0.00  0.00    -0.266 OA
ATOM      3  O   UNL     1      -5.407 -14.540  12.571  0.00  0.00    -0.270 OA
ATOM      5  N   UNL     1      -3.370 -13.425  12.852  0.00  0.00    -0.297 N 
ATOM      6  N   UNL     1      -4.308 -10.562  13.845  0.00  0.00    -0.310 N 
ATOM     10  C   UNL     1      -3.192 -11.255  11.645  0.00  0.00    +0.027 C 
ATOM     11  C   UNL     1      -2.000 -11.572  13.776  0.00  0.00    +0.054 C 
ATOM     12  C   UNL     1      -1.887 -10.963  12.379  0.00  0.00    +0.018 C 
ATOM     13  C   UNL     1      -3.421 -12.774  11.542  0.00  0.00    +0.113 C 
ATOM     14  C   UNL     1      -4.339 -10.546  12.375  0.00  0.00    +0.130 C 
ATOM     15  C   UNL     1      -2.185 -13.099  13.661  0.00  0.00    +0.117 C 
ATOM     16  C   UNL     1      -3.165 -10.973  14.540  0.00  0.00    +0.027 A 
ATOM     17  C   UNL     1      -3.115 -10.870  15.879  0.00  0.00    +0.024 A 
ATOM     18  C   UNL     1      -5.441 -10.052  14.509  0.00  0.00    +0.273 A 
ATOM     19  C   UNL     1      -4.416 -14.264  13.244  0.00  0.00    +0.248 C 
ATOM     20  C   UNL     1      -5.355  -9.980  16.002  0.00  0.00    +0.100 A 
ATOM     21  C   UNL     1      -4.234 -10.364  16.622  0.00  0.00    +0.030 A 
ENDROOT
BRANCH  20   7
ATOM      4  O   UNL     1      -7.473 -11.548  17.073  0.00  0.00    -0.252 OA
ATOM      7  N   UNL     1      -6.440  -9.509  16.683  0.00  0.00    -0.265 N 
ATOM      9  N   UNL     1      -8.423  -9.542  17.837  0.00  0.00    -0.269 N 
ATOM     25  C   UNL     1      -7.458 -10.325  17.193  0.00  0.00    +0.308 C 
ATOM     34  H   UNL     1      -6.637  -8.515  16.603  0.00  0.00    +0.157 HD
ATOM     35  H   UNL     1      -8.259  -8.539  17.850  0.00  0.00    +0.156 HD
BRANCH   9  28
ATOM      1 CL   UNL     1     -13.360 -11.353  20.526  0.00  0.00    -0.084 Cl
ATOM     28  C   UNL     1      -9.605  -9.976  18.480  0.00  0.00    +0.035 A 
ATOM     29  C   UNL     1     -10.829  -9.485  18.055  0.00  0.00    +0.025 A 
ATOM     30  C   UNL     1      -9.515 -10.882  19.524  0.00  0.00    +0.025 A 
ATOM     31  C   UNL     1     -11.995  -9.913  18.690  0.00  0.00    +0.022 A 
ATOM     32  C   UNL     1     -10.682 -11.310  20.159  0.00  0.00    +0.022 A 
ATOM     33  C   UNL     1     -11.922 -10.825  19.742  0.00  0.00    +0.041 A 
ENDBRANCH   9  28
ENDBRANCH  20   7
BRANCH  19  22
ATOM      8  N   UNL     1      -3.663 -16.700  15.983  0.00  0.00    -0.263 NA
ATOM     22  C   UNL     1      -4.352 -14.862  14.581  0.00  0.00    +0.055 A 
ATOM     23  C   UNL     1      -4.886 -14.206  15.680  0.00  0.00    +0.016 A 
ATOM     24  C   UNL     1      -3.756 -16.094  14.778  0.00  0.00    +0.123 A 
ATOM     26  C   UNL     1      -4.810 -14.798  16.935  0.00  0.00    +0.020 A 
ATOM     27  C   UNL     1      -4.195 -16.035  17.033  0.00  0.00    +0.111 A 
ENDBRANCH  19  22
TORSDOF 3
ENDMDL
MODEL 5
REMARK VINA RESULT:      -7.5     28.401     32.320
REMARK  Name = 7155575
REMARK  3 active torsions:
REMARK  status: ('A' for Active; 'I' for Inactive)
REMARK    1  A    between atoms: N_7  and  C_20
REMARK    2  A    between atoms: N_9  and  C_28
REMARK    3  A    between atoms: C_19  and  C_22
REMARK                            x       y       z     vdW  Elec       q    Type
REMARK                         _______ _______ _______ _____ _____    ______ ____
ROOT
ATOM      2  O   UNL     1     -11.019  -8.729  18.141  0.00  0.00    -0.266 OA
ATOM      3  O   UNL     1      -6.661 -10.625  20.183  0.00  0.00    -0.270 OA
ATOM      5  N   UNL     1      -7.655 -12.329  18.925  0.00  0.00    -0.297 N 
ATOM      6  N   UNL     1     -10.167 -10.851  17.670  0.00  0.00    -0.310 N 
ATOM     10  C   UNL     1     -10.063 -12.722  19.419  0.00  0.00    +0.027 C 
ATOM     11  C   UNL     1      -9.199 -13.119  17.148  0.00  0.00    +0.054 C 
ATOM     12  C   UNL     1     -10.149 -13.656  18.217  0.00  0.00    +0.018 C 
ATOM     13  C   UNL     1      -8.624 -12.679  19.965  0.00  0.00    +0.113 C 
ATOM     14  C   UNL     1     -10.564 -11.333  19.001  0.00  0.00    +0.130 C 
ATOM     15  C   UNL     1      -7.755 -13.123  17.690  0.00  0.00    +0.117 C 
ATOM     16  C   UNL     1      -9.584 -11.712  16.733  0.00  0.00    +0.027 A 
ATOM     17  C   UNL     1      -9.336 -11.283  15.484  0.00  0.00    +0.024 A 
ATOM     18  C   UNL     1     -10.491  -9.517  17.356  0.00  0.00    +0.273 A 
ATOM     19  C   UNL     1      -6.748 -11.291  19.153  0.00  0.00    +0.248 C 
ATOM     20  C   UNL     1     -10.173  -9.070  15.963  0.00  0.00    +0.100 A 
ATOM     21  C   UNL     1      -9.636  -9.934  15.094  0.00  0.00    +0.030 A 
ENDROOT
BRANCH  20   7
ATOM      4  O   UNL     1     -12.301  -8.203  14.286  0.00  0.00    -0.252 OA
ATOM      7  N   UNL     1     -10.456  -7.779  15.624  0.00  0.00    -0.265 N 
ATOM      9  N   UNL     1     -11.539  -6.011  14.640  0.00  0.00    -0.269 N 
ATOM     25  C   UNL     1     -11.518  -7.402  14.793  0.00  0.00    +0.308 C 
ATOM     34  H   UNL     1      -9.723  -7.091  15.782  0.00  0.00    +0.157 HD
ATOM     35  H   UNL     1     -10.819  -5.490  15.132  0.00  0.00    +0.156 HD
BRANCH   9  28
ATOM      1 CL   UNL     1     -15.333  -2.769  11.483  0.00  0.00    -0.084 Cl
ATOM     28  C   UNL     1     -12.448  -5.234  13.885  0.00  0.00    +0.035 A 
ATOM     29  C   UNL     1     -13.809  -5.398  14.083  0.00  0.00    +0.025 A 
ATOM     30  C   UNL     1     -11.957  -4.327  12.960  0.00  0.00    +0.025 A 
ATOM     31  C   UNL     1     -14.705  -4.632  13.338  0.00  0.00    +0.022 A 
ATOM     32  C   UNL     1     -12.854  -3.560  12.214  0.00  0.00    +0.022 A 
ATOM     33  C   UNL     1     -14.228  -3.713  12.403  0.00  0.00    +0.041 A 
ENDBRANCH   9  28
ENDBRANCH  20   7
BRANCH  19  22
ATOM      8  N   UNL     1      -3.625 -11.132  17.098  0.00  0.00    -0.263 NA
ATOM     22  C   UNL     1      -5.823 -10.938  18.072  0.00  0.00    +0.055 A 
ATOM     23  C   UNL     1      -6.227 -10.116  17.031  0.00  0.00    +0.016 A 
ATOM     24  C   UNL     1      -4.526 -11.418  18.065  0.00  0.00    +0.123 A 
ATOM     26  C   UNL     1      -5.328  -9.799  16.019  0.00  0.00    +0.020 A 
ATOM     27  C   UNL     1      -4.050 -10.327  16.098  0.00  0.00    +0.111 A 
ENDBRANCH  19  22
TORSDOF 3
ENDMDL
MODEL 6
REMARK VINA RESULT:      -7.3     13.784     15.674
REMARK  Name = 7155575
REMARK  3 active torsions:
REMARK  status: ('A' for Active; 'I' for Inactive)
REMARK    1  A    between atoms: N_7  and  C_20
REMARK    2  A    between atoms: N_9  and  C_28
REMARK    3  A    between atoms: C_19  and  C_22
REMARK                            x       y       z     vdW  Elec       q    Type
REMARK                         _______ _______ _______ _____ _____    ______ ____
ROOT
ATOM      2  O   UNL     1      13.483   6.729   7.341  0.00  0.00    -0.266 OA
ATOM      3  O   UNL     1      11.308   4.266   3.345  0.00  0.00    -0.270 OA
ATOM      5  N   UNL     1       9.762   5.832   4.141  0.00  0.00    -0.297 N 
ATOM      6  N   UNL     1      11.406   7.287   6.431  0.00  0.00    -0.310 N 
ATOM     10  C   UNL     1       9.363   5.750   6.597  0.00  0.00    +0.027 C 
ATOM     11  C   UNL     1       9.188   7.894   5.400  0.00  0.00    +0.054 C 
ATOM     12  C   UNL     1       8.559   7.042   6.502  0.00  0.00    +0.018 C 
ATOM     13  C   UNL     1       9.323   4.992   5.257  0.00  0.00    +0.113 C 
ATOM     14  C   UNL     1      10.796   6.089   7.026  0.00  0.00    +0.130 C 
ATOM     15  C   UNL     1       9.102   7.144   4.055  0.00  0.00    +0.117 C 
ATOM     16  C   UNL     1      10.637   8.212   5.715  0.00  0.00    +0.027 A 
ATOM     17  C   UNL     1      11.189   9.357   5.280  0.00  0.00    +0.024 A 
ATOM     18  C   UNL     1      12.771   7.505   6.702  0.00  0.00    +0.273 A 
ATOM     19  C   UNL     1      10.753   5.362   3.278  0.00  0.00    +0.248 C 
ATOM     20  C   UNL     1      13.355   8.779   6.176  0.00  0.00    +0.100 A 
ATOM     21  C   UNL     1      12.576   9.643   5.515  0.00  0.00    +0.030 A 
ENDROOT
BRANCH  20   7
ATOM      4  O   UNL     1      15.535   7.547   4.826  0.00  0.00    -0.252 OA
ATOM      7  N   UNL     1      14.679   9.018   6.401  0.00  0.00    -0.265 N 
ATOM      9  N   UNL     1      16.956   8.845   6.171  0.00  0.00    -0.269 N 
ATOM     25  C   UNL     1      15.718   8.384   5.708  0.00  0.00    +0.308 C 
ATOM     34  H   UNL     1      14.920   9.488   7.270  0.00  0.00    +0.157 HD
ATOM     35  H   UNL     1      16.933   9.545   6.908  0.00  0.00    +0.156 HD
BRANCH   9  28
ATOM      1 CL   UNL     1      22.338   7.233   4.351  0.00  0.00    -0.084 Cl
ATOM     28  C   UNL     1      18.244   8.458   5.735  0.00  0.00    +0.035 A 
ATOM     29  C   UNL     1      19.284   8.413   6.649  0.00  0.00    +0.025 A 
ATOM     30  C   UNL     1      18.441   8.134   4.402  0.00  0.00    +0.025 A 
ATOM     31  C   UNL     1      20.555   8.032   6.220  0.00  0.00    +0.022 A 
ATOM     32  C   UNL     1      19.713   7.753   3.973  0.00  0.00    +0.022 A 
ATOM     33  C   UNL     1      20.770   7.703   4.881  0.00  0.00    +0.041 A 
ENDBRANCH   9  28
ENDBRANCH  20   7
BRANCH  19  22
ATOM      8  N   UNL     1      10.991   6.969  -0.094  0.00  0.00    -0.263 NA
ATOM     22  C   UNL     1      11.200   6.249   2.199  0.00  0.00    +0.055 A 
ATOM     23  C   UNL     1      12.208   7.178   2.413  0.00  0.00    +0.016 A 
ATOM     24  C   UNL     1      10.627   6.180   0.942  0.00  0.00    +0.123 A 
ATOM     26  C   UNL     1      12.610   8.005   1.371  0.00  0.00    +0.020 A 
ATOM     27  C   UNL     1      11.976   7.862   0.148  0.00  0.00    +0.111 A 
ENDBRANCH  19  22
TORSDOF 3
ENDMDL
MODEL 7
REMARK VINA RESULT:      -7.2     12.728     14.782
REMARK  Name = 7155575
REMARK  3 active torsions:
REMARK  status: ('A' for Active; 'I' for Inactive)
REMARK    1  A    between atoms: N_7  and  C_20
REMARK    2  A    between atoms: N_9  and  C_28
REMARK    3  A    between atoms: C_19  and  C_22
REMARK                            x       y       z     vdW  Elec       q    Type
REMARK                         _______ _______ _______ _____ _____    ______ ____
ROOT
ATOM      2  O   UNL     1      12.679   7.467   3.562  0.00  0.00    -0.266 OA
ATOM      3  O   UNL     1       9.310  11.070   5.119  0.00  0.00    -0.270 OA
ATOM      5  N   UNL     1       8.628   9.023   6.023  0.00  0.00    -0.297 N 
ATOM      6  N   UNL     1      10.938   7.070   5.067  0.00  0.00    -0.310 N 
ATOM     10  C   UNL     1       8.470   7.158   4.383  0.00  0.00    +0.027 C 
ATOM     11  C   UNL     1       9.077   6.683   6.721  0.00  0.00    +0.054 C 
ATOM     12  C   UNL     1       8.263   6.176   5.531  0.00  0.00    +0.018 C 
ATOM     13  C   UNL     1       7.993   8.565   4.787  0.00  0.00    +0.113 C 
ATOM     14  C   UNL     1       9.950   7.143   3.980  0.00  0.00    +0.130 C 
ATOM     15  C   UNL     1       8.561   8.073   7.145  0.00  0.00    +0.117 C 
ATOM     16  C   UNL     1      10.551   6.768   6.377  0.00  0.00    +0.027 A 
ATOM     17  C   UNL     1      11.480   6.591   7.332  0.00  0.00    +0.024 A 
ATOM     18  C   UNL     1      12.291   7.219   4.704  0.00  0.00    +0.273 A 
ATOM     19  C   UNL     1       9.251  10.273   6.053  0.00  0.00    +0.248 C 
ATOM     20  C   UNL     1      13.293   7.041   5.803  0.00  0.00    +0.100 A 
ATOM     21  C   UNL     1      12.878   6.732   7.036  0.00  0.00    +0.030 A 
ENDROOT
BRANCH  20   7
ATOM      4  O   UNL     1      14.933   9.253   6.517  0.00  0.00    -0.252 OA
ATOM      7  N   UNL     1      14.613   7.195   5.496  0.00  0.00    -0.265 N 
ATOM      9  N   UNL     1      16.692   8.164   5.407  0.00  0.00    -0.269 N 
ATOM     25  C   UNL     1      15.379   8.306   5.872  0.00  0.00    +0.308 C 
ATOM     34  H   UNL     1      14.987   6.601   4.761  0.00  0.00    +0.157 HD
ATOM     35  H   UNL     1      16.900   7.315   4.889  0.00  0.00    +0.156 HD
BRANCH   9  28
ATOM      1 CL   UNL     1      21.210  11.905   6.096  0.00  0.00    -0.084 Cl
ATOM     28  C   UNL     1      17.773   9.060   5.573  0.00  0.00    +0.035 A 
ATOM     29  C   UNL     1      17.823  10.213   4.805  0.00  0.00    +0.025 A 
ATOM     30  C   UNL     1      18.762   8.766   6.497  0.00  0.00    +0.025 A 
ATOM     31  C   UNL     1      18.890  11.096   4.968  0.00  0.00    +0.022 A 
ATOM     32  C   UNL     1      19.829   9.650   6.660  0.00  0.00    +0.022 A 
ATOM     33  C   UNL     1      19.894  10.815   5.895  0.00  0.00    +0.041 A 
ENDBRANCH   9  28
ENDBRANCH  20   7
BRANCH  19  22
ATOM      8  N   UNL     1       9.772  11.745   9.454  0.00  0.00    -0.263 NA
ATOM     22  C   UNL     1       9.916  10.679   7.295  0.00  0.00    +0.055 A 
ATOM     23  C   UNL     1      11.259  10.403   7.505  0.00  0.00    +0.016 A 
ATOM     24  C   UNL     1       9.220  11.345   8.287  0.00  0.00    +0.123 A 
ATOM     26  C   UNL     1      11.863  10.800   8.693  0.00  0.00    +0.020 A 
ATOM     27  C   UNL     1      11.083  11.462   9.627  0.00  0.00    +0.111 A 
ENDBRANCH  19  22
TORSDOF 3
ENDMDL
MODEL 8
REMARK VINA RESULT:      -7.0     28.126     30.955
REMARK  Name = 7155575
REMARK  3 active torsions:
REMARK  status: ('A' for Active; 'I' for Inactive)
REMARK    1  A    between atoms: N_7  and  C_20
REMARK    2  A    between atoms: N_9  and  C_28
REMARK    3  A    between atoms: C_19  and  C_22
REMARK                            x       y       z     vdW  Elec       q    Type
REMARK                         _______ _______ _______ _____ _____    ______ ____
ROOT
ATOM      2  O   UNL     1      -5.224 -11.303  16.537  0.00  0.00    -0.266 OA
ATOM      3  O   UNL     1      -1.828  -9.981  12.865  0.00  0.00    -0.270 OA
ATOM      5  N   UNL     1      -2.740 -12.053  12.276  0.00  0.00    -0.297 N 
ATOM      6  N   UNL     1      -4.879 -12.517  14.572  0.00  0.00    -0.310 N 
ATOM     10  C   UNL     1      -2.696 -13.766  14.081  0.00  0.00    +0.027 C 
ATOM     11  C   UNL     1      -4.516 -13.783  12.423  0.00  0.00    +0.054 C 
ATOM     12  C   UNL     1      -3.573 -14.676  13.229  0.00  0.00    +0.018 C 
ATOM     13  C   UNL     1      -1.883 -12.812  13.187  0.00  0.00    +0.113 C 
ATOM     14  C   UNL     1      -3.587 -13.008  15.074  0.00  0.00    +0.130 C 
ATOM     15  C   UNL     1      -3.692 -12.863  11.499  0.00  0.00    +0.117 C 
ATOM     16  C   UNL     1      -5.384 -12.941  13.338  0.00  0.00    +0.027 A 
ATOM     17  C   UNL     1      -6.618 -12.573  12.951  0.00  0.00    +0.024 A 
ATOM     18  C   UNL     1      -5.620 -11.686  15.436  0.00  0.00    +0.273 A 
ATOM     19  C   UNL     1      -2.621 -10.662  12.219  0.00  0.00    +0.248 C 
ATOM     20  C   UNL     1      -6.977 -11.277  14.955  0.00  0.00    +0.100 A 
ATOM     21  C   UNL     1      -7.427 -11.723  13.777  0.00  0.00    +0.030 A 
ENDROOT
BRANCH  20   7
ATOM      4  O   UNL     1      -9.256 -12.035  16.479  0.00  0.00    -0.252 OA
ATOM      7  N   UNL     1      -7.719 -10.457  15.755  0.00  0.00    -0.265 N 
ATOM      9  N   UNL     1      -9.375  -9.806  17.204  0.00  0.00    -0.269 N 
ATOM     25  C   UNL     1      -8.836 -10.880  16.488  0.00  0.00    +0.308 C 
ATOM     34  H   UNL     1      -7.605  -9.456  15.620  0.00  0.00    +0.157 HD
ATOM     35  H   UNL     1      -8.904  -8.910  17.103  0.00  0.00    +0.156 HD
BRANCH   9  28
ATOM      1 CL   UNL     1     -14.072  -9.824  20.784  0.00  0.00    -0.084 Cl
ATOM     28  C   UNL     1     -10.499  -9.811  18.061  0.00  0.00    +0.035 A 
ATOM     29  C   UNL     1     -11.726  -9.390  17.573  0.00  0.00    +0.025 A 
ATOM     30  C   UNL     1     -10.351 -10.235  19.372  0.00  0.00    +0.025 A 
ATOM     31  C   UNL     1     -12.835  -9.395  18.419  0.00  0.00    +0.022 A 
ATOM     32  C   UNL     1     -11.461 -10.239  20.218  0.00  0.00    +0.022 A 
ATOM     33  C   UNL     1     -12.703  -9.819  19.741  0.00  0.00    +0.041 A 
ENDBRANCH   9  28
ENDBRANCH  20   7
BRANCH  19  22
ATOM      8  N   UNL     1      -5.693  -8.932  10.964  0.00  0.00    -0.263 NA
ATOM     22  C   UNL     1      -3.528  -9.932  11.329  0.00  0.00    +0.055 A 
ATOM     23  C   UNL     1      -3.123  -9.550  10.058  0.00  0.00    +0.016 A 
ATOM     24  C   UNL     1      -4.809  -9.605  11.735  0.00  0.00    +0.123 A 
ATOM     26  C   UNL     1      -4.005  -8.858   9.236  0.00  0.00    +0.020 A 
ATOM     27  C   UNL     1      -5.268  -8.576   9.732  0.00  0.00    +0.111 A 
ENDBRANCH  19  22
TORSDOF 3
ENDMDL
MODEL 9
REMARK VINA RESULT:      -6.9     27.911     30.742
REMARK  Name = 7155575
REMARK  3 active torsions:
REMARK  status: ('A' for Active; 'I' for Inactive)
REMARK    1  A    between atoms: N_7  and  C_20
REMARK    2  A    between atoms: N_9  and  C_28
REMARK    3  A    between atoms: C_19  and  C_22
REMARK                            x       y       z     vdW  Elec       q    Type
REMARK                         _______ _______ _______ _____ _____    ______ ____
ROOT
ATOM      2  O   UNL     1      -6.582 -14.613  16.815  0.00  0.00    -0.266 OA
ATOM      3  O   UNL     1     -11.110 -12.282  15.907  0.00  0.00    -0.270 OA
ATOM      5  N   UNL     1     -10.928 -12.604  18.217  0.00  0.00    -0.297 N 
ATOM      6  N   UNL     1      -8.030 -13.865  18.488  0.00  0.00    -0.310 N 
ATOM     10  C   UNL     1     -10.327 -14.920  18.905  0.00  0.00    +0.027 C 
ATOM     11  C   UNL     1      -9.592 -13.008  20.270  0.00  0.00    +0.054 C 
ATOM     12  C   UNL     1     -10.133 -14.435  20.337  0.00  0.00    +0.018 C 
ATOM     13  C   UNL     1     -11.324 -14.012  18.161  0.00  0.00    +0.113 C 
ATOM     14  C   UNL     1      -8.961 -14.968  18.209  0.00  0.00    +0.130 C 
ATOM     15  C   UNL     1     -10.618 -12.099  19.564  0.00  0.00    +0.117 C 
ATOM     16  C   UNL     1      -8.270 -12.959  19.528  0.00  0.00    +0.027 A 
ATOM     17  C   UNL     1      -7.351 -12.030  19.841  0.00  0.00    +0.024 A 
ATOM     18  C   UNL     1      -6.844 -13.828  17.727  0.00  0.00    +0.273 A 
ATOM     19  C   UNL     1     -10.852 -11.865  17.034  0.00  0.00    +0.248 C 
ATOM     20  C   UNL     1      -5.859 -12.760  18.090  0.00  0.00    +0.100 A 
ATOM     21  C   UNL     1      -6.123 -11.930  19.105  0.00  0.00    +0.030 A 
ENDROOT
BRANCH  20   7
ATOM      4  O   UNL     1      -5.405 -11.072  15.846  0.00  0.00    -0.252 OA
ATOM      7  N   UNL     1      -4.707 -12.680  17.364  0.00  0.00    -0.265 N 
ATOM      9  N   UNL     1      -3.244 -11.981  15.739  0.00  0.00    -0.269 N 
ATOM     25  C   UNL     1      -4.532 -11.829  16.265  0.00  0.00    +0.308 C 
ATOM     34  H   UNL     1      -4.039 -13.439  17.474  0.00  0.00    +0.157 HD
ATOM     35  H   UNL     1      -2.639 -12.652  16.206  0.00  0.00    +0.156 HD
BRANCH   9  28
ATOM      1 CL   UNL     1      -0.855  -9.182  11.121  0.00  0.00    -0.084 Cl
ATOM     28  C   UNL     1      -2.672 -11.311  14.634  0.00  0.00    +0.035 A 
ATOM     29  C   UNL     1      -3.051 -11.672  13.351  0.00  0.00    +0.025 A 
ATOM     30  C   UNL     1      -1.743 -10.307  14.856  0.00  0.00    +0.025 A 
ATOM     31  C   UNL     1      -2.487 -11.010  12.260  0.00  0.00    +0.022 A 
ATOM     32  C   UNL     1      -1.179  -9.645  13.764  0.00  0.00    +0.022 A 
ATOM     33  C   UNL     1      -1.551  -9.997  12.466  0.00  0.00    +0.041 A 
ENDBRANCH   9  28
ENDBRANCH  20   7
BRANCH  19  22
ATOM      8  N   UNL     1     -10.980  -8.135  17.305  0.00  0.00    -0.263 NA
ATOM     22  C   UNL     1     -10.407 -10.471  17.123  0.00  0.00    +0.055 A 
ATOM     23  C   UNL     1      -9.057 -10.153  17.115  0.00  0.00    +0.016 A 
ATOM     24  C   UNL     1     -11.324  -9.440  17.219  0.00  0.00    +0.123 A 
ATOM     26  C   UNL     1      -8.666  -8.822  17.202  0.00  0.00    +0.020 A 
ATOM     27  C   UNL     1      -9.657  -7.859  17.294  0.00  0.00    +0.111 A 
ENDBRANCH  19  22
TORSDOF 3
ENDMDL
MODEL 10
REMARK VINA RESULT:      -6.9     21.748     24.324
REMARK  Name = 7155575
REMARK  3 active torsions:
REMARK  status: ('A' for Active; 'I' for Inactive)
REMARK    1  A    between atoms: N_7  and  C_20
REMARK    2  A    between atoms: N_9  and  C_28
REMARK    3  A    between atoms: C_19  and  C_22
REMARK                            x       y       z     vdW  Elec       q    Type
REMARK                         _______ _______ _______ _____ _____    ______ ____
ROOT
ATOM      2  O   UNL     1       9.487  -9.555  33.120  0.00  0.00    -0.266 OA
ATOM      3  O   UNL     1       9.142  -7.389  37.805  0.00  0.00    -0.270 OA
ATOM      5  N   UNL     1       8.588  -5.755  36.225  0.00  0.00    -0.297 N 
ATOM      6  N   UNL     1       8.709  -7.387  33.507  0.00  0.00    -0.310 N 
ATOM     10  C   UNL     1      10.222  -5.505  34.364  0.00  0.00    +0.027 C 
ATOM     11  C   UNL     1       7.833  -5.068  33.962  0.00  0.00    +0.054 C 
ATOM     12  C   UNL     1       9.246  -4.583  33.641  0.00  0.00    +0.018 C 
ATOM     13  C   UNL     1       9.980  -5.458  35.884  0.00  0.00    +0.113 C 
ATOM     14  C   UNL     1      10.074  -6.923  33.799  0.00  0.00    +0.130 C 
ATOM     15  C   UNL     1       7.587  -4.974  35.481  0.00  0.00    +0.117 C 
ATOM     16  C   UNL     1       7.629  -6.498  33.498  0.00  0.00    +0.027 A 
ATOM     17  C   UNL     1       6.411  -6.918  33.116  0.00  0.00    +0.024 A 
ATOM     18  C   UNL     1       8.564  -8.740  33.143  0.00  0.00    +0.273 A 
ATOM     19  C   UNL     1       8.310  -6.735  37.181  0.00  0.00    +0.248 C 
ATOM     20  C   UNL     1       7.186  -9.174  32.750  0.00  0.00    +0.100 A 
ATOM     21  C   UNL     1       6.188  -8.284  32.736  0.00  0.00    +0.030 A 
ENDROOT
BRANCH  20   7
ATOM      4  O   UNL     1       6.851 -10.186  30.113  0.00  0.00    -0.252 OA
ATOM      7  N   UNL     1       7.000 -10.482  32.408  0.00  0.00    -0.265 N 
ATOM      9  N   UNL     1       6.670 -12.320  31.074  0.00  0.00    -0.269 N 
ATOM     25  C   UNL     1       6.840 -10.931  31.090  0.00  0.00    +0.308 C 
ATOM     34  H   UNL     1       6.723 -11.117  33.152  0.00  0.00    +0.157 HD
ATOM     35  H   UNL     1       6.689 -12.790  31.975  0.00  0.00    +0.156 HD
BRANCH   9  28
ATOM      1 CL   UNL     1       5.868 -15.816  26.383  0.00  0.00    -0.084 Cl
ATOM     28  C   UNL     1       6.478 -13.157  29.951  0.00  0.00    +0.035 A 
ATOM     29  C   UNL     1       7.514 -13.328  29.047  0.00  0.00    +0.025 A 
ATOM     30  C   UNL     1       5.258 -13.789  29.777  0.00  0.00    +0.025 A 
ATOM     31  C   UNL     1       7.325 -14.154  27.939  0.00  0.00    +0.022 A 
ATOM     32  C   UNL     1       5.068 -14.615  28.668  0.00  0.00    +0.022 A 
ATOM     33  C   UNL     1       6.102 -14.798  27.749  0.00  0.00    +0.041 A 
ENDBRANCH   9  28
ENDBRANCH  20   7
BRANCH  19  22
ATOM      8  N   UNL     1       4.912  -6.564  38.740  0.00  0.00    -0.263 NA
ATOM     22  C   UNL     1       6.903  -7.037  37.463  0.00  0.00    +0.055 A 
ATOM     23  C   UNL     1       6.236  -8.033  36.766  0.00  0.00    +0.016 A 
ATOM     24  C   UNL     1       6.208  -6.335  38.431  0.00  0.00    +0.123 A 
ATOM     26  C   UNL     1       4.902  -8.297  37.055  0.00  0.00    +0.020 A 
ATOM     27  C   UNL     1       4.291  -7.541  38.042  0.00  0.00    +0.111 A 
ENDBRANCH  19  22
TORSDOF 3
ENDMDL
