MODEL 1
REMARK VINA RESULT:      -6.5      0.000      0.000
REMARK  Name = 75536252
REMARK  8 active torsions:
REMARK  status: ('A' for Active; 'I' for Inactive)
REMARK    1  A    between atoms: O_3  and  C_8
REMARK    2  A    between atoms: N_5  and  C_12
REMARK    3  A    between atoms: N_5  and  C_15
REMARK    4  A    between atoms: C_7  and  C_12
REMARK    5  A    between atoms: C_9  and  C_13
REMARK    6  A    between atoms: C_13  and  C_14
REMARK    7  A    between atoms: C_15  and  C_17
REMARK    8  A    between atoms: C_18  and  C_19
REMARK                            x       y       z     vdW  Elec       q    Type
REMARK                         _______ _______ _______ _____ _____    ______ ____
ROOT
ATOM      2  O   UNL     1      10.887  11.442  21.957  0.00  0.00    -0.369 OA
ATOM      7  C   UNL     1      11.215  12.838  21.985  0.00  0.00    +0.161 C 
ATOM      8  C   UNL     1      10.878  13.463  23.345  0.00  0.00    +0.145 C 
ATOM      9  C   UNL     1      11.489  10.656  22.988  0.00  0.00    +0.125 C 
ATOM     10  C   UNL     1      11.437  12.652  24.511  0.00  0.00    +0.036 C 
ATOM     11  C   UNL     1      11.085  11.175  24.367  0.00  0.00    +0.034 C 
ENDROOT
BRANCH   8   3
ATOM      3  O   UNL     1       9.458  13.513  23.491  0.00  0.00    -0.389 OA
ATOM     31  H   UNL     1       9.258  14.123  24.222  0.00  0.00    +0.210 HD
ENDBRANCH   8   3
BRANCH   7  12
ATOM     12  C   UNL     1      12.663  13.072  21.561  0.00  0.00    +0.115 C 
BRANCH  12   5
ATOM      5  N   UNL     1      12.868  12.682  20.176  0.00  0.00    -0.309 NA
ATOM     30  H   UNL     1      12.021  12.236  19.822  0.00  0.00    +0.122 HD
BRANCH   5  15
ATOM     15  C   UNL     1      13.994  11.766  20.051  0.00  0.00    +0.116 C 
BRANCH  15  17
ATOM     17  C   UNL     1      13.694  10.632  19.107  0.00  0.00    -0.034 A 
ATOM     20  C   UNL     1      14.707  10.101  18.309  0.00  0.00    +0.005 A 
ATOM     21  C   UNL     1      12.402  10.111  19.033  0.00  0.00    +0.005 A 
ATOM     22  C   UNL     1      14.429   9.050  17.435  0.00  0.00    +0.000 A 
ATOM     23  C   UNL     1      12.124   9.059  18.159  0.00  0.00    +0.000 A 
ATOM     26  C   UNL     1      13.138   8.529  17.360  0.00  0.00    +0.000 A 
ENDBRANCH  15  17
ENDBRANCH   5  15
ENDBRANCH  12   5
ENDBRANCH   7  12
BRANCH   9  13
ATOM     13  C   UNL     1      11.031   9.216  22.794  0.00  0.00    +0.090 C 
BRANCH  13  14
ATOM      4  O   UNL     1      12.905   6.772  20.921  0.00  0.00    -0.354 OA
ATOM      6  N   UNL     1      11.720   7.283  21.436  0.00  0.00    -0.083 NA
ATOM     14  C   UNL     1      12.076   8.388  22.096  0.00  0.00    +0.087 A 
ATOM     16  C   UNL     1      13.460   8.624  22.032  0.00  0.00    +0.076 A 
ATOM     18  C   UNL     1      13.935   7.580  21.283  0.00  0.00    +0.167 A 
BRANCH  18  19
ATOM      1  F   UNL     1      18.967   6.026  19.491  0.00  0.00    -0.205 F 
ATOM     19  C   UNL     1      15.232   7.180  20.820  0.00  0.00    +0.020 A 
ATOM     24  C   UNL     1      15.356   6.441  19.644  0.00  0.00    +0.014 A 
ATOM     25  C   UNL     1      16.370   7.529  21.548  0.00  0.00    +0.014 A 
ATOM     27  C   UNL     1      16.618   6.051  19.194  0.00  0.00    +0.039 A 
ATOM     28  C   UNL     1      17.632   7.140  21.099  0.00  0.00    +0.039 A 
ATOM     29  C   UNL     1      17.755   6.400  19.922  0.00  0.00    +0.123 A 
ENDBRANCH  18  19
ENDBRANCH  13  14
ENDBRANCH   9  13
TORSDOF 8
ENDMDL
MODEL 2
REMARK VINA RESULT:      -6.4      4.088      7.282
REMARK  Name = 75536252
REMARK  8 active torsions:
REMARK  status: ('A' for Active; 'I' for Inactive)
REMARK    1  A    between atoms: O_3  and  C_8
REMARK    2  A    between atoms: N_5  and  C_12
REMARK    3  A    between atoms: N_5  and  C_15
REMARK    4  A    between atoms: C_7  and  C_12
REMARK    5  A    between atoms: C_9  and  C_13
REMARK    6  A    between atoms: C_13  and  C_14
REMARK    7  A    between atoms: C_15  and  C_17
REMARK    8  A    between atoms: C_18  and  C_19
REMARK                            x       y       z     vdW  Elec       q    Type
REMARK                         _______ _______ _______ _____ _____    ______ ____
ROOT
ATOM      2  O   UNL     1      19.530   7.062  22.206  0.00  0.00    -0.369 OA
ATOM      7  C   UNL     1      20.105   8.206  22.852  0.00  0.00    +0.161 C 
ATOM      8  C   UNL     1      21.637   8.191  22.754  0.00  0.00    +0.145 C 
ATOM      9  C   UNL     1      19.904   6.886  20.837  0.00  0.00    +0.125 C 
ATOM     10  C   UNL     1      22.125   7.950  21.328  0.00  0.00    +0.036 C 
ATOM     11  C   UNL     1      21.419   6.749  20.705  0.00  0.00    +0.034 C 
ENDROOT
BRANCH   8   3
ATOM      3  O   UNL     1      22.141   7.133  23.572  0.00  0.00    -0.389 OA
ATOM     31  H   UNL     1      22.439   6.420  22.980  0.00  0.00    +0.210 HD
ENDBRANCH   8   3
BRANCH   7  12
ATOM     12  C   UNL     1      19.486   9.501  22.333  0.00  0.00    +0.115 C 
BRANCH  12   5
ATOM      5  N   UNL     1      18.040   9.382  22.235  0.00  0.00    -0.309 NA
ATOM     30  H   UNL     1      17.777   8.399  22.309  0.00  0.00    +0.122 HD
BRANCH   5  15
ATOM     15  C   UNL     1      17.555   9.926  20.973  0.00  0.00    +0.116 C 
BRANCH  15  17
ATOM     17  C   UNL     1      16.090  10.269  21.036  0.00  0.00    -0.034 A 
ATOM     20  C   UNL     1      15.353   9.976  22.183  0.00  0.00    +0.005 A 
ATOM     21  C   UNL     1      15.471  10.882  19.946  0.00  0.00    +0.005 A 
ATOM     22  C   UNL     1      13.996  10.294  22.241  0.00  0.00    +0.000 A 
ATOM     23  C   UNL     1      14.114  11.201  20.004  0.00  0.00    +0.000 A 
ATOM     26  C   UNL     1      13.377  10.906  21.152  0.00  0.00    +0.000 A 
ENDBRANCH  15  17
ENDBRANCH   5  15
ENDBRANCH  12   5
ENDBRANCH   7  12
BRANCH   9  13
ATOM     13  C   UNL     1      19.199   5.635  20.328  0.00  0.00    +0.090 C 
BRANCH  13  14
ATOM      4  O   UNL     1      16.142   6.013  18.454  0.00  0.00    -0.354 OA
ATOM      6  N   UNL     1      17.459   5.591  18.587  0.00  0.00    -0.083 NA
ATOM     14  C   UNL     1      17.812   5.941  19.826  0.00  0.00    +0.087 A 
ATOM     16  C   UNL     1      16.770   6.582  20.518  0.00  0.00    +0.076 A 
ATOM     18  C   UNL     1      15.743   6.603  19.611  0.00  0.00    +0.167 A 
BRANCH  18  19
ATOM      1  F   UNL     1      10.512   8.497  19.670  0.00  0.00    -0.205 F 
ATOM     19  C   UNL     1      14.395   7.092  19.627  0.00  0.00    +0.020 A 
ATOM     24  C   UNL     1      13.591   6.884  20.747  0.00  0.00    +0.014 A 
ATOM     25  C   UNL     1      13.888   7.773  18.521  0.00  0.00    +0.014 A 
ATOM     27  C   UNL     1      12.279   7.359  20.763  0.00  0.00    +0.039 A 
ATOM     28  C   UNL     1      12.576   8.249  18.535  0.00  0.00    +0.039 A 
ATOM     29  C   UNL     1      11.772   8.041  19.656  0.00  0.00    +0.123 A 
ENDBRANCH  18  19
ENDBRANCH  13  14
ENDBRANCH   9  13
TORSDOF 8
ENDMDL
MODEL 3
REMARK VINA RESULT:      -6.4     27.702     30.132
REMARK  Name = 75536252
REMARK  8 active torsions:
REMARK  status: ('A' for Active; 'I' for Inactive)
REMARK    1  A    between atoms: O_3  and  C_8
REMARK    2  A    between atoms: N_5  and  C_12
REMARK    3  A    between atoms: N_5  and  C_15
REMARK    4  A    between atoms: C_7  and  C_12
REMARK    5  A    between atoms: C_9  and  C_13
REMARK    6  A    between atoms: C_13  and  C_14
REMARK    7  A    between atoms: C_15  and  C_17
REMARK    8  A    between atoms: C_18  and  C_19
REMARK                            x       y       z     vdW  Elec       q    Type
REMARK                         _______ _______ _______ _____ _____    ______ ____
ROOT
ATOM      2  O   UNL     1     -16.045   2.265  24.491  0.00  0.00    -0.369 OA
ATOM      7  C   UNL     1     -16.145   3.342  23.549  0.00  0.00    +0.161 C 
ATOM      8  C   UNL     1     -17.507   3.340  22.842  0.00  0.00    +0.145 C 
ATOM      9  C   UNL     1     -17.078   2.223  25.479  0.00  0.00    +0.125 C 
ATOM     10  C   UNL     1     -18.672   3.239  23.824  0.00  0.00    +0.036 C 
ATOM     11  C   UNL     1     -18.450   2.103  24.818  0.00  0.00    +0.034 C 
ENDROOT
BRANCH   8   3
ATOM      3  O   UNL     1     -17.573   2.208  21.972  0.00  0.00    -0.389 OA
ATOM     31  H   UNL     1     -17.413   2.524  21.066  0.00  0.00    +0.210 HD
ENDBRANCH   8   3
BRANCH   7  12
ATOM     12  C   UNL     1     -15.815   4.680  24.206  0.00  0.00    +0.115 C 
BRANCH  12   5
ATOM      5  N   UNL     1     -14.459   5.095  23.885  0.00  0.00    -0.309 NA
ATOM     30  H   UNL     1     -14.330   6.069  24.161  0.00  0.00    +0.122 HD
BRANCH   5  15
ATOM     15  C   UNL     1     -14.190   4.948  22.461  0.00  0.00    +0.116 C 
BRANCH  15  17
ATOM     17  C   UNL     1     -13.533   6.174  21.884  0.00  0.00    -0.034 A 
ATOM     20  C   UNL     1     -12.274   6.078  21.291  0.00  0.00    +0.005 A 
ATOM     21  C   UNL     1     -14.186   7.406  21.940  0.00  0.00    +0.005 A 
ATOM     22  C   UNL     1     -11.666   7.213  20.756  0.00  0.00    +0.000 A 
ATOM     23  C   UNL     1     -13.578   8.541  21.404  0.00  0.00    +0.000 A 
ATOM     26  C   UNL     1     -12.318   8.445  20.812  0.00  0.00    +0.000 A 
ENDBRANCH  15  17
ENDBRANCH   5  15
ENDBRANCH  12   5
ENDBRANCH   7  12
BRANCH   9  13
ATOM     13  C   UNL     1     -16.803   1.027  26.380  0.00  0.00    +0.090 C 
BRANCH  13  14
ATOM      4  O   UNL     1     -15.557   1.257  29.755  0.00  0.00    -0.354 OA
ATOM      6  N   UNL     1     -16.048   0.539  28.672  0.00  0.00    -0.083 NA
ATOM     14  C   UNL     1     -16.262   1.451  27.720  0.00  0.00    +0.087 A 
ATOM     16  C   UNL     1     -15.927   2.750  28.140  0.00  0.00    +0.076 A 
ATOM     18  C   UNL     1     -15.490   2.573  29.427  0.00  0.00    +0.167 A 
BRANCH  18  19
ATOM      1  F   UNL     1     -13.572   5.962  33.400  0.00  0.00    -0.205 F 
ATOM     19  C   UNL     1     -14.996   3.446  30.452  0.00  0.00    +0.020 A 
ATOM     24  C   UNL     1     -15.653   4.646  30.722  0.00  0.00    +0.014 A 
ATOM     25  C   UNL     1     -13.857   3.096  31.177  0.00  0.00    +0.014 A 
ATOM     27  C   UNL     1     -15.173   5.496  31.718  0.00  0.00    +0.039 A 
ATOM     28  C   UNL     1     -13.376   3.945  32.173  0.00  0.00    +0.039 A 
ATOM     29  C   UNL     1     -14.034   5.146  32.443  0.00  0.00    +0.123 A 
ENDBRANCH  18  19
ENDBRANCH  13  14
ENDBRANCH   9  13
TORSDOF 8
ENDMDL
MODEL 4
REMARK VINA RESULT:      -6.3     28.303     30.636
REMARK  Name = 75536252
REMARK  8 active torsions:
REMARK  status: ('A' for Active; 'I' for Inactive)
REMARK    1  A    between atoms: O_3  and  C_8
REMARK    2  A    between atoms: N_5  and  C_12
REMARK    3  A    between atoms: N_5  and  C_15
REMARK    4  A    between atoms: C_7  and  C_12
REMARK    5  A    between atoms: C_9  and  C_13
REMARK    6  A    between atoms: C_13  and  C_14
REMARK    7  A    between atoms: C_15  and  C_17
REMARK    8  A    between atoms: C_18  and  C_19
REMARK                            x       y       z     vdW  Elec       q    Type
REMARK                         _______ _______ _______ _____ _____    ______ ____
ROOT
ATOM      2  O   UNL     1     -16.422   2.541  23.619  0.00  0.00    -0.369 OA
ATOM      7  C   UNL     1     -16.201   3.855  23.089  0.00  0.00    +0.161 C 
ATOM      8  C   UNL     1     -17.445   4.380  22.360  0.00  0.00    +0.145 C 
ATOM      9  C   UNL     1     -17.551   2.417  24.486  0.00  0.00    +0.125 C 
ATOM     10  C   UNL     1     -18.713   4.232  23.197  0.00  0.00    +0.036 C 
ATOM     11  C   UNL     1     -18.834   2.820  23.761  0.00  0.00    +0.034 C 
ENDROOT
BRANCH   8   3
ATOM      3  O   UNL     1     -17.626   3.627  21.159  0.00  0.00    -0.389 OA
ATOM     31  H   UNL     1     -18.174   4.161  20.558  0.00  0.00    +0.210 HD
ENDBRANCH   8   3
BRANCH   7  12
ATOM     12  C   UNL     1     -15.697   4.807  24.171  0.00  0.00    +0.115 C 
BRANCH  12   5
ATOM      5  N   UNL     1     -14.400   5.360  23.813  0.00  0.00    -0.309 NA
ATOM     30  H   UNL     1     -14.457   6.379  23.808  0.00  0.00    +0.122 HD
BRANCH   5  15
ATOM     15  C   UNL     1     -13.973   4.885  22.504  0.00  0.00    +0.116 C 
BRANCH  15  17
ATOM     17  C   UNL     1     -13.494   6.012  21.627  0.00  0.00    -0.034 A 
ATOM     20  C   UNL     1     -14.416   6.875  21.035  0.00  0.00    +0.005 A 
ATOM     21  C   UNL     1     -12.128   6.193  21.409  0.00  0.00    +0.005 A 
ATOM     22  C   UNL     1     -13.973   7.920  20.223  0.00  0.00    +0.000 A 
ATOM     23  C   UNL     1     -11.685   7.238  20.598  0.00  0.00    +0.000 A 
ATOM     26  C   UNL     1     -12.607   8.101  20.004  0.00  0.00    +0.000 A 
ENDBRANCH  15  17
ENDBRANCH   5  15
ENDBRANCH  12   5
ENDBRANCH   7  12
BRANCH   9  13
ATOM     13  C   UNL     1     -17.620   0.967  24.946  0.00  0.00    +0.090 C 
BRANCH  13  14
ATOM      4  O   UNL     1     -17.713   0.194  28.466  0.00  0.00    -0.354 OA
ATOM      6  N   UNL     1     -18.209   0.095  27.171  0.00  0.00    -0.083 NA
ATOM     14  C   UNL     1     -17.386   0.840  26.428  0.00  0.00    +0.087 A 
ATOM     16  C   UNL     1     -16.362   1.427  27.191  0.00  0.00    +0.076 A 
ATOM     18  C   UNL     1     -16.613   0.991  28.465  0.00  0.00    +0.167 A 
BRANCH  18  19
ATOM      1  F   UNL     1     -14.175   1.752  33.407  0.00  0.00    -0.205 F 
ATOM     19  C   UNL     1     -15.986   1.187  29.739  0.00  0.00    +0.020 A 
ATOM     24  C   UNL     1     -15.873   2.471  30.271  0.00  0.00    +0.014 A 
ATOM     25  C   UNL     1     -15.486   0.093  30.446  0.00  0.00    +0.014 A 
ATOM     27  C   UNL     1     -15.262   2.663  31.510  0.00  0.00    +0.039 A 
ATOM     28  C   UNL     1     -14.875   0.284  31.685  0.00  0.00    +0.039 A 
ATOM     29  C   UNL     1     -14.762   1.569  32.217  0.00  0.00    +0.123 A 
ENDBRANCH  18  19
ENDBRANCH  13  14
ENDBRANCH   9  13
TORSDOF 8
ENDMDL
MODEL 5
REMARK VINA RESULT:      -6.1     25.263     27.426
REMARK  Name = 75536252
REMARK  8 active torsions:
REMARK  status: ('A' for Active; 'I' for Inactive)
REMARK    1  A    between atoms: O_3  and  C_8
REMARK    2  A    between atoms: N_5  and  C_12
REMARK    3  A    between atoms: N_5  and  C_15
REMARK    4  A    between atoms: C_7  and  C_12
REMARK    5  A    between atoms: C_9  and  C_13
REMARK    6  A    between atoms: C_13  and  C_14
REMARK    7  A    between atoms: C_15  and  C_17
REMARK    8  A    between atoms: C_18  and  C_19
REMARK                            x       y       z     vdW  Elec       q    Type
REMARK                         _______ _______ _______ _____ _____    ______ ____
ROOT
ATOM      2  O   UNL     1     -14.874   5.095  21.316  0.00  0.00    -0.369 OA
ATOM      7  C   UNL     1     -16.246   5.022  21.728  0.00  0.00    +0.161 C 
ATOM      8  C   UNL     1     -16.396   4.230  23.033  0.00  0.00    +0.145 C 
ATOM      9  C   UNL     1     -13.975   5.633  22.289  0.00  0.00    +0.125 C 
ATOM     10  C   UNL     1     -15.428   4.703  24.114  0.00  0.00    +0.036 C 
ATOM     11  C   UNL     1     -14.006   4.801  23.569  0.00  0.00    +0.034 C 
ENDROOT
BRANCH   8   3
ATOM      3  O   UNL     1     -16.116   2.853  22.771  0.00  0.00    -0.389 OA
ATOM     31  H   UNL     1     -16.955   2.422  22.532  0.00  0.00    +0.210 HD
ENDBRANCH   8   3
BRANCH   7  12
ATOM     12  C   UNL     1     -16.874   6.412  21.798  0.00  0.00    +0.115 C 
BRANCH  12   5
ATOM      5  N   UNL     1     -16.759   7.098  20.521  0.00  0.00    -0.309 NA
ATOM     30  H   UNL     1     -16.250   6.506  19.864  0.00  0.00    +0.122 HD
BRANCH   5  15
ATOM     15  C   UNL     1     -16.066   8.371  20.672  0.00  0.00    +0.116 C 
BRANCH  15  17
ATOM     17  C   UNL     1     -15.394   8.800  19.395  0.00  0.00    -0.034 A 
ATOM     20  C   UNL     1     -15.175  10.154  19.141  0.00  0.00    +0.005 A 
ATOM     21  C   UNL     1     -14.988   7.841  18.465  0.00  0.00    +0.005 A 
ATOM     22  C   UNL     1     -14.551  10.551  17.958  0.00  0.00    +0.000 A 
ATOM     23  C   UNL     1     -14.364   8.238  17.282  0.00  0.00    +0.000 A 
ATOM     26  C   UNL     1     -14.146   9.593  17.029  0.00  0.00    +0.000 A 
ENDBRANCH  15  17
ENDBRANCH   5  15
ENDBRANCH  12   5
ENDBRANCH   7  12
BRANCH   9  13
ATOM     13  C   UNL     1     -12.581   5.632  21.674  0.00  0.00    +0.090 C 
BRANCH  13  14
ATOM      4  O   UNL     1     -12.196   9.097  20.757  0.00  0.00    -0.354 OA
ATOM      6  N   UNL     1     -12.652   8.092  21.601  0.00  0.00    -0.083 NA
ATOM     14  C   UNL     1     -12.257   6.953  21.027  0.00  0.00    +0.087 A 
ATOM     16  C   UNL     1     -11.554   7.174  19.830  0.00  0.00    +0.076 A 
ATOM     18  C   UNL     1     -11.543   8.538  19.706  0.00  0.00    +0.167 A 
BRANCH  18  19
ATOM      1  F   UNL     1      -9.471  12.107  15.975  0.00  0.00    -0.205 F 
ATOM     19  C   UNL     1     -11.010   9.458  18.744  0.00  0.00    +0.020 A 
ATOM     24  C   UNL     1     -10.520   8.988  17.526  0.00  0.00    +0.014 A 
ATOM     25  C   UNL     1     -10.979  10.823  19.028  0.00  0.00    +0.014 A 
ATOM     27  C   UNL     1     -10.001   9.882  16.590  0.00  0.00    +0.039 A 
ATOM     28  C   UNL     1     -10.460  11.719  18.092  0.00  0.00    +0.039 A 
ATOM     29  C   UNL     1      -9.970  11.248  16.874  0.00  0.00    +0.123 A 
ENDBRANCH  18  19
ENDBRANCH  13  14
ENDBRANCH   9  13
TORSDOF 8
ENDMDL
MODEL 6
REMARK VINA RESULT:      -5.9     26.853     28.730
REMARK  Name = 75536252
REMARK  8 active torsions:
REMARK  status: ('A' for Active; 'I' for Inactive)
REMARK    1  A    between atoms: O_3  and  C_8
REMARK    2  A    between atoms: N_5  and  C_12
REMARK    3  A    between atoms: N_5  and  C_15
REMARK    4  A    between atoms: C_7  and  C_12
REMARK    5  A    between atoms: C_9  and  C_13
REMARK    6  A    between atoms: C_13  and  C_14
REMARK    7  A    between atoms: C_15  and  C_17
REMARK    8  A    between atoms: C_18  and  C_19
REMARK                            x       y       z     vdW  Elec       q    Type
REMARK                         _______ _______ _______ _____ _____    ______ ____
ROOT
ATOM      2  O   UNL     1      -6.322  -9.986  17.587  0.00  0.00    -0.369 OA
ATOM      7  C   UNL     1      -5.207 -10.597  18.250  0.00  0.00    +0.161 C 
ATOM      8  C   UNL     1      -5.672 -11.569  19.343  0.00  0.00    +0.145 C 
ATOM      9  C   UNL     1      -7.268 -10.898  17.023  0.00  0.00    +0.125 C 
ATOM     10  C   UNL     1      -6.731 -12.547  18.840  0.00  0.00    +0.036 C 
ATOM     11  C   UNL     1      -7.846 -11.811  18.102  0.00  0.00    +0.034 C 
ENDROOT
BRANCH   8   3
ATOM      3  O   UNL     1      -6.248 -10.817  20.413  0.00  0.00    -0.389 OA
ATOM     31  H   UNL     1      -5.521 -10.387  20.895  0.00  0.00    +0.210 HD
ENDBRANCH   8   3
BRANCH   7  12
ATOM     12  C   UNL     1      -4.254 -11.241  17.245  0.00  0.00    +0.115 C 
BRANCH  12   5
ATOM      5  N   UNL     1      -3.837 -10.279  16.237  0.00  0.00    -0.309 NA
ATOM     30  H   UNL     1      -4.557 -10.213  15.516  0.00  0.00    +0.122 HD
BRANCH   5  15
ATOM     15  C   UNL     1      -2.571 -10.672  15.632  0.00  0.00    +0.116 C 
BRANCH  15  17
ATOM     17  C   UNL     1      -2.711 -10.935  14.157  0.00  0.00    -0.034 A 
ATOM     20  C   UNL     1      -1.864 -10.297  13.250  0.00  0.00    +0.005 A 
ATOM     21  C   UNL     1      -3.688 -11.819  13.696  0.00  0.00    +0.005 A 
ATOM     22  C   UNL     1      -1.993 -10.541  11.883  0.00  0.00    +0.000 A 
ATOM     23  C   UNL     1      -3.817 -12.063  12.329  0.00  0.00    +0.000 A 
ATOM     26  C   UNL     1      -2.970 -11.424  11.422  0.00  0.00    +0.000 A 
ENDBRANCH  15  17
ENDBRANCH   5  15
ENDBRANCH  12   5
ENDBRANCH   7  12
BRANCH   9  13
ATOM     13  C   UNL     1      -8.367 -10.071  16.366  0.00  0.00    +0.090 C 
BRANCH  13  14
ATOM      4  O   UNL     1      -8.607  -9.606  12.800  0.00  0.00    -0.354 OA
ATOM      6  N   UNL     1      -9.168  -9.718  14.066  0.00  0.00    -0.083 NA
ATOM     14  C   UNL     1      -8.132  -9.906  14.888  0.00  0.00    +0.087 A 
ATOM     16  C   UNL     1      -6.904  -9.921  14.205  0.00  0.00    +0.076 A 
ATOM     18  C   UNL     1      -7.257  -9.729  12.895  0.00  0.00    +0.167 A 
BRANCH  18  19
ATOM      1  F   UNL     1      -4.457  -9.353   8.103  0.00  0.00    -0.205 F 
ATOM     19  C   UNL     1      -6.534  -9.633  11.661  0.00  0.00    +0.020 A 
ATOM     24  C   UNL     1      -5.582  -8.629  11.487  0.00  0.00    +0.014 A 
ATOM     25  C   UNL     1      -6.786 -10.542  10.633  0.00  0.00    +0.014 A 
ATOM     27  C   UNL     1      -4.879  -8.534  10.285  0.00  0.00    +0.039 A 
ATOM     28  C   UNL     1      -6.084 -10.448   9.432  0.00  0.00    +0.039 A 
ATOM     29  C   UNL     1      -5.131  -9.443   9.257  0.00  0.00    +0.123 A 
ENDBRANCH  18  19
ENDBRANCH  13  14
ENDBRANCH   9  13
TORSDOF 8
ENDMDL
MODEL 7
REMARK VINA RESULT:      -5.9     14.749     18.294
REMARK  Name = 75536252
REMARK  8 active torsions:
REMARK  status: ('A' for Active; 'I' for Inactive)
REMARK    1  A    between atoms: O_3  and  C_8
REMARK    2  A    between atoms: N_5  and  C_12
REMARK    3  A    between atoms: N_5  and  C_15
REMARK    4  A    between atoms: C_7  and  C_12
REMARK    5  A    between atoms: C_9  and  C_13
REMARK    6  A    between atoms: C_13  and  C_14
REMARK    7  A    between atoms: C_15  and  C_17
REMARK    8  A    between atoms: C_18  and  C_19
REMARK                            x       y       z     vdW  Elec       q    Type
REMARK                         _______ _______ _______ _____ _____    ______ ____
ROOT
ATOM      2  O   UNL     1      13.082   4.954   2.171  0.00  0.00    -0.369 OA
ATOM      7  C   UNL     1      14.449   5.348   1.993  0.00  0.00    +0.161 C 
ATOM      8  C   UNL     1      15.212   4.339   1.125  0.00  0.00    +0.145 C 
ATOM      9  C   UNL     1      12.349   4.736   0.963  0.00  0.00    +0.125 C 
ATOM     10  C   UNL     1      14.470   4.003  -0.166  0.00  0.00    +0.036 C 
ATOM     11  C   UNL     1      13.013   3.650   0.119  0.00  0.00    +0.034 C 
ENDROOT
BRANCH   8   3
ATOM      3  O   UNL     1      15.372   3.125   1.863  0.00  0.00    -0.389 OA
ATOM     31  H   UNL     1      16.074   2.608   1.431  0.00  0.00    +0.210 HD
ENDBRANCH   8   3
BRANCH   7  12
ATOM     12  C   UNL     1      14.545   6.779   1.469  0.00  0.00    +0.115 C 
BRANCH  12   5
ATOM      5  N   UNL     1      15.264   7.628   2.406  0.00  0.00    -0.309 NA
ATOM     30  H   UNL     1      16.197   7.820   2.040  0.00  0.00    +0.122 HD
BRANCH   5  15
ATOM     15  C   UNL     1      15.369   6.991   3.712  0.00  0.00    +0.116 C 
BRANCH  15  17
ATOM     17  C   UNL     1      14.560   7.714   4.756  0.00  0.00    -0.034 A 
ATOM     20  C   UNL     1      13.214   7.394   4.940  0.00  0.00    +0.005 A 
ATOM     21  C   UNL     1      15.156   8.702   5.540  0.00  0.00    +0.005 A 
ATOM     22  C   UNL     1      12.464   8.062   5.908  0.00  0.00    +0.000 A 
ATOM     23  C   UNL     1      14.406   9.370   6.508  0.00  0.00    +0.000 A 
ATOM     26  C   UNL     1      13.060   9.051   6.692  0.00  0.00    +0.000 A 
ENDBRANCH  15  17
ENDBRANCH   5  15
ENDBRANCH  12   5
ENDBRANCH   7  12
BRANCH   9  13
ATOM     13  C   UNL     1      10.933   4.332   1.352  0.00  0.00    +0.090 C 
BRANCH  13  14
ATOM      4  O   UNL     1       9.882   6.361   4.140  0.00  0.00    -0.354 OA
ATOM      6  N   UNL     1      10.174   6.177   2.794  0.00  0.00    -0.083 NA
ATOM     14  C   UNL     1      10.540   4.896   2.692  0.00  0.00    +0.087 A 
ATOM     16  C   UNL     1      10.499   4.228   3.927  0.00  0.00    +0.076 A 
ATOM     18  C   UNL     1      10.080   5.194   4.805  0.00  0.00    +0.167 A 
BRANCH  18  19
ATOM      1  F   UNL     1       9.050   5.326  10.271  0.00  0.00    -0.205 F 
ATOM     19  C   UNL     1       9.815   5.228   6.214  0.00  0.00    +0.020 A 
ATOM     24  C   UNL     1       9.985   4.078   6.984  0.00  0.00    +0.014 A 
ATOM     25  C   UNL     1       9.386   6.412   6.814  0.00  0.00    +0.014 A 
ATOM     27  C   UNL     1       9.727   4.110   8.354  0.00  0.00    +0.039 A 
ATOM     28  C   UNL     1       9.128   6.445   8.185  0.00  0.00    +0.039 A 
ATOM     29  C   UNL     1       9.298   5.294   8.954  0.00  0.00    +0.123 A 
ENDBRANCH  18  19
ENDBRANCH  13  14
ENDBRANCH   9  13
TORSDOF 8
ENDMDL
MODEL 8
REMARK VINA RESULT:      -5.8     28.548     30.628
REMARK  Name = 75536252
REMARK  8 active torsions:
REMARK  status: ('A' for Active; 'I' for Inactive)
REMARK    1  A    between atoms: O_3  and  C_8
REMARK    2  A    between atoms: N_5  and  C_12
REMARK    3  A    between atoms: N_5  and  C_15
REMARK    4  A    between atoms: C_7  and  C_12
REMARK    5  A    between atoms: C_9  and  C_13
REMARK    6  A    between atoms: C_13  and  C_14
REMARK    7  A    between atoms: C_15  and  C_17
REMARK    8  A    between atoms: C_18  and  C_19
REMARK                            x       y       z     vdW  Elec       q    Type
REMARK                         _______ _______ _______ _____ _____    ______ ____
ROOT
ATOM      2  O   UNL     1      -4.945 -11.017  17.292  0.00  0.00    -0.369 OA
ATOM      7  C   UNL     1      -4.438 -10.330  16.140  0.00  0.00    +0.161 C 
ATOM      8  C   UNL     1      -3.342 -11.146  15.442  0.00  0.00    +0.145 C 
ATOM      9  C   UNL     1      -5.437 -12.336  17.047  0.00  0.00    +0.125 C 
ATOM     10  C   UNL     1      -3.764 -12.592  15.191  0.00  0.00    +0.036 C 
ATOM     11  C   UNL     1      -4.339 -13.220  16.457  0.00  0.00    +0.034 C 
ENDROOT
BRANCH   8   3
ATOM      3  O   UNL     1      -2.183 -11.170  16.277  0.00  0.00    -0.389 OA
ATOM     31  H   UNL     1      -2.412 -10.724  17.111  0.00  0.00    +0.210 HD
ENDBRANCH   8   3
BRANCH   7  12
ATOM     12  C   UNL     1      -5.570  -9.924  15.199  0.00  0.00    +0.115 C 
BRANCH  12   5
ATOM      5  N   UNL     1      -6.730  -9.468  15.949  0.00  0.00    -0.309 NA
ATOM     30  H   UNL     1      -6.620  -9.727  16.930  0.00  0.00    +0.122 HD
BRANCH   5  15
ATOM     15  C   UNL     1      -7.956 -10.051  15.422  0.00  0.00    +0.116 C 
BRANCH  15  17
ATOM     17  C   UNL     1      -9.180  -9.325  15.913  0.00  0.00    -0.034 A 
ATOM     20  C   UNL     1     -10.422  -9.572  15.327  0.00  0.00    +0.005 A 
ATOM     21  C   UNL     1      -9.072  -8.405  16.957  0.00  0.00    +0.005 A 
ATOM     22  C   UNL     1     -11.555  -8.900  15.783  0.00  0.00    +0.000 A 
ATOM     23  C   UNL     1     -10.206  -7.733  17.413  0.00  0.00    +0.000 A 
ATOM     26  C   UNL     1     -11.448  -7.980  16.826  0.00  0.00    +0.000 A 
ENDBRANCH  15  17
ENDBRANCH   5  15
ENDBRANCH  12   5
ENDBRANCH   7  12
BRANCH   9  13
ATOM     13  C   UNL     1      -5.930 -12.897  18.375  0.00  0.00    +0.090 C 
BRANCH  13  14
ATOM      4  O   UNL     1      -8.469 -10.959  20.044  0.00  0.00    -0.354 OA
ATOM      6  N   UNL     1      -7.164 -11.413  19.902  0.00  0.00    -0.083 NA
ATOM     14  C   UNL     1      -7.191 -12.214  18.834  0.00  0.00    +0.087 A 
ATOM     16  C   UNL     1      -8.473 -12.303  18.265  0.00  0.00    +0.076 A 
ATOM     18  C   UNL     1      -9.240 -11.496  19.064  0.00  0.00    +0.167 A 
BRANCH  18  19
ATOM      1  F   UNL     1     -14.601 -10.013  19.120  0.00  0.00    -0.205 F 
ATOM     19  C   UNL     1     -10.622 -11.115  19.079  0.00  0.00    +0.020 A 
ATOM     24  C   UNL     1     -11.519 -11.708  18.192  0.00  0.00    +0.014 A 
ATOM     25  C   UNL     1     -11.068 -10.148  19.980  0.00  0.00    +0.014 A 
ATOM     27  C   UNL     1     -12.864 -11.337  18.206  0.00  0.00    +0.039 A 
ATOM     28  C   UNL     1     -12.413  -9.776  19.994  0.00  0.00    +0.039 A 
ATOM     29  C   UNL     1     -13.310 -10.370  19.107  0.00  0.00    +0.123 A 
ENDBRANCH  18  19
ENDBRANCH  13  14
ENDBRANCH   9  13
TORSDOF 8
ENDMDL
MODEL 9
REMARK VINA RESULT:      -5.8     19.242     22.768
REMARK  Name = 75536252
REMARK  8 active torsions:
REMARK  status: ('A' for Active; 'I' for Inactive)
REMARK    1  A    between atoms: O_3  and  C_8
REMARK    2  A    between atoms: N_5  and  C_12
REMARK    3  A    between atoms: N_5  and  C_15
REMARK    4  A    between atoms: C_7  and  C_12
REMARK    5  A    between atoms: C_9  and  C_13
REMARK    6  A    between atoms: C_13  and  C_14
REMARK    7  A    between atoms: C_15  and  C_17
REMARK    8  A    between atoms: C_18  and  C_19
REMARK                            x       y       z     vdW  Elec       q    Type
REMARK                         _______ _______ _______ _____ _____    ______ ____
ROOT
ATOM      2  O   UNL     1      12.827   3.131   0.648  0.00  0.00    -0.369 OA
ATOM      7  C   UNL     1      13.257   3.938   1.753  0.00  0.00    +0.161 C 
ATOM      8  C   UNL     1      14.748   4.282   1.645  0.00  0.00    +0.145 C 
ATOM      9  C   UNL     1      13.080   3.687  -0.645  0.00  0.00    +0.125 C 
ATOM     10  C   UNL     1      15.119   4.832   0.270  0.00  0.00    +0.036 C 
ATOM     11  C   UNL     1      14.574   3.938  -0.840  0.00  0.00    +0.034 C 
ENDROOT
BRANCH   8   3
ATOM      3  O   UNL     1      15.512   3.094   1.860  0.00  0.00    -0.389 OA
ATOM     31  H   UNL     1      16.345   3.186   1.364  0.00  0.00    +0.210 HD
ENDBRANCH   8   3
BRANCH   7  12
ATOM     12  C   UNL     1      12.369   5.169   1.914  0.00  0.00    +0.115 C 
BRANCH  12   5
ATOM      5  N   UNL     1      12.020   5.378   3.310  0.00  0.00    -0.309 NA
ATOM     30  H   UNL     1      12.774   5.030   3.903  0.00  0.00    +0.122 HD
BRANCH   5  15
ATOM     15  C   UNL     1      10.777   4.697   3.646  0.00  0.00    +0.116 C 
BRANCH  15  17
ATOM     17  C   UNL     1       9.925   5.512   4.582  0.00  0.00    -0.034 A 
ATOM     20  C   UNL     1       9.154   6.564   4.088  0.00  0.00    +0.005 A 
ATOM     21  C   UNL     1       9.905   5.213   5.945  0.00  0.00    +0.005 A 
ATOM     22  C   UNL     1       8.364   7.318   4.955  0.00  0.00    +0.000 A 
ATOM     23  C   UNL     1       9.115   5.967   6.813  0.00  0.00    +0.000 A 
ATOM     26  C   UNL     1       8.345   7.020   6.318  0.00  0.00    +0.000 A 
ENDBRANCH  15  17
ENDBRANCH   5  15
ENDBRANCH  12   5
ENDBRANCH   7  12
BRANCH   9  13
ATOM     13  C   UNL     1      12.556   2.699  -1.679  0.00  0.00    +0.090 C 
BRANCH  13  14
ATOM      4  O   UNL     1       9.333   3.025  -3.261  0.00  0.00    -0.354 OA
ATOM      6  N   UNL     1      10.402   2.272  -2.792  0.00  0.00    -0.083 NA
ATOM     14  C   UNL     1      11.259   3.163  -2.287  0.00  0.00    +0.087 A 
ATOM     16  C   UNL     1      10.789   4.482  -2.408  0.00  0.00    +0.076 A 
ATOM     18  C   UNL     1       9.575   4.341  -3.027  0.00  0.00    +0.167 A 
BRANCH  18  19
ATOM      1  F   UNL     1       5.603   7.859  -4.697  0.00  0.00    -0.205 F 
ATOM     19  C   UNL     1       8.552   5.248  -3.457  0.00  0.00    +0.020 A 
ATOM     24  C   UNL     1       8.174   6.313  -2.640  0.00  0.00    +0.014 A 
ATOM     25  C   UNL     1       7.933   5.065  -4.694  0.00  0.00    +0.014 A 
ATOM     27  C   UNL     1       7.178   7.195  -3.058  0.00  0.00    +0.039 A 
ATOM     28  C   UNL     1       6.937   5.947  -5.113  0.00  0.00    +0.039 A 
ATOM     29  C   UNL     1       6.559   7.012  -4.295  0.00  0.00    +0.123 A 
ENDBRANCH  18  19
ENDBRANCH  13  14
ENDBRANCH   9  13
TORSDOF 8
ENDMDL
MODEL 10
REMARK VINA RESULT:      -5.7     28.942     31.451
REMARK  Name = 75536252
REMARK  8 active torsions:
REMARK  status: ('A' for Active; 'I' for Inactive)
REMARK    1  A    between atoms: O_3  and  C_8
REMARK    2  A    between atoms: N_5  and  C_12
REMARK    3  A    between atoms: N_5  and  C_15
REMARK    4  A    between atoms: C_7  and  C_12
REMARK    5  A    between atoms: C_9  and  C_13
REMARK    6  A    between atoms: C_13  and  C_14
REMARK    7  A    between atoms: C_15  and  C_17
REMARK    8  A    between atoms: C_18  and  C_19
REMARK                            x       y       z     vdW  Elec       q    Type
REMARK                         _______ _______ _______ _____ _____    ______ ____
ROOT
ATOM      2  O   UNL     1     -13.758   1.899  31.217  0.00  0.00    -0.369 OA
ATOM      7  C   UNL     1     -13.891   1.452  29.861  0.00  0.00    +0.161 C 
ATOM      8  C   UNL     1     -14.052  -0.073  29.790  0.00  0.00    +0.145 C 
ATOM      9  C   UNL     1     -14.816   1.505  32.094  0.00  0.00    +0.125 C 
ATOM     10  C   UNL     1     -15.128  -0.589  30.743  0.00  0.00    +0.036 C 
ATOM     11  C   UNL     1     -14.935  -0.017  32.144  0.00  0.00    +0.034 C 
ENDROOT
BRANCH   8   3
ATOM      3  O   UNL     1     -12.814  -0.684  30.160  0.00  0.00    -0.389 OA
ATOM     31  H   UNL     1     -12.918  -1.646  30.056  0.00  0.00    +0.210 HD
ENDBRANCH   8   3
BRANCH   7  12
ATOM     12  C   UNL     1     -15.007   2.204  29.140  0.00  0.00    +0.115 C 
BRANCH  12   5
ATOM      5  N   UNL     1     -14.855   3.641  29.304  0.00  0.00    -0.309 NA
ATOM     30  H   UNL     1     -14.702   3.853  30.291  0.00  0.00    +0.122 HD
BRANCH   5  15
ATOM     15  C   UNL     1     -16.035   4.349  28.827  0.00  0.00    +0.116 C 
BRANCH  15  17
ATOM     17  C   UNL     1     -16.790   5.005  29.952  0.00  0.00    -0.034 A 
ATOM     20  C   UNL     1     -17.626   4.243  30.769  0.00  0.00    +0.005 A 
ATOM     21  C   UNL     1     -16.652   6.375  30.179  0.00  0.00    +0.005 A 
ATOM     22  C   UNL     1     -18.324   4.851  31.813  0.00  0.00    +0.000 A 
ATOM     23  C   UNL     1     -17.350   6.982  31.223  0.00  0.00    +0.000 A 
ATOM     26  C   UNL     1     -18.187   6.220  32.039  0.00  0.00    +0.000 A 
ENDBRANCH  15  17
ENDBRANCH   5  15
ENDBRANCH  12   5
ENDBRANCH   7  12
BRANCH   9  13
ATOM     13  C   UNL     1     -14.503   2.071  33.473  0.00  0.00    +0.090 C 
BRANCH  13  14
ATOM      4  O   UNL     1     -15.552   5.488  33.939  0.00  0.00    -0.354 OA
ATOM      6  N   UNL     1     -15.730   4.117  34.078  0.00  0.00    -0.083 NA
ATOM     14  C   UNL     1     -14.653   3.569  33.509  0.00  0.00    +0.087 A 
ATOM     16  C   UNL     1     -13.768   4.534  32.999  0.00  0.00    +0.076 A 
ATOM     18  C   UNL     1     -14.380   5.725  33.295  0.00  0.00    +0.167 A 
BRANCH  18  19
ATOM      1  F   UNL     1     -13.123  11.078  32.452  0.00  0.00    -0.205 F 
ATOM     19  C   UNL     1     -14.056   7.105  33.079  0.00  0.00    +0.020 A 
ATOM     24  C   UNL     1     -14.925   8.103  33.518  0.00  0.00    +0.014 A 
ATOM     25  C   UNL     1     -12.871   7.448  32.427  0.00  0.00    +0.014 A 
ATOM     27  C   UNL     1     -14.610   9.445  33.307  0.00  0.00    +0.039 A 
ATOM     28  C   UNL     1     -12.555   8.790  32.216  0.00  0.00    +0.039 A 
ATOM     29  C   UNL     1     -13.426   9.789  32.655  0.00  0.00    +0.123 A 
ENDBRANCH  18  19
ENDBRANCH  13  14
ENDBRANCH   9  13
TORSDOF 8
ENDMDL
