MODEL 1
REMARK VINA RESULT:      -7.2      0.000      0.000
REMARK  Name = 51137135
REMARK  9 active torsions:
REMARK  status: ('A' for Active; 'I' for Inactive)
REMARK    1  A    between atoms: S_1  and  C_21
REMARK    2  A    between atoms: S_1  and  C_26
REMARK    3  A    between atoms: N_5  and  C_12
REMARK    4  A    between atoms: N_7  and  C_25
REMARK    5  A    between atoms: N_7  and  C_28
REMARK    6  A    between atoms: N_7  and  C_29
REMARK    7  A    between atoms: C_8  and  C_13
REMARK    8  A    between atoms: C_12  and  C_14
REMARK    9  A    between atoms: C_26  and  C_27
REMARK                            x       y       z     vdW  Elec       q    Type
REMARK                         _______ _______ _______ _____ _____    ______ ____
ROOT
ATOM      5  N   UNL     1      11.567   8.874  21.357  0.00  0.00    -0.297 NA
ATOM      8  C   UNL     1      13.502   8.391  20.124  0.00  0.00    +0.090 C 
ATOM      9  C   UNL     1      12.419   7.343  19.814  0.00  0.00    +0.029 C 
ATOM     10  C   UNL     1      13.015   9.086  21.403  0.00  0.00    +0.097 C 
ATOM     11  C   UNL     1      11.403   7.481  20.939  0.00  0.00    +0.085 C 
ENDROOT
BRANCH   8  13
ATOM      2  O   UNL     1      15.265   6.912  19.319  0.00  0.00    -0.439 OA
ATOM      6  N   UNL     1      15.820   8.133  21.147  0.00  0.00    -0.213 NA
ATOM     13  C   UNL     1      14.903   7.838  20.252  0.00  0.00    +0.201 A 
ATOM     15  C   UNL     1      16.882   7.340  20.784  0.00  0.00    +0.111 A 
ATOM     16  C   UNL     1      16.546   6.592  19.666  0.00  0.00    +0.155 A 
ATOM     19  C   UNL     1      18.161   7.191  21.341  0.00  0.00    +0.058 A 
ATOM     20  C   UNL     1      17.391   5.686  19.037  0.00  0.00    +0.050 A 
ATOM     21  C   UNL     1      19.042   6.286  20.733  0.00  0.00    +0.090 A 
ATOM     22  C   UNL     1      18.663   5.549  19.604  0.00  0.00    +0.030 A 
BRANCH  21   1
ATOM      1  S   UNL     1      20.646   6.075  21.398  0.00  0.00    -0.003 S 
ATOM      3  O   UNL     1      21.494   7.163  20.934  0.00  0.00    -0.169 OA
ATOM      4  O   UNL     1      20.507   5.821  22.824  0.00  0.00    -0.169 OA
BRANCH   1  26
ATOM     26  C   UNL     1      21.246   4.586  20.633  0.00  0.00    +0.168 C 
ATOM     27  C   UNL     1      21.771   3.607  21.659  0.00  0.00    +0.028 C 
ENDBRANCH   1  26
ENDBRANCH  21   1
ENDBRANCH   8  13
BRANCH   5  12
ATOM     12  C   UNL     1      10.925   9.149  22.634  0.00  0.00    +0.119 C 
BRANCH  12  14
ATOM     14  C   UNL     1      11.001  10.608  22.997  0.00  0.00    -0.033 A 
ATOM     17  C   UNL     1      11.044  10.991  24.339  0.00  0.00    +0.007 A 
ATOM     18  C   UNL     1      11.030  11.577  21.995  0.00  0.00    +0.007 A 
ATOM     23  C   UNL     1      11.114  12.343  24.676  0.00  0.00    +0.023 A 
ATOM     24  C   UNL     1      11.100  12.928  22.331  0.00  0.00    +0.023 A 
ATOM     25  C   UNL     1      11.142  13.311  23.672  0.00  0.00    +0.029 A 
BRANCH  25   7
ATOM      7  N   UNL     1      11.214  14.678  24.013  0.00  0.00    -0.336 N 
ATOM     28  C   UNL     1      10.028  15.510  23.961  0.00  0.00    +0.129 C 
ATOM     29  C   UNL     1      12.472  15.266  24.426  0.00  0.00    +0.129 C 
ENDBRANCH  25   7
ENDBRANCH  12  14
ENDBRANCH   5  12
TORSDOF 6
ENDMDL
MODEL 2
REMARK VINA RESULT:      -7.1     27.246     30.683
REMARK  Name = 51137135
REMARK  9 active torsions:
REMARK  status: ('A' for Active; 'I' for Inactive)
REMARK    1  A    between atoms: S_1  and  C_21
REMARK    2  A    between atoms: S_1  and  C_26
REMARK    3  A    between atoms: N_5  and  C_12
REMARK    4  A    between atoms: N_7  and  C_25
REMARK    5  A    between atoms: N_7  and  C_28
REMARK    6  A    between atoms: N_7  and  C_29
REMARK    7  A    between atoms: C_8  and  C_13
REMARK    8  A    between atoms: C_12  and  C_14
REMARK    9  A    between atoms: C_26  and  C_27
REMARK                            x       y       z     vdW  Elec       q    Type
REMARK                         _______ _______ _______ _____ _____    ______ ____
ROOT
ATOM      5  N   UNL     1     -13.441   6.621  21.190  0.00  0.00    -0.297 NA
ATOM      8  C   UNL     1     -15.265   5.340  21.918  0.00  0.00    +0.090 C 
ATOM      9  C   UNL     1     -15.548   6.831  22.174  0.00  0.00    +0.029 C 
ATOM     10  C   UNL     1     -13.754   5.270  21.661  0.00  0.00    +0.097 C 
ATOM     11  C   UNL     1     -14.189   7.512  22.077  0.00  0.00    +0.085 C 
ENDROOT
BRANCH   8  13
ATOM      2  O   UNL     1     -16.590   3.429  22.648  0.00  0.00    -0.439 OA
ATOM      6  N   UNL     1     -15.384   4.422  24.290  0.00  0.00    -0.213 NA
ATOM     13  C   UNL     1     -15.719   4.409  23.019  0.00  0.00    +0.201 A 
ATOM     15  C   UNL     1     -16.088   3.364  24.814  0.00  0.00    +0.111 A 
ATOM     16  C   UNL     1     -16.826   2.754  23.811  0.00  0.00    +0.155 A 
ATOM     19  C   UNL     1     -16.160   2.852  26.117  0.00  0.00    +0.058 A 
ATOM     20  C   UNL     1     -17.652   1.651  23.996  0.00  0.00    +0.050 A 
ATOM     21  C   UNL     1     -16.982   1.739  26.342  0.00  0.00    +0.090 A 
ATOM     22  C   UNL     1     -17.713   1.152  25.302  0.00  0.00    +0.030 A 
BRANCH  21   1
ATOM      1  S   UNL     1     -17.096   1.071  27.955  0.00  0.00    -0.003 S 
ATOM      3  O   UNL     1     -18.263   0.205  28.023  0.00  0.00    -0.169 OA
ATOM      4  O   UNL     1     -15.785   0.552  28.315  0.00  0.00    -0.169 OA
BRANCH   1  26
ATOM     26  C   UNL     1     -17.432   2.477  28.990  0.00  0.00    +0.168 C 
ATOM     27  C   UNL     1     -18.884   2.894  28.905  0.00  0.00    +0.028 C 
ENDBRANCH   1  26
ENDBRANCH  21   1
ENDBRANCH   8  13
BRANCH   5  12
ATOM     12  C   UNL     1     -12.012   6.897  21.205  0.00  0.00    +0.119 C 
BRANCH  12  14
ATOM     14  C   UNL     1     -11.592   7.746  20.035  0.00  0.00    -0.033 A 
ATOM     17  C   UNL     1     -11.377   7.157  18.788  0.00  0.00    +0.007 A 
ATOM     18  C   UNL     1     -11.419   9.120  20.196  0.00  0.00    +0.007 A 
ATOM     23  C   UNL     1     -10.989   7.945  17.703  0.00  0.00    +0.023 A 
ATOM     24  C   UNL     1     -11.031   9.907  19.113  0.00  0.00    +0.023 A 
ATOM     25  C   UNL     1     -10.816   9.319  17.866  0.00  0.00    +0.029 A 
BRANCH  25   7
ATOM      7  N   UNL     1     -10.423  10.115  16.769  0.00  0.00    -0.336 N 
ATOM     28  C   UNL     1     -10.714   9.691  15.414  0.00  0.00    +0.129 C 
ATOM     29  C   UNL     1      -9.731  11.370  16.984  0.00  0.00    +0.129 C 
ENDBRANCH  25   7
ENDBRANCH  12  14
ENDBRANCH   5  12
TORSDOF 6
ENDMDL
MODEL 3
REMARK VINA RESULT:      -6.9     27.508     30.387
REMARK  Name = 51137135
REMARK  9 active torsions:
REMARK  status: ('A' for Active; 'I' for Inactive)
REMARK    1  A    between atoms: S_1  and  C_21
REMARK    2  A    between atoms: S_1  and  C_26
REMARK    3  A    between atoms: N_5  and  C_12
REMARK    4  A    between atoms: N_7  and  C_25
REMARK    5  A    between atoms: N_7  and  C_28
REMARK    6  A    between atoms: N_7  and  C_29
REMARK    7  A    between atoms: C_8  and  C_13
REMARK    8  A    between atoms: C_12  and  C_14
REMARK    9  A    between atoms: C_26  and  C_27
REMARK                            x       y       z     vdW  Elec       q    Type
REMARK                         _______ _______ _______ _____ _____    ______ ____
ROOT
ATOM      5  N   UNL     1      -1.916 -11.026  13.745  0.00  0.00    -0.297 NA
ATOM      8  C   UNL     1      -3.130 -10.165  15.558  0.00  0.00    +0.090 C 
ATOM      9  C   UNL     1      -1.880 -10.897  16.076  0.00  0.00    +0.029 C 
ATOM     10  C   UNL     1      -3.281 -10.636  14.105  0.00  0.00    +0.097 C 
ATOM     11  C   UNL     1      -1.414 -11.757  14.909  0.00  0.00    +0.085 C 
ENDROOT
BRANCH   8  13
ATOM      2  O   UNL     1      -4.204 -11.006  17.578  0.00  0.00    -0.439 OA
ATOM      6  N   UNL     1      -5.617 -10.044  16.090  0.00  0.00    -0.213 NA
ATOM     13  C   UNL     1      -4.379 -10.381  16.380  0.00  0.00    +0.201 A 
ATOM     15  C   UNL     1      -6.328 -10.480  17.182  0.00  0.00    +0.111 A 
ATOM     16  C   UNL     1      -5.465 -11.069  18.095  0.00  0.00    +0.155 A 
ATOM     19  C   UNL     1      -7.696 -10.419  17.484  0.00  0.00    +0.058 A 
ATOM     20  C   UNL     1      -5.854 -11.616  19.312  0.00  0.00    +0.050 A 
ATOM     21  C   UNL     1      -8.126 -10.960  18.703  0.00  0.00    +0.090 A 
ATOM     22  C   UNL     1      -7.223 -11.546  19.597  0.00  0.00    +0.030 A 
BRANCH  21   1
ATOM      1  S   UNL     1      -9.826 -10.899  19.114  0.00  0.00    -0.003 S 
ATOM      3  O   UNL     1     -10.470 -12.108  18.622  0.00  0.00    -0.169 OA
ATOM      4  O   UNL     1      -9.931 -10.542  20.520  0.00  0.00    -0.169 OA
BRANCH   1  26
ATOM     26  C   UNL     1     -10.462  -9.544  18.155  0.00  0.00    +0.168 C 
ATOM     27  C   UNL     1     -11.959  -9.403  18.318  0.00  0.00    +0.028 C 
ENDBRANCH   1  26
ENDBRANCH  21   1
ENDBRANCH   8  13
BRANCH   5  12
ATOM     12  C   UNL     1      -1.869 -11.823  12.528  0.00  0.00    +0.119 C 
BRANCH  12  14
ATOM     14  C   UNL     1      -2.785 -11.278  11.465  0.00  0.00    -0.033 A 
ATOM     17  C   UNL     1      -3.781 -12.089  10.921  0.00  0.00    +0.007 A 
ATOM     18  C   UNL     1      -2.640  -9.962  11.025  0.00  0.00    +0.007 A 
ATOM     23  C   UNL     1      -4.631 -11.584   9.936  0.00  0.00    +0.023 A 
ATOM     24  C   UNL     1      -3.489  -9.458  10.041  0.00  0.00    +0.023 A 
ATOM     25  C   UNL     1      -4.484 -10.269   9.496  0.00  0.00    +0.029 A 
BRANCH  25   7
ATOM      7  N   UNL     1      -5.343  -9.758   8.501  0.00  0.00    -0.336 N 
ATOM     28  C   UNL     1      -5.316 -10.303   7.158  0.00  0.00    +0.129 C 
ATOM     29  C   UNL     1      -6.270  -8.688   8.810  0.00  0.00    +0.129 C 
ENDBRANCH  25   7
ENDBRANCH  12  14
ENDBRANCH   5  12
TORSDOF 6
ENDMDL
MODEL 4
REMARK VINA RESULT:      -6.8     27.751     31.689
REMARK  Name = 51137135
REMARK  9 active torsions:
REMARK  status: ('A' for Active; 'I' for Inactive)
REMARK    1  A    between atoms: S_1  and  C_21
REMARK    2  A    between atoms: S_1  and  C_26
REMARK    3  A    between atoms: N_5  and  C_12
REMARK    4  A    between atoms: N_7  and  C_25
REMARK    5  A    between atoms: N_7  and  C_28
REMARK    6  A    between atoms: N_7  and  C_29
REMARK    7  A    between atoms: C_8  and  C_13
REMARK    8  A    between atoms: C_12  and  C_14
REMARK    9  A    between atoms: C_26  and  C_27
REMARK                            x       y       z     vdW  Elec       q    Type
REMARK                         _______ _______ _______ _____ _____    ______ ____
ROOT
ATOM      5  N   UNL     1      -8.301 -10.339  17.478  0.00  0.00    -0.297 NA
ATOM      8  C   UNL     1      -9.499  -8.329  17.322  0.00  0.00    +0.090 C 
ATOM      9  C   UNL     1     -10.141  -9.229  18.391  0.00  0.00    +0.029 C 
ATOM     10  C   UNL     1      -8.586  -9.267  16.521  0.00  0.00    +0.097 C 
ATOM     11  C   UNL     1      -9.585 -10.621  18.121  0.00  0.00    +0.085 C 
ENDROOT
BRANCH   8  13
ATOM      2  O   UNL     1     -11.790  -7.927  16.590  0.00  0.00    -0.439 OA
ATOM      6  N   UNL     1     -10.234  -6.629  15.574  0.00  0.00    -0.213 NA
ATOM     13  C   UNL     1     -10.479  -7.577  16.451  0.00  0.00    +0.201 A 
ATOM     15  C   UNL     1     -11.480  -6.318  15.086  0.00  0.00    +0.111 A 
ATOM     16  C   UNL     1     -12.435  -7.111  15.707  0.00  0.00    +0.155 A 
ATOM     19  C   UNL     1     -11.894  -5.386  14.124  0.00  0.00    +0.058 A 
ATOM     20  C   UNL     1     -13.799  -7.056  15.448  0.00  0.00    +0.050 A 
ATOM     21  C   UNL     1     -13.263  -5.300  13.837  0.00  0.00    +0.090 A 
ATOM     22  C   UNL     1     -14.195  -6.119  14.485  0.00  0.00    +0.030 A 
BRANCH  21   1
ATOM      1  S   UNL     1     -13.817  -4.147  12.644  0.00  0.00    -0.003 S 
ATOM      3  O   UNL     1     -14.501  -4.865  11.579  0.00  0.00    -0.169 OA
ATOM      4  O   UNL     1     -14.499  -3.071  13.348  0.00  0.00    -0.169 OA
BRANCH   1  26
ATOM     26  C   UNL     1     -12.322  -3.484  11.946  0.00  0.00    +0.168 C 
ATOM     27  C   UNL     1     -12.351  -3.521  10.435  0.00  0.00    +0.028 C 
ENDBRANCH   1  26
ENDBRANCH  21   1
ENDBRANCH   8  13
BRANCH   5  12
ATOM     12  C   UNL     1      -7.731 -11.516  16.840  0.00  0.00    +0.119 C 
BRANCH  12  14
ATOM     14  C   UNL     1      -6.331 -11.264  16.348  0.00  0.00    -0.033 A 
ATOM     17  C   UNL     1      -6.027 -11.428  14.996  0.00  0.00    +0.007 A 
ATOM     18  C   UNL     1      -5.337 -10.866  17.242  0.00  0.00    +0.007 A 
ATOM     23  C   UNL     1      -4.729 -11.194  14.539  0.00  0.00    +0.023 A 
ATOM     24  C   UNL     1      -4.040 -10.633  16.786  0.00  0.00    +0.023 A 
ATOM     25  C   UNL     1      -3.737 -10.797  15.435  0.00  0.00    +0.029 A 
BRANCH  25   7
ATOM      7  N   UNL     1      -2.424 -10.560  14.973  0.00  0.00    -0.336 N 
ATOM     28  C   UNL     1      -2.151 -10.475  13.552  0.00  0.00    +0.129 C 
ATOM     29  C   UNL     1      -1.335 -10.391  15.914  0.00  0.00    +0.129 C 
ENDBRANCH  25   7
ENDBRANCH  12  14
ENDBRANCH   5  12
TORSDOF 6
ENDMDL
MODEL 5
REMARK VINA RESULT:      -6.8      3.705      5.167
REMARK  Name = 51137135
REMARK  9 active torsions:
REMARK  status: ('A' for Active; 'I' for Inactive)
REMARK    1  A    between atoms: S_1  and  C_21
REMARK    2  A    between atoms: S_1  and  C_26
REMARK    3  A    between atoms: N_5  and  C_12
REMARK    4  A    between atoms: N_7  and  C_25
REMARK    5  A    between atoms: N_7  and  C_28
REMARK    6  A    between atoms: N_7  and  C_29
REMARK    7  A    between atoms: C_8  and  C_13
REMARK    8  A    between atoms: C_12  and  C_14
REMARK    9  A    between atoms: C_26  and  C_27
REMARK                            x       y       z     vdW  Elec       q    Type
REMARK                         _______ _______ _______ _____ _____    ______ ____
ROOT
ATOM      5  N   UNL     1      11.868   7.814  18.911  0.00  0.00    -0.297 NA
ATOM      8  C   UNL     1      13.630   6.734  20.018  0.00  0.00    +0.090 C 
ATOM      9  C   UNL     1      12.725   7.432  21.049  0.00  0.00    +0.029 C 
ATOM     10  C   UNL     1      13.238   7.358  18.672  0.00  0.00    +0.097 C 
ATOM     11  C   UNL     1      11.900   8.424  20.241  0.00  0.00    +0.085 C 
ENDROOT
BRANCH   8  13
ATOM      2  O   UNL     1      15.517   7.948  20.972  0.00  0.00    -0.439 OA
ATOM      6  N   UNL     1      16.061   5.979  19.990  0.00  0.00    -0.213 NA
ATOM     13  C   UNL     1      15.111   6.831  20.304  0.00  0.00    +0.201 A 
ATOM     15  C   UNL     1      17.196   6.572  20.489  0.00  0.00    +0.111 A 
ATOM     16  C   UNL     1      16.866   7.777  21.090  0.00  0.00    +0.155 A 
ATOM     19  C   UNL     1      18.538   6.165  20.477  0.00  0.00    +0.058 A 
ATOM     20  C   UNL     1      17.776   8.634  21.697  0.00  0.00    +0.050 A 
ATOM     21  C   UNL     1      19.486   7.004  21.080  0.00  0.00    +0.090 A 
ATOM     22  C   UNL     1      19.111   8.213  21.677  0.00  0.00    +0.030 A 
BRANCH  21   1
ATOM      1  S   UNL     1      21.169   6.527  21.087  0.00  0.00    -0.003 S 
ATOM      3  O   UNL     1      21.892   7.346  20.125  0.00  0.00    -0.169 OA
ATOM      4  O   UNL     1      21.611   6.475  22.473  0.00  0.00    -0.169 OA
BRANCH   1  26
ATOM     26  C   UNL     1      21.158   4.867  20.452  0.00  0.00    +0.168 C 
ATOM     27  C   UNL     1      21.687   3.881  21.470  0.00  0.00    +0.028 C 
ENDBRANCH   1  26
ENDBRANCH  21   1
ENDBRANCH   8  13
BRANCH   5  12
ATOM     12  C   UNL     1      11.404   8.739  17.888  0.00  0.00    +0.119 C 
BRANCH  12  14
ATOM     14  C   UNL     1      12.538   9.529  17.290  0.00  0.00    -0.033 A 
ATOM     17  C   UNL     1      12.966   9.258  15.989  0.00  0.00    +0.007 A 
ATOM     18  C   UNL     1      13.160  10.531  18.034  0.00  0.00    +0.007 A 
ATOM     23  C   UNL     1      14.016   9.991  15.435  0.00  0.00    +0.023 A 
ATOM     24  C   UNL     1      14.210  11.262  17.481  0.00  0.00    +0.023 A 
ATOM     25  C   UNL     1      14.638  10.992  16.181  0.00  0.00    +0.029 A 
BRANCH  25   7
ATOM      7  N   UNL     1      15.701  11.732  15.620  0.00  0.00    -0.336 N 
ATOM     28  C   UNL     1      16.406  12.719  16.414  0.00  0.00    +0.129 C 
ATOM     29  C   UNL     1      16.105  11.509  14.247  0.00  0.00    +0.129 C 
ENDBRANCH  25   7
ENDBRANCH  12  14
ENDBRANCH   5  12
TORSDOF 6
ENDMDL
MODEL 6
REMARK VINA RESULT:      -6.7     27.655     31.003
REMARK  Name = 51137135
REMARK  9 active torsions:
REMARK  status: ('A' for Active; 'I' for Inactive)
REMARK    1  A    between atoms: S_1  and  C_21
REMARK    2  A    between atoms: S_1  and  C_26
REMARK    3  A    between atoms: N_5  and  C_12
REMARK    4  A    between atoms: N_7  and  C_25
REMARK    5  A    between atoms: N_7  and  C_28
REMARK    6  A    between atoms: N_7  and  C_29
REMARK    7  A    between atoms: C_8  and  C_13
REMARK    8  A    between atoms: C_12  and  C_14
REMARK    9  A    between atoms: C_26  and  C_27
REMARK                            x       y       z     vdW  Elec       q    Type
REMARK                         _______ _______ _______ _____ _____    ______ ____
ROOT
ATOM      5  N   UNL     1     -14.779   6.407  21.395  0.00  0.00    -0.297 NA
ATOM      8  C   UNL     1     -15.824   4.582  22.430  0.00  0.00    +0.090 C 
ATOM      9  C   UNL     1     -16.859   5.691  22.175  0.00  0.00    +0.029 C 
ATOM     10  C   UNL     1     -14.464   5.275  22.268  0.00  0.00    +0.097 C 
ATOM     11  C   UNL     1     -16.037   6.945  21.913  0.00  0.00    +0.085 C 
ENDROOT
BRANCH   8  13
ATOM      2  O   UNL     1     -16.456   2.600  23.701  0.00  0.00    -0.439 OA
ATOM      6  N   UNL     1     -15.685   4.320  24.959  0.00  0.00    -0.213 NA
ATOM     13  C   UNL     1     -15.968   3.871  23.756  0.00  0.00    +0.201 A 
ATOM     15  C   UNL     1     -16.009   3.264  25.776  0.00  0.00    +0.111 A 
ATOM     16  C   UNL     1     -16.481   2.209  25.009  0.00  0.00    +0.155 A 
ATOM     19  C   UNL     1     -15.937   3.110  27.168  0.00  0.00    +0.058 A 
ATOM     20  C   UNL     1     -16.898   0.985  25.517  0.00  0.00    +0.050 A 
ATOM     21  C   UNL     1     -16.348   1.888  27.718  0.00  0.00    +0.090 A 
ATOM     22  C   UNL     1     -16.819   0.848  26.908  0.00  0.00    +0.030 A 
BRANCH  21   1
ATOM      1  S   UNL     1     -16.270   1.660  29.451  0.00  0.00    -0.003 S 
ATOM      3  O   UNL     1     -17.133   2.640  30.093  0.00  0.00    -0.169 OA
ATOM      4  O   UNL     1     -16.456   0.242  29.722  0.00  0.00    -0.169 OA
BRANCH   1  26
ATOM     26  C   UNL     1     -14.596   2.085  29.875  0.00  0.00    +0.168 C 
ATOM     27  C   UNL     1     -14.542   3.312  30.757  0.00  0.00    +0.028 C 
ENDBRANCH   1  26
ENDBRANCH  21   1
ENDBRANCH   8  13
BRANCH   5  12
ATOM     12  C   UNL     1     -13.717   7.403  21.373  0.00  0.00    +0.119 C 
BRANCH  12  14
ATOM     14  C   UNL     1     -13.228   7.671  19.975  0.00  0.00    -0.033 A 
ATOM     17  C   UNL     1     -14.123   8.099  18.993  0.00  0.00    +0.007 A 
ATOM     18  C   UNL     1     -11.881   7.493  19.660  0.00  0.00    +0.007 A 
ATOM     23  C   UNL     1     -13.669   8.348  17.698  0.00  0.00    +0.023 A 
ATOM     24  C   UNL     1     -11.428   7.741  18.366  0.00  0.00    +0.023 A 
ATOM     25  C   UNL     1     -12.322   8.169  17.384  0.00  0.00    +0.029 A 
BRANCH  25   7
ATOM      7  N   UNL     1     -11.863   8.421  16.074  0.00  0.00    -0.336 N 
ATOM     28  C   UNL     1     -10.445   8.561  15.807  0.00  0.00    +0.129 C 
ATOM     29  C   UNL     1     -12.803   8.534  14.977  0.00  0.00    +0.129 C 
ENDBRANCH  25   7
ENDBRANCH  12  14
ENDBRANCH   5  12
TORSDOF 6
ENDMDL
MODEL 7
REMARK VINA RESULT:      -6.6     27.932     31.230
REMARK  Name = 51137135
REMARK  9 active torsions:
REMARK  status: ('A' for Active; 'I' for Inactive)
REMARK    1  A    between atoms: S_1  and  C_21
REMARK    2  A    between atoms: S_1  and  C_26
REMARK    3  A    between atoms: N_5  and  C_12
REMARK    4  A    between atoms: N_7  and  C_25
REMARK    5  A    between atoms: N_7  and  C_28
REMARK    6  A    between atoms: N_7  and  C_29
REMARK    7  A    between atoms: C_8  and  C_13
REMARK    8  A    between atoms: C_12  and  C_14
REMARK    9  A    between atoms: C_26  and  C_27
REMARK                            x       y       z     vdW  Elec       q    Type
REMARK                         _______ _______ _______ _____ _____    ______ ____
ROOT
ATOM      5  N   UNL     1     -17.103   2.251  26.829  0.00  0.00    -0.297 NA
ATOM      8  C   UNL     1     -16.963   4.165  25.482  0.00  0.00    +0.090 C 
ATOM      9  C   UNL     1     -18.044   3.222  24.926  0.00  0.00    +0.029 C 
ATOM     10  C   UNL     1     -16.149   3.295  26.450  0.00  0.00    +0.097 C 
ATOM     11  C   UNL     1     -17.766   1.875  25.580  0.00  0.00    +0.085 C 
ENDROOT
BRANCH   8  13
ATOM      2  O   UNL     1     -14.928   4.223  24.142  0.00  0.00    -0.439 OA
ATOM      6  N   UNL     1     -16.351   5.947  23.770  0.00  0.00    -0.213 NA
ATOM     13  C   UNL     1     -16.107   4.840  24.436  0.00  0.00    +0.201 A 
ATOM     15  C   UNL     1     -15.245   6.083  22.965  0.00  0.00    +0.111 A 
ATOM     16  C   UNL     1     -14.372   5.029  23.191  0.00  0.00    +0.155 A 
ATOM     19  C   UNL     1     -14.899   7.060  22.021  0.00  0.00    +0.058 A 
ATOM     20  C   UNL     1     -13.155   4.857  22.543  0.00  0.00    +0.050 A 
ATOM     21  C   UNL     1     -13.678   6.920  21.346  0.00  0.00    +0.090 A 
ATOM     22  C   UNL     1     -12.824   5.840  21.604  0.00  0.00    +0.030 A 
BRANCH  21   1
ATOM      1  S   UNL     1     -13.213   8.118  20.159  0.00  0.00    -0.003 S 
ATOM      3  O   UNL     1     -13.890   7.822  18.905  0.00  0.00    -0.169 OA
ATOM      4  O   UNL     1     -13.360   9.430  20.770  0.00  0.00    -0.169 OA
BRANCH   1  26
ATOM     26  C   UNL     1     -11.479   7.826  19.896  0.00  0.00    +0.168 C 
ATOM     27  C   UNL     1     -11.207   7.328  18.494  0.00  0.00    +0.028 C 
ENDBRANCH   1  26
ENDBRANCH  21   1
ENDBRANCH   8  13
BRANCH   5  12
ATOM     12  C   UNL     1     -16.457   1.118  27.476  0.00  0.00    +0.119 C 
BRANCH  12  14
ATOM     14  C   UNL     1     -16.009   1.450  28.874  0.00  0.00    -0.033 A 
ATOM     17  C   UNL     1     -16.540   2.561  29.530  0.00  0.00    +0.007 A 
ATOM     18  C   UNL     1     -15.064   0.648  29.514  0.00  0.00    +0.007 A 
ATOM     23  C   UNL     1     -16.125   2.869  30.826  0.00  0.00    +0.023 A 
ATOM     24  C   UNL     1     -14.649   0.956  30.808  0.00  0.00    +0.023 A 
ATOM     25  C   UNL     1     -15.180   2.067  31.465  0.00  0.00    +0.029 A 
BRANCH  25   7
ATOM      7  N   UNL     1     -14.760   2.378  32.775  0.00  0.00    -0.336 N 
ATOM     28  C   UNL     1     -14.510   3.754  33.158  0.00  0.00    +0.129 C 
ATOM     29  C   UNL     1     -14.582   1.328  33.758  0.00  0.00    +0.129 C 
ENDBRANCH  25   7
ENDBRANCH  12  14
ENDBRANCH   5  12
TORSDOF 6
ENDMDL
MODEL 8
REMARK VINA RESULT:      -6.5      1.897      2.755
REMARK  Name = 51137135
REMARK  9 active torsions:
REMARK  status: ('A' for Active; 'I' for Inactive)
REMARK    1  A    between atoms: S_1  and  C_21
REMARK    2  A    between atoms: S_1  and  C_26
REMARK    3  A    between atoms: N_5  and  C_12
REMARK    4  A    between atoms: N_7  and  C_25
REMARK    5  A    between atoms: N_7  and  C_28
REMARK    6  A    between atoms: N_7  and  C_29
REMARK    7  A    between atoms: C_8  and  C_13
REMARK    8  A    between atoms: C_12  and  C_14
REMARK    9  A    between atoms: C_26  and  C_27
REMARK                            x       y       z     vdW  Elec       q    Type
REMARK                         _______ _______ _______ _____ _____    ______ ____
ROOT
ATOM      5  N   UNL     1      13.280   8.688  19.041  0.00  0.00    -0.297 NA
ATOM      8  C   UNL     1      15.017   7.117  19.147  0.00  0.00    +0.090 C 
ATOM      9  C   UNL     1      13.862   6.669  20.059  0.00  0.00    +0.029 C 
ATOM     10  C   UNL     1      14.729   8.595  18.851  0.00  0.00    +0.097 C 
ATOM     11  C   UNL     1      13.008   7.915  20.253  0.00  0.00    +0.085 C 
ENDROOT
BRANCH   8  13
ATOM      2  O   UNL     1      16.825   7.799  20.633  0.00  0.00    -0.439 OA
ATOM      6  N   UNL     1      17.249   5.925  19.432  0.00  0.00    -0.213 NA
ATOM     13  C   UNL     1      16.400   6.888  19.713  0.00  0.00    +0.201 A 
ATOM     15  C   UNL     1      18.330   6.213  20.229  0.00  0.00    +0.111 A 
ATOM     16  C   UNL     1      18.074   7.360  20.965  0.00  0.00    +0.155 A 
ATOM     19  C   UNL     1      19.563   5.565  20.392  0.00  0.00    +0.058 A 
ATOM     20  C   UNL     1      18.957   7.932  21.873  0.00  0.00    +0.050 A 
ATOM     21  C   UNL     1      20.480   6.112  21.300  0.00  0.00    +0.090 A 
ATOM     22  C   UNL     1      20.182   7.272  22.024  0.00  0.00    +0.030 A 
BRANCH  21   1
ATOM      1  S   UNL     1      22.027   5.328  21.531  0.00  0.00    -0.003 S 
ATOM      3  O   UNL     1      22.951   5.803  20.512  0.00  0.00    -0.169 OA
ATOM      4  O   UNL     1      22.378   5.443  22.939  0.00  0.00    -0.169 OA
BRANCH   1  26
ATOM     26  C   UNL     1      21.707   3.614  21.184  0.00  0.00    +0.168 C 
ATOM     27  C   UNL     1      22.979   2.796  21.212  0.00  0.00    +0.028 C 
ENDBRANCH   1  26
ENDBRANCH  21   1
ENDBRANCH   8  13
BRANCH   5  12
ATOM     12  C   UNL     1      12.821  10.065  19.147  0.00  0.00    +0.119 C 
BRANCH  12  14
ATOM     14  C   UNL     1      12.699  10.506  20.581  0.00  0.00    -0.033 A 
ATOM     17  C   UNL     1      11.495  10.329  21.264  0.00  0.00    +0.007 A 
ATOM     18  C   UNL     1      13.787  11.092  21.227  0.00  0.00    +0.007 A 
ATOM     23  C   UNL     1      11.382  10.737  22.594  0.00  0.00    +0.023 A 
ATOM     24  C   UNL     1      13.674  11.500  22.555  0.00  0.00    +0.023 A 
ATOM     25  C   UNL     1      12.471  11.323  23.238  0.00  0.00    +0.029 A 
BRANCH  25   7
ATOM      7  N   UNL     1      12.356  11.736  24.583  0.00  0.00    -0.336 N 
ATOM     28  C   UNL     1      13.540  12.051  25.357  0.00  0.00    +0.129 C 
ATOM     29  C   UNL     1      11.053  11.859  25.203  0.00  0.00    +0.129 C 
ENDBRANCH  25   7
ENDBRANCH  12  14
ENDBRANCH   5  12
TORSDOF 6
ENDMDL
MODEL 9
REMARK VINA RESULT:      -6.4     27.312     29.717
REMARK  Name = 51137135
REMARK  9 active torsions:
REMARK  status: ('A' for Active; 'I' for Inactive)
REMARK    1  A    between atoms: S_1  and  C_21
REMARK    2  A    between atoms: S_1  and  C_26
REMARK    3  A    between atoms: N_5  and  C_12
REMARK    4  A    between atoms: N_7  and  C_25
REMARK    5  A    between atoms: N_7  and  C_28
REMARK    6  A    between atoms: N_7  and  C_29
REMARK    7  A    between atoms: C_8  and  C_13
REMARK    8  A    between atoms: C_12  and  C_14
REMARK    9  A    between atoms: C_26  and  C_27
REMARK                            x       y       z     vdW  Elec       q    Type
REMARK                         _______ _______ _______ _____ _____    ______ ____
ROOT
ATOM      5  N   UNL     1      -7.298 -12.174  19.613  0.00  0.00    -0.297 NA
ATOM      8  C   UNL     1      -5.255 -11.852  18.507  0.00  0.00    +0.090 C 
ATOM      9  C   UNL     1      -5.561 -10.629  19.388  0.00  0.00    +0.029 C 
ATOM     10  C   UNL     1      -6.591 -12.601  18.404  0.00  0.00    +0.097 C 
ATOM     11  C   UNL     1      -7.046 -10.736  19.709  0.00  0.00    +0.085 C 
ENDROOT
BRANCH   8  13
ATOM      2  O   UNL     1      -3.339 -11.176  17.160  0.00  0.00    -0.439 OA
ATOM      6  N   UNL     1      -5.239 -11.543  15.980  0.00  0.00    -0.213 NA
ATOM     13  C   UNL     1      -4.656 -11.529  17.158  0.00  0.00    +0.201 A 
ATOM     15  C   UNL     1      -4.232 -11.168  15.123  0.00  0.00    +0.111 A 
ATOM     16  C   UNL     1      -3.068 -10.943  15.842  0.00  0.00    +0.155 A 
ATOM     19  C   UNL     1      -4.213 -10.994  13.731  0.00  0.00    +0.058 A 
ATOM     20  C   UNL     1      -1.857 -10.551  15.286  0.00  0.00    +0.050 A 
ATOM     21  C   UNL     1      -3.009 -10.599  13.133  0.00  0.00    +0.090 A 
ATOM     22  C   UNL     1      -1.855 -10.382  13.896  0.00  0.00    +0.030 A 
BRANCH  21   1
ATOM      1  S   UNL     1      -2.947 -10.375  11.399  0.00  0.00    -0.003 S 
ATOM      3  O   UNL     1      -1.829  -9.500  11.079  0.00  0.00    -0.169 OA
ATOM      4  O   UNL     1      -3.044 -11.686  10.777  0.00  0.00    -0.169 OA
BRANCH   1  26
ATOM     26  C   UNL     1      -4.434  -9.477  11.020  0.00  0.00    +0.168 C 
ATOM     27  C   UNL     1      -4.327  -8.762   9.691  0.00  0.00    +0.028 C 
ENDBRANCH   1  26
ENDBRANCH  21   1
ENDBRANCH   8  13
BRANCH   5  12
ATOM     12  C   UNL     1      -8.718 -12.486  19.566  0.00  0.00    +0.119 C 
BRANCH  12  14
ATOM     14  C   UNL     1      -9.507 -11.406  18.875  0.00  0.00    -0.033 A 
ATOM     17  C   UNL     1      -9.401 -11.241  17.494  0.00  0.00    +0.007 A 
ATOM     18  C   UNL     1     -10.345 -10.572  19.615  0.00  0.00    +0.007 A 
ATOM     23  C   UNL     1     -10.133 -10.240  16.854  0.00  0.00    +0.023 A 
ATOM     24  C   UNL     1     -11.076  -9.572  18.976  0.00  0.00    +0.023 A 
ATOM     25  C   UNL     1     -10.970  -9.406  17.595  0.00  0.00    +0.029 A 
BRANCH  25   7
ATOM      7  N   UNL     1     -11.710  -8.394  16.947  0.00  0.00    -0.336 N 
ATOM     28  C   UNL     1     -11.116  -7.095  16.699  0.00  0.00    +0.129 C 
ATOM     29  C   UNL     1     -13.070  -8.643  16.515  0.00  0.00    +0.129 C 
ENDBRANCH  25   7
ENDBRANCH  12  14
ENDBRANCH   5  12
TORSDOF 6
ENDMDL
MODEL 10
REMARK VINA RESULT:      -6.4     27.949     30.955
REMARK  Name = 51137135
REMARK  9 active torsions:
REMARK  status: ('A' for Active; 'I' for Inactive)
REMARK    1  A    between atoms: S_1  and  C_21
REMARK    2  A    between atoms: S_1  and  C_26
REMARK    3  A    between atoms: N_5  and  C_12
REMARK    4  A    between atoms: N_7  and  C_25
REMARK    5  A    between atoms: N_7  and  C_28
REMARK    6  A    between atoms: N_7  and  C_29
REMARK    7  A    between atoms: C_8  and  C_13
REMARK    8  A    between atoms: C_12  and  C_14
REMARK    9  A    between atoms: C_26  and  C_27
REMARK                            x       y       z     vdW  Elec       q    Type
REMARK                         _______ _______ _______ _____ _____    ______ ____
ROOT
ATOM      5  N   UNL     1      -7.913 -12.562  19.584  0.00  0.00    -0.297 NA
ATOM      8  C   UNL     1      -5.858 -11.788  18.762  0.00  0.00    +0.090 C 
ATOM      9  C   UNL     1      -6.660 -10.608  19.335  0.00  0.00    +0.029 C 
ATOM     10  C   UNL     1      -6.886 -12.916  18.602  0.00  0.00    +0.097 C 
ATOM     11  C   UNL     1      -8.091 -11.118  19.439  0.00  0.00    +0.085 C 
ENDROOT
BRANCH   8  13
ATOM      2  O   UNL     1      -3.790 -11.179  17.624  0.00  0.00    -0.439 OA
ATOM      6  N   UNL     1      -5.567 -11.484  16.251  0.00  0.00    -0.213 NA
ATOM     13  C   UNL     1      -5.110 -11.488  17.484  0.00  0.00    +0.201 A 
ATOM     15  C   UNL     1      -4.463 -11.145  15.505  0.00  0.00    +0.111 A 
ATOM     16  C   UNL     1      -3.374 -10.958  16.343  0.00  0.00    +0.155 A 
ATOM     19  C   UNL     1      -4.293 -10.975  14.124  0.00  0.00    +0.058 A 
ATOM     20  C   UNL     1      -2.099 -10.608  15.917  0.00  0.00    +0.050 A 
ATOM     21  C   UNL     1      -3.020 -10.622  13.656  0.00  0.00    +0.090 A 
ATOM     22  C   UNL     1      -1.946 -10.442  14.536  0.00  0.00    +0.030 A 
BRANCH  21   1
ATOM      1  S   UNL     1      -2.769 -10.402  11.938  0.00  0.00    -0.003 S 
ATOM      3  O   UNL     1      -3.842  -9.572  11.410  0.00  0.00    -0.169 OA
ATOM      4  O   UNL     1      -1.383 -10.011  11.737  0.00  0.00    -0.169 OA
BRANCH   1  26
ATOM     26  C   UNL     1      -2.986 -12.028  11.252  0.00  0.00    +0.168 C 
ATOM     27  C   UNL     1      -4.044 -12.038  10.172  0.00  0.00    +0.028 C 
ENDBRANCH   1  26
ENDBRANCH  21   1
ENDBRANCH   8  13
BRANCH   5  12
ATOM     12  C   UNL     1      -9.152 -13.298  19.382  0.00  0.00    +0.119 C 
BRANCH  12  14
ATOM     14  C   UNL     1      -9.741 -13.774  20.682  0.00  0.00    -0.033 A 
ATOM     17  C   UNL     1      -9.006 -14.624  21.510  0.00  0.00    +0.007 A 
ATOM     18  C   UNL     1     -11.020 -13.367  21.061  0.00  0.00    +0.007 A 
ATOM     23  C   UNL     1      -9.552 -15.065  22.716  0.00  0.00    +0.023 A 
ATOM     24  C   UNL     1     -11.565 -13.808  22.266  0.00  0.00    +0.023 A 
ATOM     25  C   UNL     1     -10.831 -14.657  23.093  0.00  0.00    +0.029 A 
BRANCH  25   7
ATOM      7  N   UNL     1     -11.383 -15.104  24.313  0.00  0.00    -0.336 N 
ATOM     28  C   UNL     1     -12.748 -14.770  24.667  0.00  0.00    +0.129 C 
ATOM     29  C   UNL     1     -10.594 -15.909  25.223  0.00  0.00    +0.129 C 
ENDBRANCH  25   7
ENDBRANCH  12  14
ENDBRANCH   5  12
TORSDOF 6
ENDMDL
