MODEL 1
REMARK VINA RESULT:      -5.9      0.000      0.000
REMARK  Name = 75537026
REMARK  5 active torsions:
REMARK  status: ('A' for Active; 'I' for Inactive)
REMARK    1  A    between atoms: O_2  and  C_17
REMARK    2  A    between atoms: O_2  and  C_20
REMARK    3  A    between atoms: N_6  and  C_15
REMARK    4  A    between atoms: C_15  and  C_17
REMARK    5  A    between atoms: C_16  and  C_18
REMARK                            x       y       z     vdW  Elec       q    Type
REMARK                         _______ _______ _______ _____ _____    ______ ____
ROOT
ATOM      1  O   UNL     1      10.564  11.098  24.296  0.00  0.00    -0.252 OA
ATOM      3  O   UNL     1      11.980   6.277  19.442  0.00  0.00    -0.267 OA
ATOM      5  N   UNL     1      11.223  10.170  22.241  0.00  0.00    -0.278 N 
ATOM      6  N   UNL     1      11.650  12.344  22.614  0.00  0.00    -0.281 N 
ATOM      7  N   UNL     1      12.363   8.322  20.506  0.00  0.00    -0.292 N 
ATOM      9  C   UNL     1      11.776  10.655  20.987  0.00  0.00    +0.112 C 
ATOM     10  C   UNL     1      12.256  12.064  21.324  0.00  0.00    +0.133 C 
ATOM     11  C   UNL     1      12.866   9.709  20.492  0.00  0.00    +0.132 C 
ATOM     12  C   UNL     1      10.798   8.785  22.356  0.00  0.00    +0.128 C 
ATOM     13  C   UNL     1      11.885   7.857  21.815  0.00  0.00    +0.127 C 
ATOM     14  C   UNL     1      11.077  11.193  23.188  0.00  0.00    +0.305 C 
ATOM     16  C   UNL     1      12.358   7.448  19.418  0.00  0.00    +0.285 C 
ENDROOT
BRANCH  16  18
ATOM      4  O   UNL     1      11.912   8.200  17.155  0.00  0.00    -0.350 OA
ATOM      8  N   UNL     1      12.558   8.667  16.017  0.00  0.00    -0.086 NA
ATOM     18  C   UNL     1      12.831   7.953  18.123  0.00  0.00    +0.222 A 
ATOM     19  C   UNL     1      14.085   8.246  17.654  0.00  0.00    +0.077 A 
ATOM     21  C   UNL     1      13.855   8.685  16.339  0.00  0.00    +0.157 A 
ENDBRANCH  16  18
BRANCH   6  15
ATOM     15  C   UNL     1      11.768  13.637  23.250  0.00  0.00    +0.137 C 
BRANCH  15  17
ATOM     17  C   UNL     1      10.518  14.475  23.044  0.00  0.00    +0.178 C 
BRANCH  17   2
ATOM      2  O   UNL     1       9.798  14.556  24.266  0.00  0.00    -0.381 OA
ATOM     20  C   UNL     1      10.666  14.467  25.389  0.00  0.00    +0.194 C 
ENDBRANCH  17   2
ENDBRANCH  15  17
ENDBRANCH   6  15
TORSDOF 4
ENDMDL
MODEL 2
REMARK VINA RESULT:      -5.3     26.281     28.456
REMARK  Name = 75537026
REMARK  5 active torsions:
REMARK  status: ('A' for Active; 'I' for Inactive)
REMARK    1  A    between atoms: O_2  and  C_17
REMARK    2  A    between atoms: O_2  and  C_20
REMARK    3  A    between atoms: N_6  and  C_15
REMARK    4  A    between atoms: C_15  and  C_17
REMARK    5  A    between atoms: C_16  and  C_18
REMARK                            x       y       z     vdW  Elec       q    Type
REMARK                         _______ _______ _______ _____ _____    ______ ____
ROOT
ATOM      1  O   UNL     1      -4.291 -11.709  18.951  0.00  0.00    -0.252 OA
ATOM      3  O   UNL     1     -10.931  -9.540  18.811  0.00  0.00    -0.267 OA
ATOM      5  N   UNL     1      -6.225 -10.581  18.238  0.00  0.00    -0.278 N 
ATOM      6  N   UNL     1      -4.456 -10.643  16.854  0.00  0.00    -0.281 N 
ATOM      7  N   UNL     1      -8.934 -10.172  17.774  0.00  0.00    -0.292 N 
ATOM      9  C   UNL     1      -6.610  -9.746  17.112  0.00  0.00    +0.112 C 
ATOM     10  C   UNL     1      -5.495  -9.972  16.094  0.00  0.00    +0.133 C 
ATOM     11  C   UNL     1      -8.006 -10.128  16.627  0.00  0.00    +0.132 C 
ATOM     12  C   UNL     1      -7.134 -10.750  19.358  0.00  0.00    +0.128 C 
ATOM     13  C   UNL     1      -8.534 -11.088  18.850  0.00  0.00    +0.127 C 
ATOM     14  C   UNL     1      -4.911 -11.057  18.120  0.00  0.00    +0.305 C 
ATOM     16  C   UNL     1     -10.136  -9.469  17.874  0.00  0.00    +0.285 C 
ENDROOT
BRANCH  16  18
ATOM      4  O   UNL     1     -10.003  -7.288  16.821  0.00  0.00    -0.350 OA
ATOM      8  N   UNL     1     -10.457  -6.588  15.709  0.00  0.00    -0.086 NA
ATOM     18  C   UNL     1     -10.495  -8.553  16.784  0.00  0.00    +0.222 A 
ATOM     19  C   UNL     1     -11.271  -8.714  15.667  0.00  0.00    +0.077 A 
ATOM     21  C   UNL     1     -11.212  -7.460  15.035  0.00  0.00    +0.157 A 
ENDBRANCH  16  18
BRANCH   6  15
ATOM     15  C   UNL     1      -3.164 -10.945  16.280  0.00  0.00    +0.137 C 
BRANCH  15  17
ATOM     17  C   UNL     1      -3.147 -10.699  14.782  0.00  0.00    +0.178 C 
BRANCH  17   2
ATOM      2  O   UNL     1      -1.841 -10.303  14.384  0.00  0.00    -0.381 OA
ATOM     20  C   UNL     1      -1.020 -10.011  15.506  0.00  0.00    +0.194 C 
ENDBRANCH  17   2
ENDBRANCH  15  17
ENDBRANCH   6  15
TORSDOF 4
ENDMDL
MODEL 3
REMARK VINA RESULT:      -5.3     29.106     30.811
REMARK  Name = 75537026
REMARK  5 active torsions:
REMARK  status: ('A' for Active; 'I' for Inactive)
REMARK    1  A    between atoms: O_2  and  C_17
REMARK    2  A    between atoms: O_2  and  C_20
REMARK    3  A    between atoms: N_6  and  C_15
REMARK    4  A    between atoms: C_15  and  C_17
REMARK    5  A    between atoms: C_16  and  C_18
REMARK                            x       y       z     vdW  Elec       q    Type
REMARK                         _______ _______ _______ _____ _____    ______ ____
ROOT
ATOM      1  O   UNL     1     -15.480  -0.441  30.208  0.00  0.00    -0.252 OA
ATOM      3  O   UNL     1     -14.124   4.432  35.027  0.00  0.00    -0.267 OA
ATOM      5  N   UNL     1     -15.099   1.676  31.152  0.00  0.00    -0.278 N 
ATOM      6  N   UNL     1     -15.913   1.573  29.061  0.00  0.00    -0.281 N 
ATOM      7  N   UNL     1     -15.169   3.678  33.078  0.00  0.00    -0.292 N 
ATOM      9  C   UNL     1     -15.135   3.058  30.704  0.00  0.00    +0.112 C 
ATOM     10  C   UNL     1     -15.884   2.990  29.377  0.00  0.00    +0.133 C 
ATOM     11  C   UNL     1     -15.791   3.938  31.765  0.00  0.00    +0.132 C 
ATOM     12  C   UNL     1     -14.591   1.358  32.476  0.00  0.00    +0.128 C 
ATOM     13  C   UNL     1     -15.227   2.278  33.516  0.00  0.00    +0.127 C 
ATOM     14  C   UNL     1     -15.492   0.782  30.147  0.00  0.00    +0.305 C 
ATOM     16  C   UNL     1     -14.601   4.642  33.913  0.00  0.00    +0.285 C 
ENDROOT
BRANCH  16  18
ATOM      4  O   UNL     1     -15.625   6.828  33.664  0.00  0.00    -0.350 OA
ATOM      8  N   UNL     1     -15.379   8.090  33.136  0.00  0.00    -0.086 NA
ATOM     18  C   UNL     1     -14.551   6.030  33.435  0.00  0.00    +0.222 A 
ATOM     19  C   UNL     1     -13.587   6.734  32.762  0.00  0.00    +0.077 A 
ATOM     21  C   UNL     1     -14.156   8.010  32.603  0.00  0.00    +0.157 A 
ENDBRANCH  16  18
BRANCH   6  15
ATOM     15  C   UNL     1     -16.446   1.078  27.811  0.00  0.00    +0.137 C 
BRANCH  15  17
ATOM     17  C   UNL     1     -17.930   0.776  27.919  0.00  0.00    +0.178 C 
BRANCH  17   2
ATOM      2  O   UNL     1     -18.332  -0.016  26.810  0.00  0.00    -0.381 OA
ATOM     20  C   UNL     1     -17.807   0.490  25.590  0.00  0.00    +0.194 C 
ENDBRANCH  17   2
ENDBRANCH  15  17
ENDBRANCH   6  15
TORSDOF 4
ENDMDL
MODEL 4
REMARK VINA RESULT:      -5.2     26.720     28.238
REMARK  Name = 75537026
REMARK  5 active torsions:
REMARK  status: ('A' for Active; 'I' for Inactive)
REMARK    1  A    between atoms: O_2  and  C_17
REMARK    2  A    between atoms: O_2  and  C_20
REMARK    3  A    between atoms: N_6  and  C_15
REMARK    4  A    between atoms: C_15  and  C_17
REMARK    5  A    between atoms: C_16  and  C_18
REMARK                            x       y       z     vdW  Elec       q    Type
REMARK                         _______ _______ _______ _____ _____    ______ ____
ROOT
ATOM      1  O   UNL     1     -10.550  -9.729  18.945  0.00  0.00    -0.252 OA
ATOM      3  O   UNL     1      -3.939 -11.985  19.042  0.00  0.00    -0.267 OA
ATOM      5  N   UNL     1      -8.421 -10.341  18.164  0.00  0.00    -0.278 N 
ATOM      6  N   UNL     1      -9.790  -9.234  16.768  0.00  0.00    -0.281 N 
ATOM      7  N   UNL     1      -5.658 -10.639  18.209  0.00  0.00    -0.292 N 
ATOM      9  C   UNL     1      -7.706 -10.307  16.899  0.00  0.00    +0.112 C 
ATOM     10  C   UNL     1      -8.547  -9.375  16.032  0.00  0.00    +0.133 C 
ATOM     11  C   UNL     1      -6.267  -9.851  17.120  0.00  0.00    +0.132 C 
ATOM     12  C   UNL     1      -7.834 -11.015  19.310  0.00  0.00    +0.128 C 
ATOM     13  C   UNL     1      -6.381 -10.577  19.487  0.00  0.00    +0.127 C 
ATOM     14  C   UNL     1      -9.696  -9.767  18.069  0.00  0.00    +0.305 C 
ATOM     16  C   UNL     1      -4.469 -11.365  18.121  0.00  0.00    +0.285 C 
ENDROOT
BRANCH  16  18
ATOM      4  O   UNL     1      -4.165 -12.362  15.931  0.00  0.00    -0.350 OA
ATOM      8  N   UNL     1      -3.399 -12.241  14.777  0.00  0.00    -0.086 NA
ATOM     18  C   UNL     1      -3.783 -11.414  16.824  0.00  0.00    +0.222 A 
ATOM     19  C   UNL     1      -2.773 -10.657  16.290  0.00  0.00    +0.077 A 
ATOM     21  C   UNL     1      -2.575 -11.216  15.016  0.00  0.00    +0.157 A 
ENDBRANCH  16  18
BRANCH   6  15
ATOM     15  C   UNL     1     -10.919  -8.507  16.233  0.00  0.00    +0.137 C 
BRANCH  15  17
ATOM     17  C   UNL     1     -10.914  -7.058  16.688  0.00  0.00    +0.178 C 
BRANCH  17   2
ATOM      2  O   UNL     1     -10.534  -6.224  15.601  0.00  0.00    -0.381 OA
ATOM     20  C   UNL     1     -11.663  -5.804  14.846  0.00  0.00    +0.194 C 
ENDBRANCH  17   2
ENDBRANCH  15  17
ENDBRANCH   6  15
TORSDOF 4
ENDMDL
MODEL 5
REMARK VINA RESULT:      -5.1     26.569     28.162
REMARK  Name = 75537026
REMARK  5 active torsions:
REMARK  status: ('A' for Active; 'I' for Inactive)
REMARK    1  A    between atoms: O_2  and  C_17
REMARK    2  A    between atoms: O_2  and  C_20
REMARK    3  A    between atoms: N_6  and  C_15
REMARK    4  A    between atoms: C_15  and  C_17
REMARK    5  A    between atoms: C_16  and  C_18
REMARK                            x       y       z     vdW  Elec       q    Type
REMARK                         _______ _______ _______ _____ _____    ______ ____
ROOT
ATOM      1  O   UNL     1      -1.761 -11.118  13.650  0.00  0.00    -0.252 OA
ATOM      3  O   UNL     1      -5.860 -10.535  19.277  0.00  0.00    -0.267 OA
ATOM      5  N   UNL     1      -3.668 -10.677  14.949  0.00  0.00    -0.278 N 
ATOM      6  N   UNL     1      -3.895 -10.758  12.715  0.00  0.00    -0.281 N 
ATOM      7  N   UNL     1      -5.497 -11.001  17.016  0.00  0.00    -0.292 N 
ATOM      9  C   UNL     1      -5.051 -10.302  14.707  0.00  0.00    +0.112 C 
ATOM     10  C   UNL     1      -5.245 -10.569  13.217  0.00  0.00    +0.133 C 
ATOM     11  C   UNL     1      -5.979 -11.093  15.624  0.00  0.00    +0.132 C 
ATOM     12  C   UNL     1      -3.153 -10.705  16.307  0.00  0.00    +0.128 C 
ATOM     13  C   UNL     1      -4.118 -11.464  17.217  0.00  0.00    +0.127 C 
ATOM     14  C   UNL     1      -2.957 -10.877  13.758  0.00  0.00    +0.305 C 
ATOM     16  C   UNL     1      -6.249 -10.569  18.110  0.00  0.00    +0.285 C 
ENDROOT
BRANCH  16  18
ATOM      4  O   UNL     1      -7.793  -8.848  17.374  0.00  0.00    -0.350 OA
ATOM      8  N   UNL     1      -9.151  -8.601  17.218  0.00  0.00    -0.086 NA
ATOM     18  C   UNL     1      -7.620 -10.102  17.867  0.00  0.00    +0.222 A 
ATOM     19  C   UNL     1      -8.839 -10.701  18.044  0.00  0.00    +0.077 A 
ATOM     21  C   UNL     1      -9.756  -9.721  17.624  0.00  0.00    +0.157 A 
ENDBRANCH  16  18
BRANCH   6  15
ATOM     15  C   UNL     1      -3.621 -10.932  11.306  0.00  0.00    +0.137 C 
BRANCH  15  17
ATOM     17  C   UNL     1      -2.948  -9.706  10.714  0.00  0.00    +0.178 C 
BRANCH  17   2
ATOM      2  O   UNL     1      -3.705  -9.244   9.603  0.00  0.00    -0.381 OA
ATOM     20  C   UNL     1      -4.816  -8.462  10.018  0.00  0.00    +0.194 C 
ENDBRANCH  17   2
ENDBRANCH  15  17
ENDBRANCH   6  15
TORSDOF 4
ENDMDL
MODEL 6
REMARK VINA RESULT:      -5.0      4.905      7.356
REMARK  Name = 75537026
REMARK  5 active torsions:
REMARK  status: ('A' for Active; 'I' for Inactive)
REMARK    1  A    between atoms: O_2  and  C_17
REMARK    2  A    between atoms: O_2  and  C_20
REMARK    3  A    between atoms: N_6  and  C_15
REMARK    4  A    between atoms: C_15  and  C_17
REMARK    5  A    between atoms: C_16  and  C_18
REMARK                            x       y       z     vdW  Elec       q    Type
REMARK                         _______ _______ _______ _____ _____    ______ ____
ROOT
ATOM      1  O   UNL     1      19.044   6.654  20.278  0.00  0.00    -0.252 OA
ATOM      3  O   UNL     1      12.097   6.794  19.543  0.00  0.00    -0.267 OA
ATOM      5  N   UNL     1      16.804   7.270  20.630  0.00  0.00    -0.278 N 
ATOM      6  N   UNL     1      18.416   8.541  21.544  0.00  0.00    -0.281 N 
ATOM      7  N   UNL     1      14.157   7.809  19.978  0.00  0.00    -0.292 N 
ATOM      9  C   UNL     1      16.088   8.255  21.424  0.00  0.00    +0.112 C 
ATOM     10  C   UNL     1      17.177   9.231  21.859  0.00  0.00    +0.133 C 
ATOM     11  C   UNL     1      14.963   8.876  20.602  0.00  0.00    +0.132 C 
ATOM     12  C   UNL     1      16.066   6.249  19.907  0.00  0.00    +0.128 C 
ATOM     13  C   UNL     1      14.918   6.886  19.126  0.00  0.00    +0.127 C 
ATOM     14  C   UNL     1      18.195   7.393  20.760  0.00  0.00    +0.305 C 
ATOM     16  C   UNL     1      12.775   7.657  20.100  0.00  0.00    +0.285 C 
ENDROOT
BRANCH  16  18
ATOM      4  O   UNL     1      11.688   8.166  22.208  0.00  0.00    -0.350 OA
ATOM      8  N   UNL     1      11.018   9.190  22.867  0.00  0.00    -0.086 NA
ATOM     18  C   UNL     1      12.050   8.591  20.971  0.00  0.00    +0.222 A 
ATOM     19  C   UNL     1      11.635   9.884  20.787  0.00  0.00    +0.077 A 
ATOM     21  C   UNL     1      10.999  10.206  21.999  0.00  0.00    +0.157 A 
ENDBRANCH  16  18
BRANCH   6  15
ATOM     15  C   UNL     1      19.706   9.084  21.903  0.00  0.00    +0.137 C 
BRANCH  15  17
ATOM     17  C   UNL     1      20.240   8.456  23.178  0.00  0.00    +0.178 C 
BRANCH  17   2
ATOM      2  O   UNL     1      21.214   7.474  22.848  0.00  0.00    -0.381 OA
ATOM     20  C   UNL     1      22.020   7.887  21.753  0.00  0.00    +0.194 C 
ENDBRANCH  17   2
ENDBRANCH  15  17
ENDBRANCH   6  15
TORSDOF 4
ENDMDL
MODEL 7
REMARK VINA RESULT:      -5.0     13.410     18.095
REMARK  Name = 75537026
REMARK  5 active torsions:
REMARK  status: ('A' for Active; 'I' for Inactive)
REMARK    1  A    between atoms: O_2  and  C_17
REMARK    2  A    between atoms: O_2  and  C_20
REMARK    3  A    between atoms: N_6  and  C_15
REMARK    4  A    between atoms: C_15  and  C_17
REMARK    5  A    between atoms: C_16  and  C_18
REMARK                            x       y       z     vdW  Elec       q    Type
REMARK                         _______ _______ _______ _____ _____    ______ ____
ROOT
ATOM      1  O   UNL     1      11.345   7.153   1.096  0.00  0.00    -0.252 OA
ATOM      3  O   UNL     1      10.288   8.812   7.800  0.00  0.00    -0.267 OA
ATOM      5  N   UNL     1      10.803   6.900   3.368  0.00  0.00    -0.278 N 
ATOM      6  N   UNL     1      11.087   5.048   2.128  0.00  0.00    -0.281 N 
ATOM      7  N   UNL     1      10.952   7.344   6.107  0.00  0.00    -0.292 N 
ATOM      9  C   UNL     1      10.461   5.805   4.261  0.00  0.00    +0.112 C 
ATOM     10  C   UNL     1      10.863   4.559   3.477  0.00  0.00    +0.133 C 
ATOM     11  C   UNL     1      11.173   5.976   5.599  0.00  0.00    +0.132 C 
ATOM     12  C   UNL     1      10.705   8.272   3.836  0.00  0.00    +0.128 C 
ATOM     13  C   UNL     1      11.385   8.412   5.197  0.00  0.00    +0.127 C 
ATOM     14  C   UNL     1      11.104   6.455   2.073  0.00  0.00    +0.305 C 
ATOM     16  C   UNL     1      10.430   7.672   7.360  0.00  0.00    +0.285 C 
ENDROOT
BRANCH  16  18
ATOM      4  O   UNL     1      10.950   5.828   8.847  0.00  0.00    -0.350 OA
ATOM      8  N   UNL     1      10.338   4.852   9.626  0.00  0.00    -0.086 NA
ATOM     18  C   UNL     1       9.996   6.577   8.237  0.00  0.00    +0.222 A 
ATOM     19  C   UNL     1       8.754   6.122   8.593  0.00  0.00    +0.077 A 
ATOM     21  C   UNL     1       9.027   5.048   9.458  0.00  0.00    +0.157 A 
ENDBRANCH  16  18
BRANCH   6  15
ATOM     15  C   UNL     1      11.385   4.156   1.030  0.00  0.00    +0.137 C 
BRANCH  15  17
ATOM     17  C   UNL     1      12.647   3.354   1.291  0.00  0.00    +0.178 C 
BRANCH  17   2
ATOM      2  O   UNL     1      13.728   4.244   1.538  0.00  0.00    -0.381 OA
ATOM     20  C   UNL     1      14.965   3.549   1.628  0.00  0.00    +0.194 C 
ENDBRANCH  17   2
ENDBRANCH  15  17
ENDBRANCH   6  15
TORSDOF 4
ENDMDL
MODEL 8
REMARK VINA RESULT:      -4.8     13.790     16.162
REMARK  Name = 75537026
REMARK  5 active torsions:
REMARK  status: ('A' for Active; 'I' for Inactive)
REMARK    1  A    between atoms: O_2  and  C_17
REMARK    2  A    between atoms: O_2  and  C_20
REMARK    3  A    between atoms: N_6  and  C_15
REMARK    4  A    between atoms: C_15  and  C_17
REMARK    5  A    between atoms: C_16  and  C_18
REMARK                            x       y       z     vdW  Elec       q    Type
REMARK                         _______ _______ _______ _____ _____    ______ ____
ROOT
ATOM      1  O   UNL     1      14.617   8.376   3.273  0.00  0.00    -0.252 OA
ATOM      3  O   UNL     1       8.477   5.898   5.504  0.00  0.00    -0.267 OA
ATOM      5  N   UNL     1      13.028   7.373   4.684  0.00  0.00    -0.278 N 
ATOM      6  N   UNL     1      15.017   7.950   5.558  0.00  0.00    -0.281 N 
ATOM      7  N   UNL     1      10.544   6.934   5.848  0.00  0.00    -0.292 N 
ATOM      9  C   UNL     1      12.988   6.874   6.049  0.00  0.00    +0.112 C 
ATOM     10  C   UNL     1      14.246   7.457   6.686  0.00  0.00    +0.133 C 
ATOM     11  C   UNL     1      11.681   7.284   6.721  0.00  0.00    +0.132 C 
ATOM     12  C   UNL     1      11.898   7.151   3.799  0.00  0.00    +0.128 C 
ATOM     13  C   UNL     1      10.597   7.526   4.506  0.00  0.00    +0.127 C 
ATOM     14  C   UNL     1      14.266   7.949   4.366  0.00  0.00    +0.305 C 
ATOM     16  C   UNL     1       9.447   6.152   6.217  0.00  0.00    +0.285 C 
ENDROOT
BRANCH  16  18
ATOM      4  O   UNL     1       9.917   4.307   7.720  0.00  0.00    -0.350 OA
ATOM      8  N   UNL     1       9.818   3.941   9.057  0.00  0.00    -0.086 NA
ATOM     18  C   UNL     1       9.436   5.567   7.564  0.00  0.00    +0.222 A 
ATOM     19  C   UNL     1       9.015   6.053   8.774  0.00  0.00    +0.077 A 
ATOM     21  C   UNL     1       9.277   5.000   9.666  0.00  0.00    +0.157 A 
ENDBRANCH  16  18
BRANCH   6  15
ATOM     15  C   UNL     1      16.348   8.490   5.718  0.00  0.00    +0.137 C 
BRANCH  15  17
ATOM     17  C   UNL     1      16.310   9.960   6.099  0.00  0.00    +0.178 C 
BRANCH  17   2
ATOM      2  O   UNL     1      17.624  10.499   6.026  0.00  0.00    -0.381 OA
ATOM     20  C   UNL     1      18.611   9.486   6.162  0.00  0.00    +0.194 C 
ENDBRANCH  17   2
ENDBRANCH  15  17
ENDBRANCH   6  15
TORSDOF 4
ENDMDL
MODEL 9
REMARK VINA RESULT:      -4.8     26.682     28.074
REMARK  Name = 75537026
REMARK  5 active torsions:
REMARK  status: ('A' for Active; 'I' for Inactive)
REMARK    1  A    between atoms: O_2  and  C_17
REMARK    2  A    between atoms: O_2  and  C_20
REMARK    3  A    between atoms: N_6  and  C_15
REMARK    4  A    between atoms: C_15  and  C_17
REMARK    5  A    between atoms: C_16  and  C_18
REMARK                            x       y       z     vdW  Elec       q    Type
REMARK                         _______ _______ _______ _____ _____    ______ ____
ROOT
ATOM      1  O   UNL     1      -1.665 -10.900  14.208  0.00  0.00    -0.252 OA
ATOM      3  O   UNL     1      -4.824  -9.450   8.148  0.00  0.00    -0.267 OA
ATOM      5  N   UNL     1      -3.391 -10.523  12.659  0.00  0.00    -0.278 N 
ATOM      6  N   UNL     1      -3.917 -10.607  14.842  0.00  0.00    -0.281 N 
ATOM      7  N   UNL     1      -4.679  -9.379  10.479  0.00  0.00    -0.292 N 
ATOM      9  C   UNL     1      -4.841 -10.428  12.691  0.00  0.00    +0.112 C 
ATOM     10  C   UNL     1      -5.162 -10.271  14.174  0.00  0.00    +0.133 C 
ATOM     11  C   UNL     1      -5.312  -9.276  11.808  0.00  0.00    +0.132 C 
ATOM     12  C   UNL     1      -2.694 -10.529  11.385  0.00  0.00    +0.128 C 
ATOM     13  C   UNL     1      -3.210  -9.395  10.500  0.00  0.00    +0.127 C 
ATOM     14  C   UNL     1      -2.843 -10.705  13.937  0.00  0.00    +0.305 C 
ATOM     16  C   UNL     1      -5.353  -9.409   9.257  0.00  0.00    +0.285 C 
ENDROOT
BRANCH  16  18
ATOM      4  O   UNL     1      -7.459  -8.206   9.317  0.00  0.00    -0.350 OA
ATOM      8  N   UNL     1      -8.833  -8.418   9.331  0.00  0.00    -0.086 NA
ATOM     18  C   UNL     1      -6.822  -9.404   9.277  0.00  0.00    +0.222 A 
ATOM     19  C   UNL     1      -7.744 -10.417   9.265  0.00  0.00    +0.077 A 
ATOM     21  C   UNL     1      -8.978  -9.745   9.299  0.00  0.00    +0.157 A 
ENDBRANCH  16  18
BRANCH   6  15
ATOM     15  C   UNL     1      -3.819 -10.688  16.282  0.00  0.00    +0.137 C 
BRANCH  15  17
ATOM     17  C   UNL     1      -5.120 -10.283  16.953  0.00  0.00    +0.178 C 
BRANCH  17   2
ATOM      2  O   UNL     1      -5.072 -10.640  18.328  0.00  0.00    -0.381 OA
ATOM     20  C   UNL     1      -6.337 -10.476  18.954  0.00  0.00    +0.194 C 
ENDBRANCH  17   2
ENDBRANCH  15  17
ENDBRANCH   6  15
TORSDOF 4
ENDMDL
MODEL 10
REMARK VINA RESULT:      -4.8     26.174     28.164
REMARK  Name = 75537026
REMARK  5 active torsions:
REMARK  status: ('A' for Active; 'I' for Inactive)
REMARK    1  A    between atoms: O_2  and  C_17
REMARK    2  A    between atoms: O_2  and  C_20
REMARK    3  A    between atoms: N_6  and  C_15
REMARK    4  A    between atoms: C_15  and  C_17
REMARK    5  A    between atoms: C_16  and  C_18
REMARK                            x       y       z     vdW  Elec       q    Type
REMARK                         _______ _______ _______ _____ _____    ______ ____
ROOT
ATOM      1  O   UNL     1      -1.325 -10.112  11.497  0.00  0.00    -0.252 OA
ATOM      3  O   UNL     1      -3.577 -11.469  17.970  0.00  0.00    -0.267 OA
ATOM      5  N   UNL     1      -2.803 -10.383  13.303  0.00  0.00    -0.278 N 
ATOM      6  N   UNL     1      -3.668 -10.182  11.239  0.00  0.00    -0.281 N 
ATOM      7  N   UNL     1      -3.820 -11.477  15.646  0.00  0.00    -0.292 N 
ATOM      9  C   UNL     1      -4.242 -10.347  13.510  0.00  0.00    +0.112 C 
ATOM     10  C   UNL     1      -4.813 -10.427  12.097  0.00  0.00    +0.133 C 
ATOM     11  C   UNL     1      -4.668 -11.481  14.438  0.00  0.00    +0.132 C 
ATOM     12  C   UNL     1      -1.911 -10.481  14.445  0.00  0.00    +0.128 C 
ATOM     13  C   UNL     1      -2.380 -11.592  15.383  0.00  0.00    +0.127 C 
ATOM     14  C   UNL     1      -2.456 -10.209  11.956  0.00  0.00    +0.305 C 
ATOM     16  C   UNL     1      -4.282 -11.426  16.963  0.00  0.00    +0.285 C 
ENDROOT
BRANCH  16  18
ATOM      4  O   UNL     1      -6.272 -10.056  17.175  0.00  0.00    -0.350 OA
ATOM      8  N   UNL     1      -7.640 -10.152  17.404  0.00  0.00    -0.086 NA
ATOM     18  C   UNL     1      -5.728 -11.299  17.185  0.00  0.00    +0.222 A 
ATOM     19  C   UNL     1      -6.707 -12.230  17.415  0.00  0.00    +0.077 A 
ATOM     21  C   UNL     1      -7.875 -11.460  17.543  0.00  0.00    +0.157 A 
ENDBRANCH  16  18
BRANCH   6  15
ATOM     15  C   UNL     1      -3.798 -10.064   9.804  0.00  0.00    +0.137 C 
BRANCH  15  17
ATOM     17  C   UNL     1      -4.584  -8.825   9.416  0.00  0.00    +0.178 C 
BRANCH  17   2
ATOM      2  O   UNL     1      -5.562  -9.172   8.444  0.00  0.00    -0.381 OA
ATOM     20  C   UNL     1      -5.127 -10.253   7.631  0.00  0.00    +0.194 C 
ENDBRANCH  17   2
ENDBRANCH  15  17
ENDBRANCH   6  15
TORSDOF 4
ENDMDL
