MODEL 1
REMARK VINA RESULT:      -7.0      0.000      0.000
REMARK  Name = 51137763
REMARK  3 active torsions:
REMARK  status: ('A' for Active; 'I' for Inactive)
REMARK    1  A    between atoms: C_7  and  C_11
REMARK    2  A    between atoms: C_12  and  C_13
REMARK    3  A    between atoms: C_14  and  C_17
REMARK                            x       y       z     vdW  Elec       q    Type
REMARK                         _______ _______ _______ _____ _____    ______ ____
ROOT
ATOM      3  O   UNL     1      -5.947 -12.740  11.506  0.00  0.00    -0.270 OA
ATOM      4  N   UNL     1      -3.725 -12.499  12.140  0.00  0.00    -0.297 N 
ATOM      7  C   UNL     1      -1.701 -12.382  13.384  0.00  0.00    +0.095 C 
ATOM      8  C   UNL     1      -2.216 -13.829  13.372  0.00  0.00    +0.033 C 
ATOM      9  C   UNL     1      -2.461 -11.764  12.204  0.00  0.00    +0.121 C 
ATOM     10  C   UNL     1      -3.678 -13.693  12.969  0.00  0.00    +0.109 C 
ATOM     12  C   UNL     1      -4.881 -12.127  11.472  0.00  0.00    +0.247 C 
ENDROOT
BRANCH  12  13
ATOM     13  C   UNL     1      -4.837 -10.894  10.671  0.00  0.00    +0.037 A 
ATOM     15  C   UNL     1      -4.492 -10.951   9.320  0.00  0.00    +0.013 A 
ATOM     16  C   UNL     1      -5.139  -9.666  11.262  0.00  0.00    +0.013 A 
ATOM     18  C   UNL     1      -4.451  -9.782   8.561  0.00  0.00    +0.001 A 
ATOM     19  C   UNL     1      -5.098  -8.497  10.503  0.00  0.00    +0.001 A 
ATOM     22  C   UNL     1      -4.754  -8.555   9.152  0.00  0.00    +0.000 A 
ENDBRANCH  12  13
BRANCH   7  11
ATOM      2  O   UNL     1      -3.145 -11.820  15.289  0.00  0.00    -0.420 OA
ATOM      5  N   UNL     1      -1.048 -11.066  15.486  0.00  0.00    -0.112 NA
ATOM      6  N   UNL     1      -1.747 -10.684  16.615  0.00  0.00    -0.107 NA
ATOM     11  C   UNL     1      -1.904 -11.726  14.740  0.00  0.00    +0.222 A 
ATOM     14  C   UNL     1      -2.965 -11.145  16.458  0.00  0.00    +0.251 A 
BRANCH  14  17
ATOM      1  F   UNL     1      -5.229  -9.659  15.735  0.00  0.00    -0.205 F 
ATOM     17  C   UNL     1      -4.115 -11.050  17.310  0.00  0.00    +0.074 A 
ATOM     20  C   UNL     1      -5.222 -10.298  16.913  0.00  0.00    +0.136 A 
ATOM     21  C   UNL     1      -4.124 -11.710  18.539  0.00  0.00    +0.016 A 
ATOM     23  C   UNL     1      -6.337 -10.208  17.746  0.00  0.00    +0.039 A 
ATOM     24  C   UNL     1      -5.240 -11.618  19.371  0.00  0.00    +0.001 A 
ATOM     25  C   UNL     1      -6.346 -10.868  18.975  0.00  0.00    +0.003 A 
ENDBRANCH  14  17
ENDBRANCH   7  11
TORSDOF 3
ENDMDL
MODEL 2
REMARK VINA RESULT:      -6.6      3.635      5.511
REMARK  Name = 51137763
REMARK  3 active torsions:
REMARK  status: ('A' for Active; 'I' for Inactive)
REMARK    1  A    between atoms: C_7  and  C_11
REMARK    2  A    between atoms: C_12  and  C_13
REMARK    3  A    between atoms: C_14  and  C_17
REMARK                            x       y       z     vdW  Elec       q    Type
REMARK                         _______ _______ _______ _____ _____    ______ ____
ROOT
ATOM      3  O   UNL     1      -4.303 -14.004  15.234  0.00  0.00    -0.270 OA
ATOM      4  N   UNL     1      -4.464 -12.203  16.692  0.00  0.00    -0.297 N 
ATOM      7  C   UNL     1      -5.182 -10.668  18.363  0.00  0.00    +0.095 C 
ATOM      8  C   UNL     1      -4.787 -11.999  19.020  0.00  0.00    +0.033 C 
ATOM      9  C   UNL     1      -4.491 -10.772  16.997  0.00  0.00    +0.121 C 
ATOM     10  C   UNL     1      -4.796 -12.994  17.867  0.00  0.00    +0.109 C 
ATOM     12  C   UNL     1      -4.243 -12.796  15.459  0.00  0.00    +0.247 C 
ENDROOT
BRANCH  12  13
ATOM     13  C   UNL     1      -3.929 -11.912  14.326  0.00  0.00    +0.037 A 
ATOM     15  C   UNL     1      -4.955 -11.411  13.525  0.00  0.00    +0.013 A 
ATOM     16  C   UNL     1      -2.602 -11.574  14.053  0.00  0.00    +0.013 A 
ATOM     18  C   UNL     1      -4.656 -10.573  12.452  0.00  0.00    +0.001 A 
ATOM     19  C   UNL     1      -2.304 -10.735  12.979  0.00  0.00    +0.001 A 
ATOM     22  C   UNL     1      -3.330 -10.234  12.179  0.00  0.00    +0.000 A 
ENDBRANCH  12  13
BRANCH   7  11
ATOM      2  O   UNL     1      -7.195  -9.651  17.391  0.00  0.00    -0.420 OA
ATOM      5  N   UNL     1      -7.606 -10.994  19.132  0.00  0.00    -0.112 NA
ATOM      6  N   UNL     1      -8.814 -10.492  18.685  0.00  0.00    -0.107 NA
ATOM     11  C   UNL     1      -6.690 -10.476  18.347  0.00  0.00    +0.222 A 
ATOM     14  C   UNL     1      -8.526  -9.714  17.668  0.00  0.00    +0.251 A 
BRANCH  14  17
ATOM      1  F   UNL     1      -9.052 -10.446  15.015  0.00  0.00    -0.205 F 
ATOM     17  C   UNL     1      -9.381  -8.934  16.821  0.00  0.00    +0.074 A 
ATOM     20  C   UNL     1      -9.616  -9.333  15.505  0.00  0.00    +0.136 A 
ATOM     21  C   UNL     1      -9.976  -7.773  17.315  0.00  0.00    +0.016 A 
ATOM     23  C   UNL     1     -10.447  -8.570  14.684  0.00  0.00    +0.039 A 
ATOM     24  C   UNL     1     -10.807  -7.011  16.493  0.00  0.00    +0.001 A 
ATOM     25  C   UNL     1     -11.042  -7.410  15.178  0.00  0.00    +0.003 A 
ENDBRANCH  14  17
ENDBRANCH   7  11
TORSDOF 3
ENDMDL
MODEL 3
REMARK VINA RESULT:      -6.4      8.514     12.016
REMARK  Name = 51137763
REMARK  3 active torsions:
REMARK  status: ('A' for Active; 'I' for Inactive)
REMARK    1  A    between atoms: C_7  and  C_11
REMARK    2  A    between atoms: C_12  and  C_13
REMARK    3  A    between atoms: C_14  and  C_17
REMARK                            x       y       z     vdW  Elec       q    Type
REMARK                         _______ _______ _______ _____ _____    ______ ____
ROOT
ATOM      3  O   UNL     1     -14.687  -7.273  14.400  0.00  0.00    -0.270 OA
ATOM      4  N   UNL     1     -13.678  -5.338  13.604  0.00  0.00    -0.297 N 
ATOM      7  C   UNL     1     -12.955  -3.532  12.234  0.00  0.00    +0.095 C 
ATOM      8  C   UNL     1     -14.465  -3.418  12.483  0.00  0.00    +0.033 C 
ATOM      9  C   UNL     1     -12.518  -4.480  13.359  0.00  0.00    +0.121 C 
ATOM     10  C   UNL     1     -14.866  -4.810  12.952  0.00  0.00    +0.109 C 
ATOM     12  C   UNL     1     -13.701  -6.547  14.282  0.00  0.00    +0.247 C 
ENDROOT
BRANCH  12  13
ATOM     13  C   UNL     1     -12.446  -7.006  14.896  0.00  0.00    +0.037 A 
ATOM     15  C   UNL     1     -12.032  -6.479  16.119  0.00  0.00    +0.013 A 
ATOM     16  C   UNL     1     -11.668  -7.971  14.254  0.00  0.00    +0.013 A 
ATOM     18  C   UNL     1     -10.843  -6.915  16.701  0.00  0.00    +0.001 A 
ATOM     19  C   UNL     1     -10.478  -8.408  14.836  0.00  0.00    +0.001 A 
ATOM     22  C   UNL     1     -10.065  -7.880  16.059  0.00  0.00    +0.000 A 
ENDBRANCH  12  13
BRANCH   7  11
ATOM      2  O   UNL     1     -11.584  -4.805  10.643  0.00  0.00    -0.420 OA
ATOM      5  N   UNL     1     -13.278  -3.693   9.695  0.00  0.00    -0.112 NA
ATOM      6  N   UNL     1     -12.594  -4.360   8.697  0.00  0.00    -0.107 NA
ATOM     11  C   UNL     1     -12.653  -3.981  10.814  0.00  0.00    +0.222 A 
ATOM     14  C   UNL     1     -11.614  -4.996   9.295  0.00  0.00    +0.251 A 
BRANCH  14  17
ATOM      1  F   UNL     1      -9.009  -4.069   8.838  0.00  0.00    -0.205 F 
ATOM     17  C   UNL     1     -10.589  -5.844   8.759  0.00  0.00    +0.074 A 
ATOM     20  C   UNL     1      -9.304  -5.343   8.545  0.00  0.00    +0.136 A 
ATOM     21  C   UNL     1     -10.880  -7.173   8.450  0.00  0.00    +0.016 A 
ATOM     23  C   UNL     1      -8.312  -6.172   8.023  0.00  0.00    +0.039 A 
ATOM     24  C   UNL     1      -9.886  -8.001   7.927  0.00  0.00    +0.001 A 
ATOM     25  C   UNL     1      -8.603  -7.500   7.714  0.00  0.00    +0.003 A 
ENDBRANCH  14  17
ENDBRANCH   7  11
TORSDOF 3
ENDMDL
MODEL 4
REMARK VINA RESULT:      -6.4     23.979     26.744
REMARK  Name = 51137763
REMARK  3 active torsions:
REMARK  status: ('A' for Active; 'I' for Inactive)
REMARK    1  A    between atoms: C_7  and  C_11
REMARK    2  A    between atoms: C_12  and  C_13
REMARK    3  A    between atoms: C_14  and  C_17
REMARK                            x       y       z     vdW  Elec       q    Type
REMARK                         _______ _______ _______ _____ _____    ______ ____
ROOT
ATOM      3  O   UNL     1      12.487   7.615   3.705  0.00  0.00    -0.270 OA
ATOM      4  N   UNL     1      12.059   5.483   2.888  0.00  0.00    -0.297 N 
ATOM      7  C   UNL     1      11.758   3.591   1.478  0.00  0.00    +0.095 C 
ATOM      8  C   UNL     1      13.241   3.992   1.494  0.00  0.00    +0.033 C 
ATOM      9  C   UNL     1      11.226   4.290   2.736  0.00  0.00    +0.121 C 
ATOM     10  C   UNL     1      13.229   5.419   2.026  0.00  0.00    +0.109 C 
ATOM     12  C   UNL     1      11.793   6.601   3.664  0.00  0.00    +0.247 C 
ENDROOT
BRANCH  12  13
ATOM     13  C   UNL     1      10.577   6.580   4.492  0.00  0.00    +0.037 A 
ATOM     15  C   UNL     1      10.600   5.977   5.750  0.00  0.00    +0.013 A 
ATOM     16  C   UNL     1       9.401   7.163   4.020  0.00  0.00    +0.013 A 
ATOM     18  C   UNL     1       9.448   5.958   6.536  0.00  0.00    +0.001 A 
ATOM     19  C   UNL     1       8.249   7.144   4.805  0.00  0.00    +0.001 A 
ATOM     22  C   UNL     1       8.272   6.542   6.063  0.00  0.00    +0.000 A 
ENDBRANCH  12  13
BRANCH   7  11
ATOM      2  O   UNL     1      11.648   3.459  -0.972  0.00  0.00    -0.420 OA
ATOM      5  N   UNL     1      10.037   4.712  -0.057  0.00  0.00    -0.112 NA
ATOM      6  N   UNL     1       9.859   4.722  -1.427  0.00  0.00    -0.107 NA
ATOM     11  C   UNL     1      11.092   3.963   0.163  0.00  0.00    +0.222 A 
ATOM     14  C   UNL     1      10.821   3.979  -1.920  0.00  0.00    +0.251 A 
BRANCH  14  17
ATOM      1  F   UNL     1       8.826   3.329  -3.778  0.00  0.00    -0.205 F 
ATOM     17  C   UNL     1      11.131   3.635  -3.279  0.00  0.00    +0.074 A 
ATOM     20  C   UNL     1      10.108   3.317  -4.172  0.00  0.00    +0.136 A 
ATOM     21  C   UNL     1      12.459   3.620  -3.704  0.00  0.00    +0.016 A 
ATOM     23  C   UNL     1      10.414   2.983  -5.491  0.00  0.00    +0.039 A 
ATOM     24  C   UNL     1      12.764   3.285  -5.024  0.00  0.00    +0.001 A 
ATOM     25  C   UNL     1      11.742   2.967  -5.916  0.00  0.00    +0.003 A 
ENDBRANCH  14  17
ENDBRANCH   7  11
TORSDOF 3
ENDMDL
MODEL 5
REMARK VINA RESULT:      -6.4      4.658      7.038
REMARK  Name = 51137763
REMARK  3 active torsions:
REMARK  status: ('A' for Active; 'I' for Inactive)
REMARK    1  A    between atoms: C_7  and  C_11
REMARK    2  A    between atoms: C_12  and  C_13
REMARK    3  A    between atoms: C_14  and  C_17
REMARK                            x       y       z     vdW  Elec       q    Type
REMARK                         _______ _______ _______ _____ _____    ______ ____
ROOT
ATOM      3  O   UNL     1      -4.604 -13.402  16.613  0.00  0.00    -0.270 OA
ATOM      4  N   UNL     1      -5.567 -11.403  17.300  0.00  0.00    -0.297 N 
ATOM      7  C   UNL     1      -7.107  -9.668  17.826  0.00  0.00    +0.095 C 
ATOM      8  C   UNL     1      -7.315 -10.849  18.785  0.00  0.00    +0.033 C 
ATOM      9  C   UNL     1      -5.701  -9.946  17.278  0.00  0.00    +0.121 C 
ATOM     10  C   UNL     1      -6.630 -12.014  18.084  0.00  0.00    +0.109 C 
ATOM     12  C   UNL     1      -4.634 -12.173  16.624  0.00  0.00    +0.247 C 
ENDROOT
BRANCH  12  13
ATOM     13  C   UNL     1      -3.606 -11.465  15.845  0.00  0.00    +0.037 A 
ATOM     15  C   UNL     1      -2.435 -11.029  16.466  0.00  0.00    +0.013 A 
ATOM     16  C   UNL     1      -3.802 -11.229  14.483  0.00  0.00    +0.013 A 
ATOM     18  C   UNL     1      -1.461 -10.359  15.727  0.00  0.00    +0.001 A 
ATOM     19  C   UNL     1      -2.828 -10.558  13.744  0.00  0.00    +0.001 A 
ATOM     22  C   UNL     1      -1.657 -10.124  14.365  0.00  0.00    +0.000 A 
ENDBRANCH  12  13
BRANCH   7  11
ATOM      2  O   UNL     1      -9.217  -8.673  17.056  0.00  0.00    -0.420 OA
ATOM      5  N   UNL     1      -8.396 -10.238  15.684  0.00  0.00    -0.112 NA
ATOM      6  N   UNL     1      -9.574  -9.766  15.137  0.00  0.00    -0.107 NA
ATOM     11  C   UNL     1      -8.227  -9.573  16.803  0.00  0.00    +0.222 A 
ATOM     14  C   UNL     1     -10.018  -8.855  15.971  0.00  0.00    +0.251 A 
BRANCH  14  17
ATOM      1  F   UNL     1      -9.895  -6.118  15.376  0.00  0.00    -0.205 F 
ATOM     17  C   UNL     1     -11.195  -8.036  15.916  0.00  0.00    +0.074 A 
ATOM     20  C   UNL     1     -11.090  -6.677  15.618  0.00  0.00    +0.136 A 
ATOM     21  C   UNL     1     -12.445  -8.601  16.164  0.00  0.00    +0.016 A 
ATOM     23  C   UNL     1     -12.237  -5.885  15.567  0.00  0.00    +0.039 A 
ATOM     24  C   UNL     1     -13.592  -7.808  16.113  0.00  0.00    +0.001 A 
ATOM     25  C   UNL     1     -13.487  -6.450  15.815  0.00  0.00    +0.003 A 
ENDBRANCH  14  17
ENDBRANCH   7  11
TORSDOF 3
ENDMDL
MODEL 6
REMARK VINA RESULT:      -6.3     21.203     24.554
REMARK  Name = 51137763
REMARK  3 active torsions:
REMARK  status: ('A' for Active; 'I' for Inactive)
REMARK    1  A    between atoms: C_7  and  C_11
REMARK    2  A    between atoms: C_12  and  C_13
REMARK    3  A    between atoms: C_14  and  C_17
REMARK                            x       y       z     vdW  Elec       q    Type
REMARK                         _______ _______ _______ _____ _____    ______ ____
ROOT
ATOM      3  O   UNL     1     -12.343   3.482  31.731  0.00  0.00    -0.270 OA
ATOM      4  N   UNL     1     -14.288   2.431  31.019  0.00  0.00    -0.297 N 
ATOM      7  C   UNL     1     -15.972   1.379  29.708  0.00  0.00    +0.095 C 
ATOM      8  C   UNL     1     -14.738   0.467  29.792  0.00  0.00    +0.033 C 
ATOM      9  C   UNL     1     -15.742   2.333  30.888  0.00  0.00    +0.121 C 
ATOM     10  C   UNL     1     -13.621   1.402  30.236  0.00  0.00    +0.109 C 
ATOM     12  C   UNL     1     -13.569   3.395  31.708  0.00  0.00    +0.247 C 
ENDROOT
BRANCH  12  13
ATOM     13  C   UNL     1     -14.332   4.404  32.460  0.00  0.00    +0.037 A 
ATOM     15  C   UNL     1     -14.592   4.214  33.817  0.00  0.00    +0.013 A 
ATOM     16  C   UNL     1     -14.795   5.552  31.815  0.00  0.00    +0.013 A 
ATOM     18  C   UNL     1     -15.314   5.171  34.530  0.00  0.00    +0.001 A 
ATOM     19  C   UNL     1     -15.517   6.509  32.527  0.00  0.00    +0.001 A 
ATOM     22  C   UNL     1     -15.777   6.319  33.884  0.00  0.00    +0.000 A 
ENDBRANCH  12  13
BRANCH   7  11
ATOM      2  O   UNL     1     -16.702   1.271  27.366  0.00  0.00    -0.420 OA
ATOM      5  N   UNL     1     -15.726   3.204  27.925  0.00  0.00    -0.112 NA
ATOM      6  N   UNL     1     -16.085   3.277  26.593  0.00  0.00    -0.107 NA
ATOM     11  C   UNL     1     -16.105   2.016  28.335  0.00  0.00    +0.222 A 
ATOM     14  C   UNL     1     -16.651   2.127  26.309  0.00  0.00    +0.251 A 
BRANCH  14  17
ATOM      1  F   UNL     1     -16.903   3.761  24.046  0.00  0.00    -0.205 F 
ATOM     17  C   UNL     1     -17.213   1.643  25.082  0.00  0.00    +0.074 A 
ATOM     20  C   UNL     1     -17.322   2.490  23.978  0.00  0.00    +0.136 A 
ATOM     21  C   UNL     1     -17.653   0.322  24.994  0.00  0.00    +0.016 A 
ATOM     23  C   UNL     1     -17.870   2.014  22.787  0.00  0.00    +0.039 A 
ATOM     24  C   UNL     1     -18.201  -0.152  23.802  0.00  0.00    +0.001 A 
ATOM     25  C   UNL     1     -18.310   0.694  22.700  0.00  0.00    +0.003 A 
ENDBRANCH  14  17
ENDBRANCH   7  11
TORSDOF 3
ENDMDL
MODEL 7
REMARK VINA RESULT:      -6.3     24.336     26.204
REMARK  Name = 51137763
REMARK  3 active torsions:
REMARK  status: ('A' for Active; 'I' for Inactive)
REMARK    1  A    between atoms: C_7  and  C_11
REMARK    2  A    between atoms: C_12  and  C_13
REMARK    3  A    between atoms: C_14  and  C_17
REMARK                            x       y       z     vdW  Elec       q    Type
REMARK                         _______ _______ _______ _____ _____    ______ ____
ROOT
ATOM      3  O   UNL     1      20.258  -3.704  24.837  0.00  0.00    -0.270 OA
ATOM      4  N   UNL     1      19.198  -2.859  26.723  0.00  0.00    -0.297 N 
ATOM      7  C   UNL     1      18.281  -2.581  28.900  0.00  0.00    +0.095 C 
ATOM      8  C   UNL     1      19.813  -2.631  28.988  0.00  0.00    +0.033 C 
ATOM      9  C   UNL     1      18.058  -2.258  27.417  0.00  0.00    +0.121 C 
ATOM     10  C   UNL     1      20.236  -3.250  27.663  0.00  0.00    +0.109 C 
ATOM     12  C   UNL     1      19.310  -3.128  25.368  0.00  0.00    +0.247 C 
ENDROOT
BRANCH  12  13
ATOM     13  C   UNL     1      18.201  -2.708  24.497  0.00  0.00    +0.037 A 
ATOM     15  C   UNL     1      18.206  -1.435  23.926  0.00  0.00    +0.013 A 
ATOM     16  C   UNL     1      17.145  -3.583  24.241  0.00  0.00    +0.013 A 
ATOM     18  C   UNL     1      17.155  -1.037  23.100  0.00  0.00    +0.001 A 
ATOM     19  C   UNL     1      16.094  -3.185  23.415  0.00  0.00    +0.001 A 
ATOM     22  C   UNL     1      16.099  -1.913  22.844  0.00  0.00    +0.000 A 
ENDBRANCH  12  13
BRANCH   7  11
ATOM      2  O   UNL     1      16.337  -3.797  29.778  0.00  0.00    -0.420 OA
ATOM      5  N   UNL     1      18.178  -5.051  29.577  0.00  0.00    -0.112 NA
ATOM      6  N   UNL     1      17.169  -5.852  30.077  0.00  0.00    -0.107 NA
ATOM     11  C   UNL     1      17.647  -3.861  29.418  0.00  0.00    +0.222 A 
ATOM     14  C   UNL     1      16.113  -5.079  30.178  0.00  0.00    +0.251 A 
BRANCH  14  17
ATOM      1  F   UNL     1      14.452  -6.903  28.850  0.00  0.00    -0.205 F 
ATOM     17  C   UNL     1      14.785  -5.370  30.637  0.00  0.00    +0.074 A 
ATOM     20  C   UNL     1      13.990  -6.284  29.945  0.00  0.00    +0.136 A 
ATOM     21  C   UNL     1      14.290  -4.736  31.776  0.00  0.00    +0.016 A 
ATOM     23  C   UNL     1      12.699  -6.563  30.394  0.00  0.00    +0.039 A 
ATOM     24  C   UNL     1      12.999  -5.016  32.224  0.00  0.00    +0.001 A 
ATOM     25  C   UNL     1      12.204  -5.929  31.533  0.00  0.00    +0.003 A 
ENDBRANCH  14  17
ENDBRANCH   7  11
TORSDOF 3
ENDMDL
MODEL 8
REMARK VINA RESULT:      -6.3     26.567     28.472
REMARK  Name = 51137763
REMARK  3 active torsions:
REMARK  status: ('A' for Active; 'I' for Inactive)
REMARK    1  A    between atoms: C_7  and  C_11
REMARK    2  A    between atoms: C_12  and  C_13
REMARK    3  A    between atoms: C_14  and  C_17
REMARK                            x       y       z     vdW  Elec       q    Type
REMARK                         _______ _______ _______ _____ _____    ______ ____
ROOT
ATOM      3  O   UNL     1      17.724  -5.075  -5.651  0.00  0.00    -0.270 OA
ATOM      4  N   UNL     1      17.934  -4.252  -3.490  0.00  0.00    -0.297 N 
ATOM      7  C   UNL     1      18.789  -3.486  -1.406  0.00  0.00    +0.095 C 
ATOM      8  C   UNL     1      19.166  -2.493  -2.515  0.00  0.00    +0.033 C 
ATOM      9  C   UNL     1      17.639  -4.267  -2.056  0.00  0.00    +0.121 C 
ATOM     10  C   UNL     1      18.979  -3.289  -3.800  0.00  0.00    +0.109 C 
ATOM     12  C   UNL     1      17.392  -5.072  -4.467  0.00  0.00    +0.247 C 
ENDROOT
BRANCH  12  13
ATOM     13  C   UNL     1      16.351  -6.026  -4.055  0.00  0.00    +0.037 A 
ATOM     15  C   UNL     1      16.698  -7.330  -3.701  0.00  0.00    +0.013 A 
ATOM     16  C   UNL     1      15.014  -5.625  -4.017  0.00  0.00    +0.013 A 
ATOM     18  C   UNL     1      15.710  -8.232  -3.309  0.00  0.00    +0.001 A 
ATOM     19  C   UNL     1      14.026  -6.528  -3.625  0.00  0.00    +0.001 A 
ATOM     22  C   UNL     1      14.374  -7.831  -3.270  0.00  0.00    +0.000 A 
ENDBRANCH  12  13
BRANCH   7  11
ATOM      2  O   UNL     1      19.949  -4.801   0.313  0.00  0.00    -0.420 OA
ATOM      5  N   UNL     1      21.089  -4.602  -1.601  0.00  0.00    -0.112 NA
ATOM      6  N   UNL     1      21.848  -5.359  -0.729  0.00  0.00    -0.107 NA
ATOM     11  C   UNL     1      19.990  -4.299  -0.951  0.00  0.00    +0.222 A 
ATOM     14  C   UNL     1      21.144  -5.449   0.375  0.00  0.00    +0.251 A 
BRANCH  14  17
ATOM      1  F   UNL     1      22.455  -4.150   2.484  0.00  0.00    -0.205 F 
ATOM     17  C   UNL     1      21.434  -6.113   1.614  0.00  0.00    +0.074 A 
ATOM     20  C   UNL     1      22.090  -5.430   2.638  0.00  0.00    +0.136 A 
ATOM     21  C   UNL     1      21.059  -7.445   1.791  0.00  0.00    +0.016 A 
ATOM     23  C   UNL     1      22.370  -6.080   3.840  0.00  0.00    +0.039 A 
ATOM     24  C   UNL     1      21.340  -8.094   2.993  0.00  0.00    +0.001 A 
ATOM     25  C   UNL     1      21.995  -7.412   4.017  0.00  0.00    +0.003 A 
ENDBRANCH  14  17
ENDBRANCH   7  11
TORSDOF 3
ENDMDL
MODEL 9
REMARK VINA RESULT:      -6.2     23.766     25.960
REMARK  Name = 51137763
REMARK  3 active torsions:
REMARK  status: ('A' for Active; 'I' for Inactive)
REMARK    1  A    between atoms: C_7  and  C_11
REMARK    2  A    between atoms: C_12  and  C_13
REMARK    3  A    between atoms: C_14  and  C_17
REMARK                            x       y       z     vdW  Elec       q    Type
REMARK                         _______ _______ _______ _____ _____    ______ ____
ROOT
ATOM      3  O   UNL     1      10.257   7.363   1.412  0.00  0.00    -0.270 OA
ATOM      4  N   UNL     1       9.918   5.989   3.254  0.00  0.00    -0.297 N 
ATOM      7  C   UNL     1       9.701   5.139   5.465  0.00  0.00    +0.095 C 
ATOM      8  C   UNL     1       8.562   6.129   5.179  0.00  0.00    +0.033 C 
ATOM      9  C   UNL     1      10.183   4.790   4.051  0.00  0.00    +0.121 C 
ATOM     10  C   UNL     1       9.054   6.914   3.971  0.00  0.00    +0.109 C 
ATOM     12  C   UNL     1      10.450   6.308   2.014  0.00  0.00    +0.247 C 
ENDROOT
BRANCH  12  13
ATOM     13  C   UNL     1      11.325   5.314   1.373  0.00  0.00    +0.037 A 
ATOM     15  C   UNL     1      12.612   5.097   1.865  0.00  0.00    +0.013 A 
ATOM     16  C   UNL     1      10.868   4.588   0.273  0.00  0.00    +0.013 A 
ATOM     18  C   UNL     1      13.442   4.155   1.258  0.00  0.00    +0.001 A 
ATOM     19  C   UNL     1      11.697   3.645  -0.334  0.00  0.00    +0.001 A 
ATOM     22  C   UNL     1      12.983   3.428   0.158  0.00  0.00    +0.000 A 
ENDBRANCH  12  13
BRANCH   7  11
ATOM      2  O   UNL     1      11.662   6.566   5.857  0.00  0.00    -0.420 OA
ATOM      5  N   UNL     1      10.883   5.566   7.700  0.00  0.00    -0.112 NA
ATOM      6  N   UNL     1      11.976   6.332   8.059  0.00  0.00    -0.107 NA
ATOM     11  C   UNL     1      10.736   5.733   6.407  0.00  0.00    +0.222 A 
ATOM     14  C   UNL     1      12.398   6.897   6.953  0.00  0.00    +0.251 A 
BRANCH  14  17
ATOM      1  F   UNL     1      12.118   9.676   7.182  0.00  0.00    -0.205 F 
ATOM     17  C   UNL     1      13.495   7.792   6.724  0.00  0.00    +0.074 A 
ATOM     20  C   UNL     1      13.313   9.170   6.847  0.00  0.00    +0.136 A 
ATOM     21  C   UNL     1      14.746   7.282   6.376  0.00  0.00    +0.016 A 
ATOM     23  C   UNL     1      14.383  10.037   6.622  0.00  0.00    +0.039 A 
ATOM     24  C   UNL     1      15.815   8.150   6.151  0.00  0.00    +0.001 A 
ATOM     25  C   UNL     1      15.633   9.527   6.274  0.00  0.00    +0.003 A 
ENDBRANCH  14  17
ENDBRANCH   7  11
TORSDOF 3
ENDMDL
MODEL 10
REMARK VINA RESULT:      -6.2     22.555     25.091
REMARK  Name = 51137763
REMARK  3 active torsions:
REMARK  status: ('A' for Active; 'I' for Inactive)
REMARK    1  A    between atoms: C_7  and  C_11
REMARK    2  A    between atoms: C_12  and  C_13
REMARK    3  A    between atoms: C_14  and  C_17
REMARK                            x       y       z     vdW  Elec       q    Type
REMARK                         _______ _______ _______ _____ _____    ______ ____
ROOT
ATOM      3  O   UNL     1     -12.267   3.585  31.377  0.00  0.00    -0.270 OA
ATOM      4  N   UNL     1     -14.156   2.268  31.074  0.00  0.00    -0.297 N 
ATOM      7  C   UNL     1     -15.858   0.888  30.147  0.00  0.00    +0.095 C 
ATOM      8  C   UNL     1     -14.531   0.117  30.181  0.00  0.00    +0.033 C 
ATOM      9  C   UNL     1     -15.595   2.017  31.153  0.00  0.00    +0.121 C 
ATOM     10  C   UNL     1     -13.479   1.205  30.347  0.00  0.00    +0.109 C 
ATOM     12  C   UNL     1     -13.470   3.382  31.531  0.00  0.00    +0.247 C 
ENDROOT
BRANCH  12  13
ATOM     13  C   UNL     1     -14.243   4.412  32.243  0.00  0.00    +0.037 A 
ATOM     15  C   UNL     1     -14.224   4.461  33.637  0.00  0.00    +0.013 A 
ATOM     16  C   UNL     1     -14.997   5.340  31.523  0.00  0.00    +0.013 A 
ATOM     18  C   UNL     1     -14.957   5.437  34.311  0.00  0.00    +0.001 A 
ATOM     19  C   UNL     1     -15.729   6.317  32.197  0.00  0.00    +0.001 A 
ATOM     22  C   UNL     1     -15.709   6.366  33.590  0.00  0.00    +0.000 A 
ENDBRANCH  12  13
BRANCH   7  11
ATOM      2  O   UNL     1     -16.435   2.638  28.524  0.00  0.00    -0.420 OA
ATOM      5  N   UNL     1     -16.377   0.577  27.656  0.00  0.00    -0.112 NA
ATOM      6  N   UNL     1     -16.710   1.457  26.644  0.00  0.00    -0.107 NA
ATOM     11  C   UNL     1     -16.226   1.310  28.734  0.00  0.00    +0.222 A 
ATOM     14  C   UNL     1     -16.733   2.648  27.195  0.00  0.00    +0.251 A 
BRANCH  14  17
ATOM      1  F   UNL     1     -15.851   3.364  24.633  0.00  0.00    -0.205 F 
ATOM     17  C   UNL     1     -17.017   3.933  26.626  0.00  0.00    +0.074 A 
ATOM     20  C   UNL     1     -16.558   4.251  25.347  0.00  0.00    +0.136 A 
ATOM     21  C   UNL     1     -17.753   4.867  27.355  0.00  0.00    +0.016 A 
ATOM     23  C   UNL     1     -16.837   5.502  24.798  0.00  0.00    +0.039 A 
ATOM     24  C   UNL     1     -18.031   6.119  26.805  0.00  0.00    +0.001 A 
ATOM     25  C   UNL     1     -17.573   6.436  25.527  0.00  0.00    +0.003 A 
ENDBRANCH  14  17
ENDBRANCH   7  11
TORSDOF 3
ENDMDL
