MODEL 1
REMARK VINA RESULT:      -7.2      0.000      0.000
REMARK  Name = 11941488
REMARK  6 active torsions:
REMARK  status: ('A' for Active; 'I' for Inactive)
REMARK    1  A    between atoms: O_5  and  C_26
REMARK    2  A    between atoms: N_8  and  C_10
REMARK    3  A    between atoms: C_18  and  C_20
REMARK    4  A    between atoms: C_20  and  C_24
REMARK    5  A    between atoms: C_22  and  C_25
REMARK    6  A    between atoms: C_24  and  C_26
REMARK                            x       y       z     vdW  Elec       q    Type
REMARK                         _______ _______ _______ _____ _____    ______ ____
ROOT
ATOM      2  O   UNL     1     -16.467   2.134  23.766  0.00  0.00    -0.273 OA
ATOM      3  O   UNL     1     -17.462   7.307  23.810  0.00  0.00    -0.270 OA
ATOM      7  N   UNL     1     -17.026   5.239  24.716  0.00  0.00    -0.284 N 
ATOM      9  N   UNL     1     -15.391   3.840  22.710  0.00  0.00    -0.283 N 
ATOM     10  C   UNL     1     -16.770   3.449  26.241  0.00  0.00    +0.104 C 
ATOM     11  C   UNL     1     -16.121   4.152  25.040  0.00  0.00    +0.183 C 
ATOM     12  C   UNL     1     -18.260   3.755  26.070  0.00  0.00    +0.043 C 
ATOM     13  C   UNL     1     -18.265   5.154  25.475  0.00  0.00    +0.111 C 
ATOM     14  C   UNL     1     -16.051   3.294  23.790  0.00  0.00    +0.240 C 
ATOM     15  C   UNL     1     -16.726   6.329  23.927  0.00  0.00    +0.249 C 
ATOM     16  C   UNL     1     -15.453   6.306  23.158  0.00  0.00    +0.059 A 
ATOM     17  C   UNL     1     -14.920   5.161  22.542  0.00  0.00    +0.046 A 
ATOM     19  C   UNL     1     -14.863   7.560  22.916  0.00  0.00    +0.024 A 
ATOM     21  C   UNL     1     -13.850   5.312  21.644  0.00  0.00    +0.024 A 
ATOM     22  C   UNL     1     -13.772   7.683  22.058  0.00  0.00    -0.010 A 
ATOM     23  C   UNL     1     -13.272   6.560  21.412  0.00  0.00    +0.011 A 
ATOM     31  H   UNL     1     -15.141   3.184  21.974  0.00  0.00    +0.155 HD
ENDROOT
BRANCH  22  25
ATOM      1  S   UNL     1     -12.417   9.278  20.318  0.00  0.00    -0.097 S 
ATOM     25  C   UNL     1     -13.177   8.975  21.823  0.00  0.00    +0.019 A 
ATOM     27  C   UNL     1     -13.115  10.069  22.660  0.00  0.00    +0.016 A 
ATOM     28  C   UNL     1     -12.437  11.168  22.058  0.00  0.00    +0.008 A 
ATOM     29  C   UNL     1     -12.005  10.873  20.783  0.00  0.00    +0.046 A 
ENDBRANCH  22  25
BRANCH  10   8
ATOM      4  O   UNL     1     -15.781   1.954  28.512  0.00  0.00    -0.276 OA
ATOM      8  N   UNL     1     -16.266   3.983  27.485  0.00  0.00    -0.310 N 
ATOM     18  C   UNL     1     -15.810   3.182  28.523  0.00  0.00    +0.214 C 
ATOM     30  H   UNL     1     -16.299   4.989  27.621  0.00  0.00    +0.149 HD
BRANCH  18  20
ATOM     20  C   UNL     1     -15.344   4.013  29.704  0.00  0.00    +0.107 C 
BRANCH  20  24
ATOM     24  C   UNL     1     -14.932   3.154  30.896  0.00  0.00    +0.129 C 
BRANCH  24  26
ATOM      6  O   UNL     1     -12.643   3.529  31.632  0.00  0.00    -0.251 OA
ATOM     26  C   UNL     1     -13.441   2.919  30.934  0.00  0.00    +0.305 C 
BRANCH  26   5
ATOM      5  O   UNL     1     -13.073   1.926  30.083  0.00  0.00    -0.481 OA
ATOM     32  H   UNL     1     -13.851   1.465  29.701  0.00  0.00    +0.295 HD
ENDBRANCH  26   5
ENDBRANCH  24  26
ENDBRANCH  20  24
ENDBRANCH  18  20
ENDBRANCH  10   8
TORSDOF 6
ENDMDL
MODEL 2
REMARK VINA RESULT:      -6.7     16.758     19.517
REMARK  Name = 11941488
REMARK  6 active torsions:
REMARK  status: ('A' for Active; 'I' for Inactive)
REMARK    1  A    between atoms: O_5  and  C_26
REMARK    2  A    between atoms: N_8  and  C_10
REMARK    3  A    between atoms: C_18  and  C_20
REMARK    4  A    between atoms: C_20  and  C_24
REMARK    5  A    between atoms: C_22  and  C_25
REMARK    6  A    between atoms: C_24  and  C_26
REMARK                            x       y       z     vdW  Elec       q    Type
REMARK                         _______ _______ _______ _____ _____    ______ ____
ROOT
ATOM      2  O   UNL     1     -10.878  -9.754  19.101  0.00  0.00    -0.273 OA
ATOM      3  O   UNL     1      -8.570 -11.691  14.780  0.00  0.00    -0.270 OA
ATOM      7  N   UNL     1      -9.863 -10.236  16.004  0.00  0.00    -0.284 N 
ATOM      9  N   UNL     1      -8.688 -10.233  18.701  0.00  0.00    -0.283 N 
ATOM     10  C   UNL     1     -11.384  -8.530  16.614  0.00  0.00    +0.104 C 
ATOM     11  C   UNL     1     -10.011  -9.135  16.939  0.00  0.00    +0.183 C 
ATOM     12  C   UNL     1     -12.160  -9.706  16.019  0.00  0.00    +0.043 C 
ATOM     13  C   UNL     1     -11.093 -10.488  15.268  0.00  0.00    +0.111 C 
ATOM     14  C   UNL     1      -9.926  -9.760  18.320  0.00  0.00    +0.240 C 
ATOM     15  C   UNL     1      -8.682 -10.876  15.694  0.00  0.00    +0.249 C 
ATOM     16  C   UNL     1      -7.487 -10.581  16.528  0.00  0.00    +0.059 A 
ATOM     17  C   UNL     1      -7.522 -10.378  17.919  0.00  0.00    +0.046 A 
ATOM     19  C   UNL     1      -6.245 -10.684  15.875  0.00  0.00    +0.024 A 
ATOM     21  C   UNL     1      -6.309 -10.352  18.629  0.00  0.00    +0.024 A 
ATOM     22  C   UNL     1      -5.052 -10.608  16.592  0.00  0.00    -0.010 A 
ATOM     23  C   UNL     1      -5.084 -10.454  17.971  0.00  0.00    +0.011 A 
ATOM     31  H   UNL     1      -8.582 -10.424  19.695  0.00  0.00    +0.155 HD
ENDROOT
BRANCH  22  25
ATOM      1  S   UNL     1      -3.777 -10.814  14.196  0.00  0.00    -0.097 S 
ATOM     25  C   UNL     1      -3.788 -10.713  15.906  0.00  0.00    +0.019 A 
ATOM     27  C   UNL     1      -2.514 -10.749  16.431  0.00  0.00    +0.016 A 
ATOM     28  C   UNL     1      -1.518 -10.859  15.419  0.00  0.00    +0.008 A 
ATOM     29  C   UNL     1      -2.068 -10.904  14.156  0.00  0.00    +0.046 A 
ENDBRANCH  22  25
BRANCH  10   8
ATOM      4  O   UNL     1     -13.351  -6.497  16.006  0.00  0.00    -0.276 OA
ATOM      8  N   UNL     1     -11.259  -7.450  15.661  0.00  0.00    -0.310 N 
ATOM     18  C   UNL     1     -12.262  -6.518  15.438  0.00  0.00    +0.214 C 
ATOM     30  H   UNL     1     -10.417  -7.409  15.094  0.00  0.00    +0.149 HD
BRANCH  18  20
ATOM     20  C   UNL     1     -11.856  -5.504  14.384  0.00  0.00    +0.107 C 
BRANCH  20  24
ATOM     24  C   UNL     1     -12.949  -5.274  13.344  0.00  0.00    +0.129 C 
BRANCH  24  26
ATOM      6  O   UNL     1     -14.245  -3.235  13.053  0.00  0.00    -0.251 OA
ATOM     26  C   UNL     1     -13.163  -3.805  13.066  0.00  0.00    +0.305 C 
BRANCH  26   5
ATOM      5  O   UNL     1     -11.986  -3.170  12.825  0.00  0.00    -0.481 OA
ATOM     32  H   UNL     1     -12.118  -2.217  12.630  0.00  0.00    +0.295 HD
ENDBRANCH  26   5
ENDBRANCH  24  26
ENDBRANCH  20  24
ENDBRANCH  18  20
ENDBRANCH  10   8
TORSDOF 6
ENDMDL
MODEL 3
REMARK VINA RESULT:      -6.7     20.432     22.556
REMARK  Name = 11941488
REMARK  6 active torsions:
REMARK  status: ('A' for Active; 'I' for Inactive)
REMARK    1  A    between atoms: O_5  and  C_26
REMARK    2  A    between atoms: N_8  and  C_10
REMARK    3  A    between atoms: C_18  and  C_20
REMARK    4  A    between atoms: C_20  and  C_24
REMARK    5  A    between atoms: C_22  and  C_25
REMARK    6  A    between atoms: C_24  and  C_26
REMARK                            x       y       z     vdW  Elec       q    Type
REMARK                         _______ _______ _______ _____ _____    ______ ____
ROOT
ATOM      2  O   UNL     1      -1.564 -10.795  14.696  0.00  0.00    -0.273 OA
ATOM      3  O   UNL     1      -5.397 -12.971  11.810  0.00  0.00    -0.270 OA
ATOM      7  N   UNL     1      -4.470 -11.939  13.643  0.00  0.00    -0.284 N 
ATOM      9  N   UNL     1      -2.263 -10.308  12.584  0.00  0.00    -0.283 N 
ATOM     10  C   UNL     1      -4.137 -11.062  15.815  0.00  0.00    +0.104 C 
ATOM     11  C   UNL     1      -3.945 -10.767  14.321  0.00  0.00    +0.183 C 
ATOM     12  C   UNL     1      -4.117 -12.591  15.882  0.00  0.00    +0.043 C 
ATOM     13  C   UNL     1      -4.784 -13.008  14.580  0.00  0.00    +0.111 C 
ATOM     14  C   UNL     1      -2.492 -10.667  13.895  0.00  0.00    +0.240 C 
ATOM     15  C   UNL     1      -4.805 -12.015  12.309  0.00  0.00    +0.249 C 
ATOM     16  C   UNL     1      -4.407 -10.890  11.423  0.00  0.00    +0.059 A 
ATOM     17  C   UNL     1      -3.193 -10.190  11.528  0.00  0.00    +0.046 A 
ATOM     19  C   UNL     1      -5.249 -10.651  10.321  0.00  0.00    +0.024 A 
ATOM     21  C   UNL     1      -2.822  -9.317  10.490  0.00  0.00    +0.024 A 
ATOM     22  C   UNL     1      -4.886  -9.746   9.325  0.00  0.00    -0.010 A 
ATOM     23  C   UNL     1      -3.666  -9.088   9.403  0.00  0.00    +0.011 A 
ATOM     31  H   UNL     1      -1.313 -10.011  12.373  0.00  0.00    +0.155 HD
ENDROOT
BRANCH  22  25
ATOM      1  S   UNL     1      -7.187  -8.590   8.444  0.00  0.00    -0.097 S 
ATOM     25  C   UNL     1      -5.762  -9.512   8.205  0.00  0.00    +0.019 A 
ATOM     27  C   UNL     1      -5.636  -9.932   6.899  0.00  0.00    +0.016 A 
ATOM     28  C   UNL     1      -6.719  -9.492   6.085  0.00  0.00    +0.008 A 
ATOM     29  C   UNL     1      -7.635  -8.752   6.800  0.00  0.00    +0.046 A 
ENDBRANCH  22  25
BRANCH  10   8
ATOM      4  O   UNL     1      -4.926 -10.621  18.563  0.00  0.00    -0.276 OA
ATOM      8  N   UNL     1      -5.396 -10.535  16.288  0.00  0.00    -0.310 N 
ATOM     18  C   UNL     1      -5.685 -10.357  17.634  0.00  0.00    +0.214 C 
ATOM     30  H   UNL     1      -6.119 -10.337  15.602  0.00  0.00    +0.149 HD
BRANCH  18  20
ATOM     20  C   UNL     1      -7.079  -9.791  17.835  0.00  0.00    +0.107 C 
BRANCH  20  24
ATOM     24  C   UNL     1      -8.124 -10.880  18.057  0.00  0.00    +0.129 C 
BRANCH  24  26
ATOM      6  O   UNL     1      -7.619 -12.071  20.118  0.00  0.00    -0.251 OA
ATOM     26  C   UNL     1      -8.273 -11.230  19.518  0.00  0.00    +0.305 C 
BRANCH  26   5
ATOM      5  O   UNL     1      -9.243 -10.484  20.111  0.00  0.00    -0.481 OA
ATOM     32  H   UNL     1     -10.135 -10.872  19.979  0.00  0.00    +0.295 HD
ENDBRANCH  26   5
ENDBRANCH  24  26
ENDBRANCH  20  24
ENDBRANCH  18  20
ENDBRANCH  10   8
TORSDOF 6
ENDMDL
MODEL 4
REMARK VINA RESULT:      -6.6     18.661     20.875
REMARK  Name = 11941488
REMARK  6 active torsions:
REMARK  status: ('A' for Active; 'I' for Inactive)
REMARK    1  A    between atoms: O_5  and  C_26
REMARK    2  A    between atoms: N_8  and  C_10
REMARK    3  A    between atoms: C_18  and  C_20
REMARK    4  A    between atoms: C_20  and  C_24
REMARK    5  A    between atoms: C_22  and  C_25
REMARK    6  A    between atoms: C_24  and  C_26
REMARK                            x       y       z     vdW  Elec       q    Type
REMARK                         _______ _______ _______ _____ _____    ______ ____
ROOT
ATOM      2  O   UNL     1      -6.047 -11.239  20.661  0.00  0.00    -0.273 OA
ATOM      3  O   UNL     1      -6.717 -14.070  16.269  0.00  0.00    -0.270 OA
ATOM      7  N   UNL     1      -7.323 -12.644  17.967  0.00  0.00    -0.284 N 
ATOM      9  N   UNL     1      -4.851 -11.239  18.723  0.00  0.00    -0.283 N 
ATOM     10  C   UNL     1      -8.591 -11.306  19.450  0.00  0.00    +0.104 C 
ATOM     11  C   UNL     1      -7.308 -11.341  18.608  0.00  0.00    +0.183 C 
ATOM     12  C   UNL     1      -8.863 -12.783  19.747  0.00  0.00    +0.043 C 
ATOM     13  C   UNL     1      -8.390 -13.488  18.486  0.00  0.00    +0.111 C 
ATOM     14  C   UNL     1      -6.033 -11.307  19.430  0.00  0.00    +0.240 C 
ATOM     15  C   UNL     1      -6.558 -13.016  16.883  0.00  0.00    +0.249 C 
ATOM     16  C   UNL     1      -5.466 -12.104  16.451  0.00  0.00    +0.059 A 
ATOM     17  C   UNL     1      -4.649 -11.374  17.332  0.00  0.00    +0.046 A 
ATOM     19  C   UNL     1      -5.155 -12.129  15.080  0.00  0.00    +0.024 A 
ATOM     21  C   UNL     1      -3.501 -10.742  16.823  0.00  0.00    +0.024 A 
ATOM     22  C   UNL     1      -4.037 -11.458  14.587  0.00  0.00    -0.010 A 
ATOM     23  C   UNL     1      -3.203 -10.773  15.461  0.00  0.00    +0.011 A 
ATOM     31  H   UNL     1      -4.032 -10.977  19.267  0.00  0.00    +0.155 HD
ENDROOT
BRANCH  22  25
ATOM      1  S   UNL     1      -4.034 -12.932  12.299  0.00  0.00    -0.097 S 
ATOM     25  C   UNL     1      -3.735 -11.491  13.178  0.00  0.00    +0.019 A 
ATOM     27  C   UNL     1      -3.213 -10.499  12.377  0.00  0.00    +0.016 A 
ATOM     28  C   UNL     1      -3.059 -10.925  11.026  0.00  0.00    +0.008 A 
ATOM     29  C   UNL     1      -3.467 -12.228  10.845  0.00  0.00    +0.046 A 
ENDBRANCH  22  25
BRANCH  10   8
ATOM      4  O   UNL     1     -10.919  -9.966  20.527  0.00  0.00    -0.276 OA
ATOM      8  N   UNL     1      -9.680 -10.713  18.707  0.00  0.00    -0.310 N 
ATOM     18  C   UNL     1     -10.759 -10.088  19.315  0.00  0.00    +0.214 C 
ATOM     30  H   UNL     1      -9.675 -10.809  17.696  0.00  0.00    +0.149 HD
BRANCH  18  20
ATOM     20  C   UNL     1     -11.748  -9.563  18.290  0.00  0.00    +0.107 C 
BRANCH  20  24
ATOM     24  C   UNL     1     -11.068  -9.098  17.007  0.00  0.00    +0.129 C 
BRANCH  24  26
ATOM      6  O   UNL     1     -11.074  -6.681  16.718  0.00  0.00    -0.251 OA
ATOM     26  C   UNL     1     -10.526  -7.693  17.132  0.00  0.00    +0.305 C 
BRANCH  26   5
ATOM      5  O   UNL     1      -9.329  -7.678  17.774  0.00  0.00    -0.481 OA
ATOM     32  H   UNL     1      -8.576  -7.734  17.147  0.00  0.00    +0.295 HD
ENDBRANCH  26   5
ENDBRANCH  24  26
ENDBRANCH  20  24
ENDBRANCH  18  20
ENDBRANCH  10   8
TORSDOF 6
ENDMDL
MODEL 5
REMARK VINA RESULT:      -6.5     22.042     24.665
REMARK  Name = 11941488
REMARK  6 active torsions:
REMARK  status: ('A' for Active; 'I' for Inactive)
REMARK    1  A    between atoms: O_5  and  C_26
REMARK    2  A    between atoms: N_8  and  C_10
REMARK    3  A    between atoms: C_18  and  C_20
REMARK    4  A    between atoms: C_20  and  C_24
REMARK    5  A    between atoms: C_22  and  C_25
REMARK    6  A    between atoms: C_24  and  C_26
REMARK                            x       y       z     vdW  Elec       q    Type
REMARK                         _______ _______ _______ _____ _____    ______ ____
ROOT
ATOM      2  O   UNL     1      -0.619 -10.889  15.405  0.00  0.00    -0.273 OA
ATOM      3  O   UNL     1      -5.667  -9.965  14.214  0.00  0.00    -0.270 OA
ATOM      7  N   UNL     1      -3.601 -10.951  14.004  0.00  0.00    -0.284 N 
ATOM      9  N   UNL     1      -2.475 -10.984  16.722  0.00  0.00    -0.283 N 
ATOM     10  C   UNL     1      -1.759 -12.183  13.176  0.00  0.00    +0.104 C 
ATOM     11  C   UNL     1      -2.585 -11.894  14.437  0.00  0.00    +0.183 C 
ATOM     12  C   UNL     1      -1.934 -10.916  12.336  0.00  0.00    +0.043 C 
ATOM     13  C   UNL     1      -3.359 -10.483  12.647  0.00  0.00    +0.111 C 
ATOM     14  C   UNL     1      -1.809 -11.183  15.531  0.00  0.00    +0.240 C 
ATOM     15  C   UNL     1      -4.756 -10.642  14.689  0.00  0.00    +0.249 C 
ATOM     16  C   UNL     1      -4.895 -11.134  16.085  0.00  0.00    +0.059 A 
ATOM     17  C   UNL     1      -3.841 -11.193  17.013  0.00  0.00    +0.046 A 
ATOM     19  C   UNL     1      -6.210 -11.390  16.515  0.00  0.00    +0.024 A 
ATOM     21  C   UNL     1      -4.141 -11.441  18.363  0.00  0.00    +0.024 A 
ATOM     22  C   UNL     1      -6.482 -11.680  17.851  0.00  0.00    -0.010 A 
ATOM     23  C   UNL     1      -5.448 -11.694  18.778  0.00  0.00    +0.011 A 
ATOM     31  H   UNL     1      -1.887 -10.732  17.513  0.00  0.00    +0.155 HD
ENDROOT
BRANCH  22  25
ATOM      1  S   UNL     1      -8.096 -12.779  19.747  0.00  0.00    -0.097 S 
ATOM     25  C   UNL     1      -7.835 -11.943  18.274  0.00  0.00    +0.019 A 
ATOM     27  C   UNL     1      -9.020 -11.614  17.652  0.00  0.00    +0.016 A 
ATOM     28  C   UNL     1     -10.155 -12.052  18.393  0.00  0.00    +0.008 A 
ATOM     29  C   UNL     1      -9.795 -12.701  19.554  0.00  0.00    +0.046 A 
ENDBRANCH  22  25
BRANCH  10   8
ATOM      4  O   UNL     1      -1.072 -14.951  13.664  0.00  0.00    -0.276 OA
ATOM      8  N   UNL     1      -2.266 -13.344  12.482  0.00  0.00    -0.310 N 
ATOM     18  C   UNL     1      -1.876 -14.640  12.789  0.00  0.00    +0.214 C 
ATOM     30  H   UNL     1      -2.896 -13.195  11.699  0.00  0.00    +0.149 HD
BRANCH  18  20
ATOM     20  C   UNL     1      -2.567 -15.656  11.897  0.00  0.00    +0.107 C 
BRANCH  20  24
ATOM     24  C   UNL     1      -1.739 -16.923  11.707  0.00  0.00    +0.129 C 
BRANCH  24  26
ATOM      6  O   UNL     1      -1.434 -17.386   9.337  0.00  0.00    -0.251 OA
ATOM     26  C   UNL     1      -1.006 -16.926  10.386  0.00  0.00    +0.305 C 
BRANCH  26   5
ATOM      5  O   UNL     1       0.217 -16.343  10.497  0.00  0.00    -0.481 OA
ATOM     32  H   UNL     1       0.325 -15.597   9.869  0.00  0.00    +0.295 HD
ENDBRANCH  26   5
ENDBRANCH  24  26
ENDBRANCH  20  24
ENDBRANCH  18  20
ENDBRANCH  10   8
TORSDOF 6
ENDMDL
MODEL 6
REMARK VINA RESULT:      -6.4      6.997      8.596
REMARK  Name = 11941488
REMARK  6 active torsions:
REMARK  status: ('A' for Active; 'I' for Inactive)
REMARK    1  A    between atoms: O_5  and  C_26
REMARK    2  A    between atoms: N_8  and  C_10
REMARK    3  A    between atoms: C_18  and  C_20
REMARK    4  A    between atoms: C_20  and  C_24
REMARK    5  A    between atoms: C_22  and  C_25
REMARK    6  A    between atoms: C_24  and  C_26
REMARK                            x       y       z     vdW  Elec       q    Type
REMARK                         _______ _______ _______ _____ _____    ______ ____
ROOT
ATOM      2  O   UNL     1     -17.549   6.456  30.907  0.00  0.00    -0.273 OA
ATOM      3  O   UNL     1     -14.013   6.938  34.781  0.00  0.00    -0.270 OA
ATOM      7  N   UNL     1     -15.155   5.873  33.094  0.00  0.00    -0.284 N 
ATOM      9  N   UNL     1     -15.896   7.995  31.196  0.00  0.00    -0.283 N 
ATOM     10  C   UNL     1     -16.011   4.212  31.643  0.00  0.00    +0.104 C 
ATOM     11  C   UNL     1     -15.424   5.630  31.689  0.00  0.00    +0.183 C 
ATOM     12  C   UNL     1     -16.640   4.043  33.028  0.00  0.00    +0.043 C 
ATOM     13  C   UNL     1     -15.702   4.820  33.938  0.00  0.00    +0.111 C 
ATOM     14  C   UNL     1     -16.399   6.713  31.267  0.00  0.00    +0.240 C 
ATOM     15  C   UNL     1     -14.344   6.866  33.599  0.00  0.00    +0.249 C 
ATOM     16  C   UNL     1     -13.866   7.920  32.666  0.00  0.00    +0.059 A 
ATOM     17  C   UNL     1     -14.640   8.473  31.631  0.00  0.00    +0.046 A 
ATOM     19  C   UNL     1     -12.617   8.490  32.975  0.00  0.00    +0.024 A 
ATOM     21  C   UNL     1     -14.172   9.626  30.977  0.00  0.00    +0.024 A 
ATOM     22  C   UNL     1     -12.149   9.605  32.283  0.00  0.00    -0.010 A 
ATOM     23  C   UNL     1     -12.932  10.181  31.291  0.00  0.00    +0.011 A 
ATOM     31  H   UNL     1     -16.474   8.663  30.692  0.00  0.00    +0.155 HD
ENDROOT
BRANCH  22  25
ATOM      1  S   UNL     1     -10.365  11.607  31.814  0.00  0.00    -0.097 S 
ATOM     25  C   UNL     1     -10.865  10.175  32.610  0.00  0.00    +0.019 A 
ATOM     27  C   UNL     1      -9.921   9.730  33.509  0.00  0.00    +0.016 A 
ATOM     28  C   UNL     1      -8.774  10.574  33.546  0.00  0.00    +0.008 A 
ATOM     29  C   UNL     1      -8.884  11.633  32.672  0.00  0.00    +0.046 A 
ENDBRANCH  22  25
BRANCH  10   8
ATOM      4  O   UNL     1     -15.175   3.107  29.104  0.00  0.00    -0.276 OA
ATOM      8  N   UNL     1     -14.975   3.231  31.416  0.00  0.00    -0.310 N 
ATOM     18  C   UNL     1     -14.642   2.759  30.155  0.00  0.00    +0.214 C 
ATOM     30  H   UNL     1     -14.508   2.833  32.227  0.00  0.00    +0.149 HD
BRANCH  18  20
ATOM     20  C   UNL     1     -13.523   1.736  30.219  0.00  0.00    +0.107 C 
BRANCH  20  24
ATOM     24  C   UNL     1     -14.004   0.323  29.905  0.00  0.00    +0.129 C 
BRANCH  24  26
ATOM      6  O   UNL     1     -14.923   0.227  32.157  0.00  0.00    -0.251 OA
ATOM     26  C   UNL     1     -14.791  -0.272  31.049  0.00  0.00    +0.305 C 
BRANCH  26   5
ATOM      5  O   UNL     1     -15.354  -1.459  30.699  0.00  0.00    -0.481 OA
ATOM     32  H   UNL     1     -15.697  -1.444  29.779  0.00  0.00    +0.295 HD
ENDBRANCH  26   5
ENDBRANCH  24  26
ENDBRANCH  20  24
ENDBRANCH  18  20
ENDBRANCH  10   8
TORSDOF 6
ENDMDL
MODEL 7
REMARK VINA RESULT:      -6.3      6.464     11.135
REMARK  Name = 11941488
REMARK  6 active torsions:
REMARK  status: ('A' for Active; 'I' for Inactive)
REMARK    1  A    between atoms: O_5  and  C_26
REMARK    2  A    between atoms: N_8  and  C_10
REMARK    3  A    between atoms: C_18  and  C_20
REMARK    4  A    between atoms: C_20  and  C_24
REMARK    5  A    between atoms: C_22  and  C_25
REMARK    6  A    between atoms: C_24  and  C_26
REMARK                            x       y       z     vdW  Elec       q    Type
REMARK                         _______ _______ _______ _____ _____    ______ ____
ROOT
ATOM      2  O   UNL     1     -10.203   9.538  16.711  0.00  0.00    -0.273 OA
ATOM      3  O   UNL     1     -14.885   9.757  19.115  0.00  0.00    -0.270 OA
ATOM      7  N   UNL     1     -13.432   9.445  17.361  0.00  0.00    -0.284 N 
ATOM      9  N   UNL     1     -10.939   8.468  18.581  0.00  0.00    -0.283 N 
ATOM     10  C   UNL     1     -12.542   9.142  15.190  0.00  0.00    +0.104 C 
ATOM     11  C   UNL     1     -12.446   8.657  16.644  0.00  0.00    +0.183 C 
ATOM     12  C   UNL     1     -13.059  10.576  15.327  0.00  0.00    +0.043 C 
ATOM     13  C   UNL     1     -13.986  10.503  16.529  0.00  0.00    +0.111 C 
ATOM     14  C   UNL     1     -11.117   8.966  17.308  0.00  0.00    +0.240 C 
ATOM     15  C   UNL     1     -13.936   9.159  18.612  0.00  0.00    +0.249 C 
ATOM     16  C   UNL     1     -13.277   8.085  19.402  0.00  0.00    +0.059 A 
ATOM     17  C   UNL     1     -11.891   7.857  19.428  0.00  0.00    +0.046 A 
ATOM     19  C   UNL     1     -14.110   7.384  20.293  0.00  0.00    +0.024 A 
ATOM     21  C   UNL     1     -11.366   6.981  20.394  0.00  0.00    +0.024 A 
ATOM     22  C   UNL     1     -13.576   6.483  21.213  0.00  0.00    -0.010 A 
ATOM     23  C   UNL     1     -12.202   6.290  21.272  0.00  0.00    +0.011 A 
ATOM     31  H   UNL     1      -9.980   8.469  18.920  0.00  0.00    +0.155 HD
ENDROOT
BRANCH  22  25
ATOM      1  S   UNL     1     -16.120   5.691  21.769  0.00  0.00    -0.097 S 
ATOM     25  C   UNL     1     -14.444   5.771  22.117  0.00  0.00    +0.019 A 
ATOM     27  C   UNL     1     -14.129   5.106  23.282  0.00  0.00    +0.016 A 
ATOM     28  C   UNL     1     -15.275   4.524  23.896  0.00  0.00    +0.008 A 
ATOM     29  C   UNL     1     -16.425   4.767  23.177  0.00  0.00    +0.046 A 
ENDBRANCH  22  25
BRANCH  10   8
ATOM      4  O   UNL     1     -11.881   7.050  13.304  0.00  0.00    -0.276 OA
ATOM      8  N   UNL     1     -13.463   8.325  14.434  0.00  0.00    -0.310 N 
ATOM     18  C   UNL     1     -13.049   7.340  13.548  0.00  0.00    +0.214 C 
ATOM     30  H   UNL     1     -14.456   8.522  14.518  0.00  0.00    +0.149 HD
BRANCH  18  20
ATOM     20  C   UNL     1     -14.231   6.646  12.895  0.00  0.00    +0.107 C 
BRANCH  20  24
ATOM     24  C   UNL     1     -15.499   6.734  13.738  0.00  0.00    +0.129 C 
BRANCH  24  26
ATOM      6  O   UNL     1     -17.169   5.414  12.558  0.00  0.00    -0.251 OA
ATOM     26  C   UNL     1     -16.412   5.553  13.508  0.00  0.00    +0.305 C 
BRANCH  26   5
ATOM      5  O   UNL     1     -16.296   4.635  14.504  0.00  0.00    -0.481 OA
ATOM     32  H   UNL     1     -15.801   3.839  14.212  0.00  0.00    +0.295 HD
ENDBRANCH  26   5
ENDBRANCH  24  26
ENDBRANCH  20  24
ENDBRANCH  18  20
ENDBRANCH  10   8
TORSDOF 6
ENDMDL
MODEL 8
REMARK VINA RESULT:      -6.2      3.554      8.580
REMARK  Name = 11941488
REMARK  6 active torsions:
REMARK  status: ('A' for Active; 'I' for Inactive)
REMARK    1  A    between atoms: O_5  and  C_26
REMARK    2  A    between atoms: N_8  and  C_10
REMARK    3  A    between atoms: C_18  and  C_20
REMARK    4  A    between atoms: C_20  and  C_24
REMARK    5  A    between atoms: C_22  and  C_25
REMARK    6  A    between atoms: C_24  and  C_26
REMARK                            x       y       z     vdW  Elec       q    Type
REMARK                         _______ _______ _______ _____ _____    ______ ____
ROOT
ATOM      2  O   UNL     1     -18.138   7.184  23.986  0.00  0.00    -0.273 OA
ATOM      3  O   UNL     1     -17.038   2.090  24.759  0.00  0.00    -0.270 OA
ATOM      7  N   UNL     1     -16.789   4.181  23.836  0.00  0.00    -0.284 N 
ATOM      9  N   UNL     1     -17.686   6.061  25.914  0.00  0.00    -0.283 N 
ATOM     10  C   UNL     1     -16.115   5.970  22.443  0.00  0.00    +0.104 C 
ATOM     11  C   UNL     1     -16.354   5.564  23.905  0.00  0.00    +0.183 C 
ATOM     12  C   UNL     1     -17.052   5.049  21.660  0.00  0.00    +0.043 C 
ATOM     13  C   UNL     1     -17.030   3.759  22.464  0.00  0.00    +0.111 C 
ATOM     14  C   UNL     1     -17.490   6.316  24.574  0.00  0.00    +0.240 C 
ATOM     15  C   UNL     1     -16.820   3.294  24.890  0.00  0.00    +0.249 C 
ATOM     16  C   UNL     1     -16.600   3.827  26.260  0.00  0.00    +0.059 A 
ATOM     17  C   UNL     1     -17.089   5.063  26.717  0.00  0.00    +0.046 A 
ATOM     19  C   UNL     1     -16.006   2.939  27.175  0.00  0.00    +0.024 A 
ATOM     21  C   UNL     1     -17.030   5.349  28.092  0.00  0.00    +0.024 A 
ATOM     22  C   UNL     1     -15.915   3.260  28.528  0.00  0.00    -0.010 A 
ATOM     23  C   UNL     1     -16.438   4.460  28.989  0.00  0.00    +0.011 A 
ATOM     31  H   UNL     1     -18.275   6.730  26.404  0.00  0.00    +0.155 HD
ENDROOT
BRANCH  22  25
ATOM      1  S   UNL     1     -14.039   2.899  30.467  0.00  0.00    -0.097 S 
ATOM     25  C   UNL     1     -15.300   2.338  29.451  0.00  0.00    +0.019 A 
ATOM     27  C   UNL     1     -15.574   1.005  29.661  0.00  0.00    +0.016 A 
ATOM     28  C   UNL     1     -14.742   0.437  30.668  0.00  0.00    +0.008 A 
ATOM     29  C   UNL     1     -13.860   1.358  31.190  0.00  0.00    +0.046 A 
ENDBRANCH  22  25
BRANCH  10   8
ATOM      4  O   UNL     1     -14.304   7.897  21.269  0.00  0.00    -0.276 OA
ATOM      8  N   UNL     1     -14.736   5.757  22.067  0.00  0.00    -0.310 N 
ATOM     18  C   UNL     1     -13.942   6.747  21.508  0.00  0.00    +0.214 C 
ATOM     30  H   UNL     1     -14.353   4.821  22.170  0.00  0.00    +0.149 HD
BRANCH  18  20
ATOM     20  C   UNL     1     -12.543   6.239  21.212  0.00  0.00    +0.107 C 
BRANCH  20  24
ATOM     24  C   UNL     1     -11.603   7.349  20.753  0.00  0.00    +0.129 C 
BRANCH  24  26
ATOM      6  O   UNL     1     -12.119   8.576  18.715  0.00  0.00    -0.251 OA
ATOM     26  C   UNL     1     -11.681   7.573  19.261  0.00  0.00    +0.305 C 
BRANCH  26   5
ATOM      5  O   UNL     1     -11.195   6.507  18.573  0.00  0.00    -0.481 OA
ATOM     32  H   UNL     1     -10.897   6.758  17.672  0.00  0.00    +0.295 HD
ENDBRANCH  26   5
ENDBRANCH  24  26
ENDBRANCH  20  24
ENDBRANCH  18  20
ENDBRANCH  10   8
TORSDOF 6
ENDMDL
MODEL 9
REMARK VINA RESULT:      -6.2     19.911     22.799
REMARK  Name = 11941488
REMARK  6 active torsions:
REMARK  status: ('A' for Active; 'I' for Inactive)
REMARK    1  A    between atoms: O_5  and  C_26
REMARK    2  A    between atoms: N_8  and  C_10
REMARK    3  A    between atoms: C_18  and  C_20
REMARK    4  A    between atoms: C_20  and  C_24
REMARK    5  A    between atoms: C_22  and  C_25
REMARK    6  A    between atoms: C_24  and  C_26
REMARK                            x       y       z     vdW  Elec       q    Type
REMARK                         _______ _______ _______ _____ _____    ______ ____
ROOT
ATOM      2  O   UNL     1      -3.293 -14.243  14.651  0.00  0.00    -0.273 OA
ATOM      3  O   UNL     1      -4.480  -9.937  17.443  0.00  0.00    -0.270 OA
ATOM      7  N   UNL     1      -3.599 -11.131  15.687  0.00  0.00    -0.284 N 
ATOM      9  N   UNL     1      -5.303 -13.515  15.435  0.00  0.00    -0.283 N 
ATOM     10  C   UNL     1      -2.389 -11.733  13.745  0.00  0.00    +0.104 C 
ATOM     11  C   UNL     1      -3.743 -11.883  14.455  0.00  0.00    +0.183 C 
ATOM     12  C   UNL     1      -1.408 -11.498  14.896  0.00  0.00    +0.043 C 
ATOM     13  C   UNL     1      -2.226 -10.696  15.896  0.00  0.00    +0.111 C 
ATOM     14  C   UNL     1      -4.058 -13.305  14.880  0.00  0.00    +0.240 C 
ATOM     15  C   UNL     1      -4.631 -10.710  16.498  0.00  0.00    +0.249 C 
ATOM     16  C   UNL     1      -5.993 -11.239  16.229  0.00  0.00    +0.059 A 
ATOM     17  C   UNL     1      -6.265 -12.558  15.826  0.00  0.00    +0.046 A 
ATOM     19  C   UNL     1      -7.059 -10.387  16.569  0.00  0.00    +0.024 A 
ATOM     21  C   UNL     1      -7.596 -13.010  15.840  0.00  0.00    +0.024 A 
ATOM     22  C   UNL     1      -8.377 -10.839  16.531  0.00  0.00    -0.010 A 
ATOM     23  C   UNL     1      -8.645 -12.155  16.178  0.00  0.00    +0.011 A 
ATOM     31  H   UNL     1      -5.596 -14.488  15.493  0.00  0.00    +0.155 HD
ENDROOT
BRANCH  22  25
ATOM      1  S   UNL     1      -9.543  -8.413  16.130  0.00  0.00    -0.097 S 
ATOM     25  C   UNL     1      -9.458  -9.951  16.880  0.00  0.00    +0.019 A 
ATOM     27  C   UNL     1     -10.492 -10.147  17.770  0.00  0.00    +0.016 A 
ATOM     28  C   UNL     1     -11.364  -9.023  17.835  0.00  0.00    +0.008 A 
ATOM     29  C   UNL     1     -10.964  -8.008  16.994  0.00  0.00    +0.046 A 
ENDBRANCH  22  25
BRANCH  10   8
ATOM      4  O   UNL     1      -3.078 -11.768  10.935  0.00  0.00    -0.276 OA
ATOM      8  N   UNL     1      -2.406 -10.610  12.836  0.00  0.00    -0.310 N 
ATOM     18  C   UNL     1      -2.753 -10.725  11.497  0.00  0.00    +0.214 C 
ATOM     30  H   UNL     1      -2.097  -9.707  13.185  0.00  0.00    +0.149 HD
BRANCH  18  20
ATOM     20  C   UNL     1      -2.678  -9.387  10.785  0.00  0.00    +0.107 C 
BRANCH  20  24
ATOM     24  C   UNL     1      -3.668  -9.286   9.628  0.00  0.00    +0.129 C 
BRANCH  24  26
ATOM      6  O   UNL     1      -5.318  -8.355  11.156  0.00  0.00    -0.251 OA
ATOM     26  C   UNL     1      -4.912  -8.521  10.015  0.00  0.00    +0.305 C 
BRANCH  26   5
ATOM      5  O   UNL     1      -5.548  -8.023   8.922  0.00  0.00    -0.481 OA
ATOM     32  H   UNL     1      -5.539  -8.657   8.173  0.00  0.00    +0.295 HD
ENDBRANCH  26   5
ENDBRANCH  24  26
ENDBRANCH  20  24
ENDBRANCH  18  20
ENDBRANCH  10   8
TORSDOF 6
ENDMDL
MODEL 10
REMARK VINA RESULT:      -6.1     27.336     30.740
REMARK  Name = 11941488
REMARK  6 active torsions:
REMARK  status: ('A' for Active; 'I' for Inactive)
REMARK    1  A    between atoms: O_5  and  C_26
REMARK    2  A    between atoms: N_8  and  C_10
REMARK    3  A    between atoms: C_18  and  C_20
REMARK    4  A    between atoms: C_20  and  C_24
REMARK    5  A    between atoms: C_22  and  C_25
REMARK    6  A    between atoms: C_24  and  C_26
REMARK                            x       y       z     vdW  Elec       q    Type
REMARK                         _______ _______ _______ _____ _____    ______ ____
ROOT
ATOM      2  O   UNL     1      15.522  11.172  13.533  0.00  0.00    -0.273 OA
ATOM      3  O   UNL     1      14.372  12.423  18.519  0.00  0.00    -0.270 OA
ATOM      7  N   UNL     1      14.225  12.554  16.229  0.00  0.00    -0.284 N 
ATOM      9  N   UNL     1      14.842   9.847  15.254  0.00  0.00    -0.283 N 
ATOM     10  C   UNL     1      13.717  13.277  14.034  0.00  0.00    +0.104 C 
ATOM     11  C   UNL     1      13.775  12.043  14.946  0.00  0.00    +0.183 C 
ATOM     12  C   UNL     1      14.751  14.223  14.649  0.00  0.00    +0.043 C 
ATOM     13  C   UNL     1      14.638  13.947  16.140  0.00  0.00    +0.111 C 
ATOM     14  C   UNL     1      14.812  11.018  14.528  0.00  0.00    +0.240 C 
ATOM     15  C   UNL     1      14.130  11.894  17.435  0.00  0.00    +0.249 C 
ATOM     16  C   UNL     1      13.738  10.461  17.421  0.00  0.00    +0.059 A 
ATOM     17  C   UNL     1      14.157   9.535  16.450  0.00  0.00    +0.046 A 
ATOM     19  C   UNL     1      13.041  10.006  18.555  0.00  0.00    +0.024 A 
ATOM     21  C   UNL     1      13.925   8.167  16.674  0.00  0.00    +0.024 A 
ATOM     22  C   UNL     1      12.779   8.649  18.737  0.00  0.00    -0.010 A 
ATOM     23  C   UNL     1      13.232   7.727  17.802  0.00  0.00    +0.011 A 
ATOM     31  H   UNL     1      15.361   9.082  14.829  0.00  0.00    +0.155 HD
ENDROOT
BRANCH  22  25
ATOM      1  S   UNL     1      12.337   6.614  20.489  0.00  0.00    -0.097 S 
ATOM     25  C   UNL     1      12.060   8.200  19.903  0.00  0.00    +0.019 A 
ATOM     27  C   UNL     1      11.134   8.876  20.668  0.00  0.00    +0.016 A 
ATOM     28  C   UNL     1      10.647   8.084  21.746  0.00  0.00    +0.008 A 
ATOM     29  C   UNL     1      11.218   6.831  21.766  0.00  0.00    +0.046 A 
ENDBRANCH  22  25
BRANCH  10   8
ATOM      4  O   UNL     1      12.334  14.516  11.815  0.00  0.00    -0.276 OA
ATOM      8  N   UNL     1      12.397  13.866  14.046  0.00  0.00    -0.310 N 
ATOM     18  C   UNL     1      11.814  14.440  12.925  0.00  0.00    +0.214 C 
ATOM     30  H   UNL     1      11.901  13.907  14.932  0.00  0.00    +0.149 HD
BRANCH  18  20
ATOM     20  C   UNL     1      10.429  14.980  13.232  0.00  0.00    +0.107 C 
BRANCH  20  24
ATOM     24  C   UNL     1       9.334  14.251  12.460  0.00  0.00    +0.129 C 
BRANCH  24  26
ATOM      6  O   UNL     1       9.667  11.848  12.261  0.00  0.00    -0.251 OA
ATOM     26  C   UNL     1       9.217  12.804  12.877  0.00  0.00    +0.305 C 
BRANCH  26   5
ATOM      5  O   UNL     1       8.537  12.678  14.047  0.00  0.00    -0.481 OA
ATOM     32  H   UNL     1       7.582  12.504  13.899  0.00  0.00    +0.295 HD
ENDBRANCH  26   5
ENDBRANCH  24  26
ENDBRANCH  20  24
ENDBRANCH  18  20
ENDBRANCH  10   8
TORSDOF 6
ENDMDL
