REMARK  Name = 45783299
REMARK  3 active torsions:
REMARK  status: ('A' for Active; 'I' for Inactive)
REMARK    1  A    between atoms: N_4  and  C_9
REMARK    2  A    between atoms: C_10  and  C_16
REMARK    3  A    between atoms: C_19  and  C_20
REMARK                            x       y       z     vdW  Elec       q    Type
REMARK                         _______ _______ _______ _____ _____    ______ ____
ROOT
ATOM      2  O   UNL     1       1.998  -2.805  -0.350  0.00  0.00    -0.336 OA
ATOM      5  N   UNL     1       0.778  -1.064   0.353  0.00  0.00    -0.190 NA
ATOM      6  N   UNL     1       0.689  -3.048  -0.783  0.00  0.00    -0.056 NA
ATOM     16  C   UNL     1       1.963  -1.618   0.310  0.00  0.00    +0.245 A 
ATOM     19  C   UNL     1       0.029  -1.977  -0.330  0.00  0.00    +0.202 A 
ENDROOT
BRANCH  19  20
ATOM      3  O   UNL     1      -5.418   2.917   1.004  0.00  0.00    -0.377 OA
ATOM      7  N   UNL     1      -4.000   0.621   0.221  0.00  0.00    -0.311 N 
ATOM      8  N   UNL     1      -4.118  -1.428  -0.958  0.00  0.00    -0.240 NA
ATOM     20  C   UNL     1      -1.377  -1.791  -0.542  0.00  0.00    +0.027 A 
ATOM     21  C   UNL     1      -3.561   1.949  -0.220  0.00  0.00    +0.134 C 
ATOM     22  C   UNL     1      -5.415   0.525   0.605  0.00  0.00    +0.134 C 
ATOM     23  C   UNL     1      -3.373  -0.524  -0.282  0.00  0.00    +0.122 A 
ATOM     24  C   UNL     1      -2.014  -0.658  -0.049  0.00  0.00    +0.055 A 
ATOM     25  C   UNL     1      -4.010   3.002   0.787  0.00  0.00    +0.178 C 
ATOM     26  C   UNL     1      -5.765   1.653   1.569  0.00  0.00    +0.178 C 
ATOM     27  C   UNL     1      -2.110  -2.744  -1.243  0.00  0.00    +0.031 A 
ATOM     28  C   UNL     1      -3.465  -2.517  -1.423  0.00  0.00    +0.113 A 
ENDBRANCH  19  20
BRANCH  16  10
ATOM      4  N   UNL     1       3.330   0.347   0.990  0.00  0.00    -0.288 NA
ATOM     10  C   UNL     1       3.275  -1.124   0.882  0.00  0.00    +0.146 C 
ATOM     11  C   UNL     1       4.213   0.647   2.117  0.00  0.00    +0.085 C 
ATOM     12  C   UNL     1       3.526  -1.631   2.315  0.00  0.00    +0.030 C 
ATOM     13  C   UNL     1       3.772  -0.378   3.143  0.00  0.00    +0.017 C 
BRANCH   4   9
ATOM      1  O   UNL     1       3.224   2.840  -2.386  0.00  0.00    -0.380 OA
ATOM      9  C   UNL     1       3.769   0.999  -0.241  0.00  0.00    +0.062 C 
ATOM     14  C   UNL     1       3.853   2.518  -0.061  0.00  0.00    +0.047 C 
ATOM     15  C   UNL     1       2.818   0.660  -1.392  0.00  0.00    +0.047 C 
ATOM     17  C   UNL     1       4.182   3.192  -1.389  0.00  0.00    +0.161 C 
ATOM     18  C   UNL     1       3.204   1.436  -2.646  0.00  0.00    +0.161 C 
ENDBRANCH   4   9
ENDBRANCH  16  10
TORSDOF 3
