REMARK  Name = 26743574
REMARK  4 active torsions:
REMARK  status: ('A' for Active; 'I' for Inactive)
REMARK    1  A    between atoms: O_2  and  C_11
REMARK    2  A    between atoms: N_4  and  C_7
REMARK    3  A    between atoms: C_8  and  C_14
REMARK    4  A    between atoms: C_17  and  C_18
REMARK                            x       y       z     vdW  Elec       q    Type
REMARK                         _______ _______ _______ _____ _____    ______ ____
ROOT
ATOM      4  N   UNL     1      -2.235  -0.394  -0.343  0.00  0.00    -0.286 NA
ATOM      8  C   UNL     1      -1.594  -1.251   0.674  0.00  0.00    +0.149 C 
ATOM      9  C   UNL     1      -3.378  -1.146  -0.858  0.00  0.00    +0.116 C 
ATOM     10  C   UNL     1      -1.928  -2.692   0.242  0.00  0.00    +0.061 C 
ATOM     11  C   UNL     1      -2.797  -2.539  -1.000  0.00  0.00    +0.130 C 
ENDROOT
BRANCH   4   7
ATOM      1  O   UNL     1      -2.400   3.784   0.041  0.00  0.00    -0.380 OA
ATOM      7  C   UNL     1      -2.626   0.917   0.171  0.00  0.00    +0.062 C 
ATOM     12  C   UNL     1      -1.401   1.668   0.699  0.00  0.00    +0.047 C 
ATOM     13  C   UNL     1      -3.325   1.747  -0.910  0.00  0.00    +0.047 C 
ATOM     15  C   UNL     1      -1.787   3.081   1.122  0.00  0.00    +0.161 C 
ATOM     16  C   UNL     1      -3.605   3.155  -0.397  0.00  0.00    +0.161 C 
ENDBRANCH   4   7
BRANCH   8  14
ATOM      3  O   UNL     1       0.461  -1.267   1.996  0.00  0.00    -0.336 OA
ATOM      5  N   UNL     1       0.737  -0.567  -0.113  0.00  0.00    -0.190 NA
ATOM      6  N   UNL     1       1.823  -0.967   1.860  0.00  0.00    -0.056 NA
ATOM     14  C   UNL     1      -0.105  -1.005   0.789  0.00  0.00    +0.245 A 
ATOM     17  C   UNL     1       1.906  -0.561   0.590  0.00  0.00    +0.202 A 
BRANCH  17  18
ATOM     18  C   UNL     1       3.142  -0.144  -0.007  0.00  0.00    +0.022 A 
ATOM     19  C   UNL     1       3.168   0.268  -1.339  0.00  0.00    +0.012 A 
ATOM     20  C   UNL     1       4.317  -0.151   0.744  0.00  0.00    +0.012 A 
ATOM     21  C   UNL     1       4.369   0.673  -1.921  0.00  0.00    +0.001 A 
ATOM     22  C   UNL     1       5.519   0.254   0.162  0.00  0.00    +0.001 A 
ATOM     23  C   UNL     1       5.545   0.666  -1.170  0.00  0.00    +0.000 A 
ENDBRANCH  17  18
ENDBRANCH   8  14
BRANCH  11   2
ATOM      2  O   UNL     1      -3.806  -3.529  -1.030  0.00  0.00    -0.390 OA
ATOM     24  H   UNL     1      -3.365  -4.396  -1.045  0.00  0.00    +0.210 HD
ENDBRANCH  11   2
TORSDOF 4
