MODEL 1
REMARK VINA RESULT:      -6.9      0.000      0.000
REMARK  Name = 25389088
REMARK  8 active torsions:
REMARK  status: ('A' for Active; 'I' for Inactive)
REMARK    1  A    between atoms: N_3  and  C_23
REMARK    2  A    between atoms: N_4  and  C_15
REMARK    3  A    between atoms: N_6  and  C_25
REMARK    4  A    between atoms: C_8  and  C_14
REMARK    5  A    between atoms: C_9  and  C_15
REMARK    6  A    between atoms: C_17  and  C_18
REMARK    7  A    between atoms: C_25  and  C_26
REMARK    8  A    between atoms: C_25  and  C_27
REMARK                            x       y       z     vdW  Elec       q    Type
REMARK                         _______ _______ _______ _____ _____    ______ ____
ROOT
ATOM      2  N   UNL     1      -6.320 -10.278  17.447  0.00  0.00    -0.297 NA
ATOM      7  C   UNL     1      -4.431 -12.015  17.001  0.00  0.00    +0.002 C 
ATOM      8  C   UNL     1      -4.064 -10.640  16.377  0.00  0.00    +0.055 C 
ATOM      9  C   UNL     1      -6.900 -11.530  16.893  0.00  0.00    +0.074 C 
ATOM     10  C   UNL     1      -5.785 -12.490  16.430  0.00  0.00    +0.024 C 
ATOM     11  C   UNL     1      -5.316  -9.724  16.506  0.00  0.00    +0.094 C 
ATOM     12  C   UNL     1      -4.636 -11.777  18.512  0.00  0.00    +0.019 C 
ATOM     13  C   UNL     1      -5.630 -10.619  18.713  0.00  0.00    +0.085 C 
ENDROOT
BRANCH   8  14
ATOM      3  N   UNL     1      -2.148 -10.463  14.722  0.00  0.00    -0.271 N 
ATOM      5  N   UNL     1      -1.835 -10.477  13.416  0.00  0.00    -0.176 NA
ATOM     14  C   UNL     1      -3.480 -10.622  14.972  0.00  0.00    +0.044 A 
ATOM     16  C   UNL     1      -4.079 -10.749  13.742  0.00  0.00    +0.048 A 
ATOM     18  C   UNL     1      -3.019 -10.652  12.821  0.00  0.00    +0.066 A 
ATOM     23  C   UNL     1      -1.097 -10.288  15.697  0.00  0.00    +0.172 C 
BRANCH  18  17
ATOM     17  C   UNL     1      -3.098 -10.724  11.313  0.00  0.00    +0.040 C 
ATOM     19  C   UNL     1      -4.530 -10.979  10.811  0.00  0.00    +0.010 C 
ATOM     20  C   UNL     1      -2.622  -9.449  10.586  0.00  0.00    +0.010 C 
ATOM     21  C   UNL     1      -4.634 -10.182   9.519  0.00  0.00    +0.001 C 
ATOM     22  C   UNL     1      -3.835  -8.928   9.824  0.00  0.00    +0.001 C 
ENDBRANCH  18  17
ENDBRANCH   8  14
BRANCH   9  15
ATOM     15  C   UNL     1      -7.917 -11.259  15.780  0.00  0.00    +0.124 C 
BRANCH  15   4
ATOM      1  O   UNL     1      -9.103  -9.242  14.092  0.00  0.00    -0.253 OA
ATOM      4  N   UNL     1      -8.843 -10.242  16.173  0.00  0.00    -0.298 N 
ATOM      6  N   UNL     1     -10.252  -8.425  15.934  0.00  0.00    -0.297 N 
ATOM     24  C   UNL     1      -9.377  -9.295  15.290  0.00  0.00    +0.300 C 
ATOM     28  H   UNL     1      -9.127 -10.201  17.147  0.00  0.00    +0.150 HD
ATOM     29  H   UNL     1     -10.471  -8.598  16.911  0.00  0.00    +0.150 HD
BRANCH   6  25
ATOM     25  C   UNL     1     -10.937  -7.355  15.250  0.00  0.00    +0.068 C 
ATOM     26  C   UNL     1     -11.182  -6.189  16.199  0.00  0.00    +0.027 C 
ATOM     27  C   UNL     1     -12.243  -7.856  14.645  0.00  0.00    +0.027 C 
ENDBRANCH   6  25
ENDBRANCH  15   4
ENDBRANCH   9  15
TORSDOF 5
ENDMDL
MODEL 2
REMARK VINA RESULT:      -6.8     25.890     28.998
REMARK  Name = 25389088
REMARK  8 active torsions:
REMARK  status: ('A' for Active; 'I' for Inactive)
REMARK    1  A    between atoms: N_3  and  C_23
REMARK    2  A    between atoms: N_4  and  C_15
REMARK    3  A    between atoms: N_6  and  C_25
REMARK    4  A    between atoms: C_8  and  C_14
REMARK    5  A    between atoms: C_9  and  C_15
REMARK    6  A    between atoms: C_17  and  C_18
REMARK    7  A    between atoms: C_25  and  C_26
REMARK    8  A    between atoms: C_25  and  C_27
REMARK                            x       y       z     vdW  Elec       q    Type
REMARK                         _______ _______ _______ _____ _____    ______ ____
ROOT
ATOM      2  N   UNL     1      13.459   7.463  20.733  0.00  0.00    -0.297 NA
ATOM      7  C   UNL     1      11.593   8.996  19.755  0.00  0.00    +0.002 C 
ATOM      8  C   UNL     1      12.326   8.235  18.615  0.00  0.00    +0.055 C 
ATOM      9  C   UNL     1      13.584   8.835  21.291  0.00  0.00    +0.074 C 
ATOM     10  C   UNL     1      12.623   9.806  20.572  0.00  0.00    +0.024 C 
ATOM     11  C   UNL     1      13.543   7.507  19.252  0.00  0.00    +0.094 C 
ATOM     12  C   UNL     1      11.008   7.925  20.700  0.00  0.00    +0.019 C 
ATOM     13  C   UNL     1      12.121   6.942  21.104  0.00  0.00    +0.085 C 
ENDROOT
BRANCH   8  14
ATOM      3  N   UNL     1      11.871   9.166  16.298  0.00  0.00    -0.271 N 
ATOM      5  N   UNL     1      12.397   9.887  15.294  0.00  0.00    -0.176 NA
ATOM     14  C   UNL     1      12.708   9.012  17.364  0.00  0.00    +0.044 A 
ATOM     16  C   UNL     1      13.863   9.680  17.033  0.00  0.00    +0.048 A 
ATOM     18  C   UNL     1      13.614  10.198  15.748  0.00  0.00    +0.066 A 
ATOM     23  C   UNL     1      10.532   8.642  16.164  0.00  0.00    +0.172 C 
BRANCH  18  17
ATOM     17  C   UNL     1      14.546  11.026  14.892  0.00  0.00    +0.040 C 
ATOM     19  C   UNL     1      13.879  12.310  14.368  0.00  0.00    +0.010 C 
ATOM     20  C   UNL     1      15.833  11.486  15.608  0.00  0.00    +0.010 C 
ATOM     21  C   UNL     1      14.991  13.349  14.363  0.00  0.00    +0.001 C 
ATOM     22  C   UNL     1      15.782  13.010  15.615  0.00  0.00    +0.001 C 
ENDBRANCH  18  17
ENDBRANCH   8  14
BRANCH   9  15
ATOM     15  C   UNL     1      15.028   9.343  21.270  0.00  0.00    +0.124 C 
BRANCH  15   4
ATOM      1  O   UNL     1      17.883   9.336  20.851  0.00  0.00    -0.253 OA
ATOM      4  N   UNL     1      15.943   8.291  21.589  0.00  0.00    -0.298 N 
ATOM      6  N   UNL     1      17.975   7.203  21.760  0.00  0.00    -0.297 N 
ATOM     24  C   UNL     1      17.321   8.363  21.355  0.00  0.00    +0.300 C 
ATOM     28  H   UNL     1      15.573   7.442  22.005  0.00  0.00    +0.150 HD
ATOM     29  H   UNL     1      17.434   6.485  22.234  0.00  0.00    +0.150 HD
BRANCH   6  25
ATOM     25  C   UNL     1      19.401   7.020  21.627  0.00  0.00    +0.068 C 
ATOM     26  C   UNL     1      19.702   5.856  20.693  0.00  0.00    +0.027 C 
ATOM     27  C   UNL     1      20.042   6.811  22.994  0.00  0.00    +0.027 C 
ENDBRANCH   6  25
ENDBRANCH  15   4
ENDBRANCH   9  15
TORSDOF 5
ENDMDL
MODEL 3
REMARK VINA RESULT:      -6.5      2.197      2.233
REMARK  Name = 25389088
REMARK  8 active torsions:
REMARK  status: ('A' for Active; 'I' for Inactive)
REMARK    1  A    between atoms: N_3  and  C_23
REMARK    2  A    between atoms: N_4  and  C_15
REMARK    3  A    between atoms: N_6  and  C_25
REMARK    4  A    between atoms: C_8  and  C_14
REMARK    5  A    between atoms: C_9  and  C_15
REMARK    6  A    between atoms: C_17  and  C_18
REMARK    7  A    between atoms: C_25  and  C_26
REMARK    8  A    between atoms: C_25  and  C_27
REMARK                            x       y       z     vdW  Elec       q    Type
REMARK                         _______ _______ _______ _____ _____    ______ ____
ROOT
ATOM      2  N   UNL     1      -6.642 -10.473  18.254  0.00  0.00    -0.297 NA
ATOM      7  C   UNL     1      -4.695 -12.088  17.632  0.00  0.00    +0.002 C 
ATOM      8  C   UNL     1      -4.492 -10.705  16.954  0.00  0.00    +0.055 C 
ATOM      9  C   UNL     1      -7.190 -11.772  17.781  0.00  0.00    +0.074 C 
ATOM     10  C   UNL     1      -6.065 -12.665  17.215  0.00  0.00    +0.024 C 
ATOM     11  C   UNL     1      -5.782  -9.873  17.204  0.00  0.00    +0.094 C 
ATOM     12  C   UNL     1      -4.755 -11.834  19.153  0.00  0.00    +0.019 C 
ATOM     13  C   UNL     1      -5.800 -10.742  19.444  0.00  0.00    +0.085 C 
ENDROOT
BRANCH   8  14
ATOM      3  N   UNL     1      -2.753 -10.696  15.105  0.00  0.00    -0.271 N 
ATOM      5  N   UNL     1      -2.584 -10.667  13.772  0.00  0.00    -0.176 NA
ATOM     14  C   UNL     1      -4.060 -10.677  15.495  0.00  0.00    +0.044 A 
ATOM     16  C   UNL     1      -4.797 -10.632  14.337  0.00  0.00    +0.048 A 
ATOM     18  C   UNL     1      -3.836 -10.627  13.308  0.00  0.00    +0.066 A 
ATOM     23  C   UNL     1      -1.592 -10.742  15.962  0.00  0.00    +0.172 C 
BRANCH  18  17
ATOM     17  C   UNL     1      -4.082 -10.585  11.816  0.00  0.00    +0.040 C 
ATOM     19  C   UNL     1      -5.012  -9.429  11.406  0.00  0.00    +0.010 C 
ATOM     20  C   UNL     1      -2.808 -10.419  10.962  0.00  0.00    +0.010 C 
ATOM     21  C   UNL     1      -4.480  -8.966  10.058  0.00  0.00    +0.001 C 
ATOM     22  C   UNL     1      -2.976  -9.099  10.218  0.00  0.00    +0.001 C 
ENDBRANCH  18  17
ENDBRANCH   8  14
BRANCH   9  15
ATOM     15  C   UNL     1      -8.334 -11.592  16.780  0.00  0.00    +0.124 C 
BRANCH  15   4
ATOM      1  O   UNL     1      -9.810  -9.306  17.740  0.00  0.00    -0.253 OA
ATOM      4  N   UNL     1      -9.600 -11.601  17.446  0.00  0.00    -0.298 N 
ATOM      6  N   UNL     1     -11.469 -10.739  18.497  0.00  0.00    -0.297 N 
ATOM     24  C   UNL     1     -10.255 -10.444  17.883  0.00  0.00    +0.300 C 
ATOM     28  H   UNL     1     -10.047 -12.497  17.615  0.00  0.00    +0.150 HD
ATOM     29  H   UNL     1     -11.786 -11.705  18.499  0.00  0.00    +0.150 HD
BRANCH   6  25
ATOM     25  C   UNL     1     -12.341  -9.724  19.037  0.00  0.00    +0.068 C 
ATOM     26  C   UNL     1     -12.462  -9.877  20.548  0.00  0.00    +0.027 C 
ATOM     27  C   UNL     1     -13.708  -9.781  18.367  0.00  0.00    +0.027 C 
ENDBRANCH   6  25
ENDBRANCH  15   4
ENDBRANCH   9  15
TORSDOF 5
ENDMDL
MODEL 4
REMARK VINA RESULT:      -6.4     26.411     29.295
REMARK  Name = 25389088
REMARK  8 active torsions:
REMARK  status: ('A' for Active; 'I' for Inactive)
REMARK    1  A    between atoms: N_3  and  C_23
REMARK    2  A    between atoms: N_4  and  C_15
REMARK    3  A    between atoms: N_6  and  C_25
REMARK    4  A    between atoms: C_8  and  C_14
REMARK    5  A    between atoms: C_9  and  C_15
REMARK    6  A    between atoms: C_17  and  C_18
REMARK    7  A    between atoms: C_25  and  C_26
REMARK    8  A    between atoms: C_25  and  C_27
REMARK                            x       y       z     vdW  Elec       q    Type
REMARK                         _______ _______ _______ _____ _____    ______ ____
ROOT
ATOM      2  N   UNL     1      12.807   7.781  20.476  0.00  0.00    -0.297 NA
ATOM      7  C   UNL     1      14.718   8.438  18.833  0.00  0.00    +0.002 C 
ATOM      8  C   UNL     1      15.052   7.100  19.548  0.00  0.00    +0.055 C 
ATOM      9  C   UNL     1      13.213   9.193  20.706  0.00  0.00    +0.074 C 
ATOM     10  C   UNL     1      14.477   9.537  19.890  0.00  0.00    +0.024 C 
ATOM     11  C   UNL     1      13.974   6.882  20.649  0.00  0.00    +0.094 C 
ATOM     12  C   UNL     1      13.382   8.224  18.090  0.00  0.00    +0.019 C 
ATOM     13  C   UNL     1      12.338   7.667  19.075  0.00  0.00    +0.085 C 
ENDROOT
BRANCH   8  14
ATOM      3  N   UNL     1      17.412   6.175  19.417  0.00  0.00    -0.271 N 
ATOM      5  N   UNL     1      18.596   6.122  20.051  0.00  0.00    -0.176 NA
ATOM     14  C   UNL     1      16.465   6.902  20.077  0.00  0.00    +0.044 A 
ATOM     16  C   UNL     1      17.072   7.357  21.223  0.00  0.00    +0.048 A 
ATOM     18  C   UNL     1      18.382   6.846  21.154  0.00  0.00    +0.066 A 
ATOM     23  C   UNL     1      17.256   5.489  18.156  0.00  0.00    +0.172 C 
BRANCH  18  17
ATOM     17  C   UNL     1      19.500   7.034  22.156  0.00  0.00    +0.040 C 
ATOM     19  C   UNL     1      20.587   5.951  22.034  0.00  0.00    +0.010 C 
ATOM     20  C   UNL     1      20.240   8.383  22.042  0.00  0.00    +0.010 C 
ATOM     21  C   UNL     1      21.889   6.675  22.342  0.00  0.00    +0.001 C 
ATOM     22  C   UNL     1      21.684   8.037  21.701  0.00  0.00    +0.001 C 
ENDBRANCH  18  17
ENDBRANCH   8  14
BRANCH   9  15
ATOM     15  C   UNL     1      13.390   9.513  22.193  0.00  0.00    +0.124 C 
BRANCH  15   4
ATOM      1  O   UNL     1      10.992  10.207  23.642  0.00  0.00    -0.253 OA
ATOM      4  N   UNL     1      12.913  10.829  22.491  0.00  0.00    -0.298 N 
ATOM      6  N   UNL     1      11.508  12.450  23.352  0.00  0.00    -0.297 N 
ATOM     24  C   UNL     1      11.735  11.084  23.203  0.00  0.00    +0.300 C 
ATOM     28  H   UNL     1      13.457  11.622  22.165  0.00  0.00    +0.150 HD
ATOM     29  H   UNL     1      12.219  13.096  23.019  0.00  0.00    +0.150 HD
BRANCH   6  25
ATOM     25  C   UNL     1      10.361  12.982  24.047  0.00  0.00    +0.068 C 
ATOM     26  C   UNL     1       9.861  14.245  23.357  0.00  0.00    +0.027 C 
ATOM     27  C   UNL     1      10.697  13.249  25.509  0.00  0.00    +0.027 C 
ENDBRANCH   6  25
ENDBRANCH  15   4
ENDBRANCH   9  15
TORSDOF 5
ENDMDL
MODEL 5
REMARK VINA RESULT:      -6.4      2.015      5.374
REMARK  Name = 25389088
REMARK  8 active torsions:
REMARK  status: ('A' for Active; 'I' for Inactive)
REMARK    1  A    between atoms: N_3  and  C_23
REMARK    2  A    between atoms: N_4  and  C_15
REMARK    3  A    between atoms: N_6  and  C_25
REMARK    4  A    between atoms: C_8  and  C_14
REMARK    5  A    between atoms: C_9  and  C_15
REMARK    6  A    between atoms: C_17  and  C_18
REMARK    7  A    between atoms: C_25  and  C_26
REMARK    8  A    between atoms: C_25  and  C_27
REMARK                            x       y       z     vdW  Elec       q    Type
REMARK                         _______ _______ _______ _____ _____    ______ ____
ROOT
ATOM      2  N   UNL     1      -6.518 -11.305  10.802  0.00  0.00    -0.297 NA
ATOM      7  C   UNL     1      -4.875  -9.435  11.571  0.00  0.00    +0.002 C 
ATOM      8  C   UNL     1      -4.613 -10.748  12.359  0.00  0.00    +0.055 C 
ATOM      9  C   UNL     1      -7.271 -10.061  11.110  0.00  0.00    +0.074 C 
ATOM     10  C   UNL     1      -6.347  -9.011  11.762  0.00  0.00    +0.024 C 
ATOM     11  C   UNL     1      -5.752 -11.743  11.995  0.00  0.00    +0.094 C 
ATOM     12  C   UNL     1      -4.692  -9.771  10.075  0.00  0.00    +0.019 C 
ATOM     13  C   UNL     1      -5.554 -10.995   9.720  0.00  0.00    +0.085 C 
ENDROOT
BRANCH   8  14
ATOM      3  N   UNL     1      -3.153 -10.686  14.435  0.00  0.00    -0.271 N 
ATOM      5  N   UNL     1      -3.172 -10.585  15.774  0.00  0.00    -0.176 NA
ATOM     14  C   UNL     1      -4.390 -10.651  13.862  0.00  0.00    +0.044 A 
ATOM     16  C   UNL     1      -5.281 -10.517  14.899  0.00  0.00    +0.048 A 
ATOM     18  C   UNL     1      -4.474 -10.482  16.053  0.00  0.00    +0.066 A 
ATOM     23  C   UNL     1      -1.885 -10.818  13.755  0.00  0.00    +0.172 C 
BRANCH  18  17
ATOM     17  C   UNL     1      -4.926 -10.346  17.490  0.00  0.00    +0.040 C 
ATOM     19  C   UNL     1      -6.458 -10.289  17.622  0.00  0.00    +0.010 C 
ATOM     20  C   UNL     1      -4.470 -11.493  18.415  0.00  0.00    +0.010 C 
ATOM     21  C   UNL     1      -6.762 -11.025  18.918  0.00  0.00    +0.001 C 
ATOM     22  C   UNL     1      -5.748 -12.155  18.916  0.00  0.00    +0.001 C 
ENDBRANCH  18  17
ENDBRANCH   8  14
BRANCH   9  15
ATOM     15  C   UNL     1      -8.517 -10.329  11.960  0.00  0.00    +0.124 C 
BRANCH  15   4
ATOM      1  O   UNL     1     -10.723  -9.366  13.551  0.00  0.00    -0.253 OA
ATOM      4  N   UNL     1      -8.440  -9.635  13.209  0.00  0.00    -0.298 N 
ATOM      6  N   UNL     1      -9.203  -8.554  15.105  0.00  0.00    -0.297 N 
ATOM     24  C   UNL     1      -9.562  -9.199  13.924  0.00  0.00    +0.300 C 
ATOM     28  H   UNL     1      -7.522  -9.445  13.598  0.00  0.00    +0.150 HD
ATOM     29  H   UNL     1      -8.220  -8.533  15.362  0.00  0.00    +0.150 HD
BRANCH   6  25
ATOM     25  C   UNL     1     -10.171  -8.008  16.025  0.00  0.00    +0.068 C 
ATOM     26  C   UNL     1     -10.456  -6.549  15.691  0.00  0.00    +0.027 C 
ATOM     27  C   UNL     1      -9.689  -8.160  17.462  0.00  0.00    +0.027 C 
ENDBRANCH   6  25
ENDBRANCH  15   4
ENDBRANCH   9  15
TORSDOF 5
ENDMDL
MODEL 6
REMARK VINA RESULT:      -6.3      3.598      7.577
REMARK  Name = 25389088
REMARK  8 active torsions:
REMARK  status: ('A' for Active; 'I' for Inactive)
REMARK    1  A    between atoms: N_3  and  C_23
REMARK    2  A    between atoms: N_4  and  C_15
REMARK    3  A    between atoms: N_6  and  C_25
REMARK    4  A    between atoms: C_8  and  C_14
REMARK    5  A    between atoms: C_9  and  C_15
REMARK    6  A    between atoms: C_17  and  C_18
REMARK    7  A    between atoms: C_25  and  C_26
REMARK    8  A    between atoms: C_25  and  C_27
REMARK                            x       y       z     vdW  Elec       q    Type
REMARK                         _______ _______ _______ _____ _____    ______ ____
ROOT
ATOM      2  N   UNL     1      -5.817 -12.269  17.254  0.00  0.00    -0.297 NA
ATOM      7  C   UNL     1      -6.307 -11.115  19.537  0.00  0.00    +0.002 C 
ATOM      8  C   UNL     1      -7.392 -12.182  19.224  0.00  0.00    +0.055 C 
ATOM      9  C   UNL     1      -5.762 -10.791  17.100  0.00  0.00    +0.074 C 
ATOM     10  C   UNL     1      -6.250 -10.090  18.384  0.00  0.00    +0.024 C 
ATOM     11  C   UNL     1      -7.147 -12.676  17.769  0.00  0.00    +0.094 C 
ATOM     12  C   UNL     1      -4.950 -11.851  19.555  0.00  0.00    +0.019 C 
ATOM     13  C   UNL     1      -4.795 -12.659  18.255  0.00  0.00    +0.085 C 
ENDROOT
BRANCH   8  14
ATOM      3  N   UNL     1      -9.706 -12.619  20.171  0.00  0.00    -0.271 N 
ATOM      5  N   UNL     1     -10.948 -12.119  20.280  0.00  0.00    -0.176 NA
ATOM     14  C   UNL     1      -8.849 -11.819  19.473  0.00  0.00    +0.044 A 
ATOM     16  C   UNL     1      -9.582 -10.719  19.099  0.00  0.00    +0.048 A 
ATOM     18  C   UNL     1     -10.867 -10.958  19.623  0.00  0.00    +0.066 A 
ATOM     23  C   UNL     1      -9.405 -13.897  20.772  0.00  0.00    +0.172 C 
BRANCH  18  17
ATOM     17  C   UNL     1     -12.086 -10.070  19.516  0.00  0.00    +0.040 C 
ATOM     19  C   UNL     1     -13.229 -10.733  18.727  0.00  0.00    +0.010 C 
ATOM     20  C   UNL     1     -12.698  -9.657  20.870  0.00  0.00    +0.010 C 
ATOM     21  C   UNL     1     -14.500 -10.256  19.414  0.00  0.00    +0.001 C 
ATOM     22  C   UNL     1     -14.109 -10.234  20.882  0.00  0.00    +0.001 C 
ENDBRANCH  18  17
ENDBRANCH   8  14
BRANCH   9  15
ATOM     15  C   UNL     1      -6.521 -10.307  15.861  0.00  0.00    +0.124 C 
BRANCH  15   4
ATOM      1  O   UNL     1      -9.129  -9.812  14.730  0.00  0.00    -0.253 OA
ATOM      4  N   UNL     1      -7.419  -9.245  16.198  0.00  0.00    -0.298 N 
ATOM      6  N   UNL     1      -9.339  -7.961  16.114  0.00  0.00    -0.297 N 
ATOM     24  C   UNL     1      -8.673  -9.071  15.601  0.00  0.00    +0.300 C 
ATOM     28  H   UNL     1      -7.129  -8.576  16.905  0.00  0.00    +0.150 HD
ATOM     29  H   UNL     1      -8.912  -7.456  16.885  0.00  0.00    +0.150 HD
BRANCH   6  25
ATOM     25  C   UNL     1     -10.652  -7.561  15.667  0.00  0.00    +0.068 C 
ATOM     26  C   UNL     1     -10.735  -6.044  15.556  0.00  0.00    +0.027 C 
ATOM     27  C   UNL     1     -11.724  -8.104  16.604  0.00  0.00    +0.027 C 
ENDBRANCH   6  25
ENDBRANCH  15   4
ENDBRANCH   9  15
TORSDOF 5
ENDMDL
MODEL 7
REMARK VINA RESULT:      -6.2     25.749     28.844
REMARK  Name = 25389088
REMARK  8 active torsions:
REMARK  status: ('A' for Active; 'I' for Inactive)
REMARK    1  A    between atoms: N_3  and  C_23
REMARK    2  A    between atoms: N_4  and  C_15
REMARK    3  A    between atoms: N_6  and  C_25
REMARK    4  A    between atoms: C_8  and  C_14
REMARK    5  A    between atoms: C_9  and  C_15
REMARK    6  A    between atoms: C_17  and  C_18
REMARK    7  A    between atoms: C_25  and  C_26
REMARK    8  A    between atoms: C_25  and  C_27
REMARK                            x       y       z     vdW  Elec       q    Type
REMARK                         _______ _______ _______ _____ _____    ______ ____
ROOT
ATOM      2  N   UNL     1      14.641   6.755  19.425  0.00  0.00    -0.297 NA
ATOM      7  C   UNL     1      15.188   8.542  21.239  0.00  0.00    +0.002 C 
ATOM      8  C   UNL     1      13.826   7.859  21.542  0.00  0.00    +0.055 C 
ATOM      9  C   UNL     1      15.018   8.039  18.777  0.00  0.00    +0.074 C 
ATOM     10  C   UNL     1      15.144   9.163  19.826  0.00  0.00    +0.024 C 
ATOM     11  C   UNL     1      13.476   6.961  20.321  0.00  0.00    +0.094 C 
ATOM     12  C   UNL     1      16.251   7.423  21.208  0.00  0.00    +0.019 C 
ATOM     13  C   UNL     1      15.788   6.310  20.252  0.00  0.00    +0.085 C 
ENDROOT
BRANCH   8  14
ATOM      3  N   UNL     1      11.379   8.279  22.069  0.00  0.00    -0.271 N 
ATOM      5  N   UNL     1      10.496   9.213  22.457  0.00  0.00    -0.176 NA
ATOM     14  C   UNL     1      12.659   8.739  21.964  0.00  0.00    +0.044 A 
ATOM     16  C   UNL     1      12.609  10.068  22.308  0.00  0.00    +0.048 A 
ATOM     18  C   UNL     1      11.252  10.305  22.601  0.00  0.00    +0.066 A 
ATOM     23  C   UNL     1      10.916   6.935  21.809  0.00  0.00    +0.172 C 
BRANCH  18  17
ATOM     17  C   UNL     1      10.617  11.606  23.039  0.00  0.00    +0.040 C 
ATOM     19  C   UNL     1      10.864  11.910  24.528  0.00  0.00    +0.010 C 
ATOM     20  C   UNL     1      11.113  12.850  22.272  0.00  0.00    +0.010 C 
ATOM     21  C   UNL     1      11.016  13.422  24.593  0.00  0.00    +0.001 C 
ATOM     22  C   UNL     1      11.769  13.747  23.315  0.00  0.00    +0.001 C 
ENDBRANCH  18  17
ENDBRANCH   8  14
BRANCH   9  15
ATOM     15  C   UNL     1      14.063   8.421  17.643  0.00  0.00    +0.124 C 
BRANCH  15   4
ATOM      1  O   UNL     1      13.116   9.566  15.169  0.00  0.00    -0.253 OA
ATOM      4  N   UNL     1      14.407   9.699  17.097  0.00  0.00    -0.298 N 
ATOM      6  N   UNL     1      14.399  11.452  15.591  0.00  0.00    -0.297 N 
ATOM     24  C   UNL     1      13.902  10.185  15.885  0.00  0.00    +0.300 C 
ATOM     28  H   UNL     1      15.055  10.284  17.614  0.00  0.00    +0.150 HD
ATOM     29  H   UNL     1      14.984  11.913  16.282  0.00  0.00    +0.150 HD
BRANCH   6  25
ATOM     25  C   UNL     1      14.036  12.178  14.397  0.00  0.00    +0.068 C 
ATOM     26  C   UNL     1      15.100  11.997  13.322  0.00  0.00    +0.027 C 
ATOM     27  C   UNL     1      13.818  13.653  14.714  0.00  0.00    +0.027 C 
ENDBRANCH   6  25
ENDBRANCH  15   4
ENDBRANCH   9  15
TORSDOF 5
ENDMDL
MODEL 8
REMARK VINA RESULT:      -6.2     26.417     29.212
REMARK  Name = 25389088
REMARK  8 active torsions:
REMARK  status: ('A' for Active; 'I' for Inactive)
REMARK    1  A    between atoms: N_3  and  C_23
REMARK    2  A    between atoms: N_4  and  C_15
REMARK    3  A    between atoms: N_6  and  C_25
REMARK    4  A    between atoms: C_8  and  C_14
REMARK    5  A    between atoms: C_9  and  C_15
REMARK    6  A    between atoms: C_17  and  C_18
REMARK    7  A    between atoms: C_25  and  C_26
REMARK    8  A    between atoms: C_25  and  C_27
REMARK                            x       y       z     vdW  Elec       q    Type
REMARK                         _______ _______ _______ _____ _____    ______ ____
ROOT
ATOM      2  N   UNL     1      12.399  13.444  22.635  0.00  0.00    -0.297 NA
ATOM      7  C   UNL     1      14.918  12.883  22.285  0.00  0.00    +0.002 C 
ATOM      8  C   UNL     1      14.076  12.375  21.082  0.00  0.00    +0.055 C 
ATOM      9  C   UNL     1      12.947  12.785  23.850  0.00  0.00    +0.074 C 
ATOM     10  C   UNL     1      14.375  12.260  23.589  0.00  0.00    +0.024 C 
ATOM     11  C   UNL     1      12.577  12.562  21.455  0.00  0.00    +0.094 C 
ATOM     12  C   UNL     1      14.685  14.406  22.379  0.00  0.00    +0.019 C 
ATOM     13  C   UNL     1      13.172  14.687  22.405  0.00  0.00    +0.085 C 
ENDROOT
BRANCH   8  14
ATOM      3  N   UNL     1      14.145  10.630  19.240  0.00  0.00    -0.271 N 
ATOM      5  N   UNL     1      14.467   9.356  18.962  0.00  0.00    -0.176 NA
ATOM     14  C   UNL     1      14.365  10.983  20.540  0.00  0.00    +0.044 A 
ATOM     16  C   UNL     1      14.866   9.861  21.153  0.00  0.00    +0.048 A 
ATOM     18  C   UNL     1      14.907   8.890  20.134  0.00  0.00    +0.066 A 
ATOM     23  C   UNL     1      13.619  11.471  18.190  0.00  0.00    +0.172 C 
BRANCH  18  17
ATOM     17  C   UNL     1      15.376   7.457  20.244  0.00  0.00    +0.040 C 
ATOM     19  C   UNL     1      15.640   6.817  18.869  0.00  0.00    +0.010 C 
ATOM     20  C   UNL     1      16.680   7.271  21.048  0.00  0.00    +0.010 C 
ATOM     21  C   UNL     1      16.833   5.900  19.092  0.00  0.00    +0.001 C 
ATOM     22  C   UNL     1      17.691   6.685  20.069  0.00  0.00    +0.001 C 
ENDBRANCH  18  17
ENDBRANCH   8  14
BRANCH   9  15
ATOM     15  C   UNL     1      12.025  11.686  24.383  0.00  0.00    +0.124 C 
BRANCH  15   4
ATOM      1  O   UNL     1      10.212  10.231  22.674  0.00  0.00    -0.253 OA
ATOM      4  N   UNL     1      12.276  10.443  23.720  0.00  0.00    -0.298 N 
ATOM      6  N   UNL     1      11.844   8.608  22.383  0.00  0.00    -0.297 N 
ATOM     24  C   UNL     1      11.340   9.797  22.903  0.00  0.00    +0.300 C 
ATOM     28  H   UNL     1      13.181  10.003  23.852  0.00  0.00    +0.150 HD
ATOM     29  H   UNL     1      12.815   8.373  22.569  0.00  0.00    +0.150 HD
BRANCH   6  25
ATOM     25  C   UNL     1      11.080   7.750  21.510  0.00  0.00    +0.068 C 
ATOM     26  C   UNL     1      11.569   6.311  21.619  0.00  0.00    +0.027 C 
ATOM     27  C   UNL     1      11.152   8.248  20.072  0.00  0.00    +0.027 C 
ENDBRANCH   6  25
ENDBRANCH  15   4
ENDBRANCH   9  15
TORSDOF 5
ENDMDL
MODEL 9
REMARK VINA RESULT:      -6.2     24.498     27.560
REMARK  Name = 25389088
REMARK  8 active torsions:
REMARK  status: ('A' for Active; 'I' for Inactive)
REMARK    1  A    between atoms: N_3  and  C_23
REMARK    2  A    between atoms: N_4  and  C_15
REMARK    3  A    between atoms: N_6  and  C_25
REMARK    4  A    between atoms: C_8  and  C_14
REMARK    5  A    between atoms: C_9  and  C_15
REMARK    6  A    between atoms: C_17  and  C_18
REMARK    7  A    between atoms: C_25  and  C_26
REMARK    8  A    between atoms: C_25  and  C_27
REMARK                            x       y       z     vdW  Elec       q    Type
REMARK                         _______ _______ _______ _____ _____    ______ ____
ROOT
ATOM      2  N   UNL     1      13.852   5.326  -0.374  0.00  0.00    -0.297 NA
ATOM      7  C   UNL     1      12.452   3.463   0.791  0.00  0.00    +0.002 C 
ATOM      8  C   UNL     1      11.639   4.785   0.710  0.00  0.00    +0.055 C 
ATOM      9  C   UNL     1      14.654   4.683   0.701  0.00  0.00    +0.074 C 
ATOM     10  C   UNL     1      13.779   3.725   1.536  0.00  0.00    +0.024 C 
ATOM     11  C   UNL     1      12.603   5.891   0.194  0.00  0.00    +0.094 C 
ATOM     12  C   UNL     1      12.816   3.075  -0.658  0.00  0.00    +0.019 C 
ATOM     13  C   UNL     1      13.482   4.276  -1.353  0.00  0.00    +0.085 C 
ENDROOT
BRANCH   8  14
ATOM      3  N   UNL     1      10.132   6.378   1.989  0.00  0.00    -0.271 N 
ATOM      5  N   UNL     1       9.520   6.585   3.166  0.00  0.00    -0.176 NA
ATOM     14  C   UNL     1      10.862   5.226   1.942  0.00  0.00    +0.044 A 
ATOM     16  C   UNL     1      10.715   4.639   3.175  0.00  0.00    +0.048 A 
ATOM     18  C   UNL     1       9.880   5.520   3.888  0.00  0.00    +0.066 A 
ATOM     23  C   UNL     1       9.972   7.347   0.930  0.00  0.00    +0.172 C 
BRANCH  18  17
ATOM     17  C   UNL     1       9.384   5.374   5.309  0.00  0.00    +0.040 C 
ATOM     19  C   UNL     1      10.491   5.630   6.347  0.00  0.00    +0.010 C 
ATOM     20  C   UNL     1       8.231   6.327   5.685  0.00  0.00    +0.010 C 
ATOM     21  C   UNL     1       9.782   6.315   7.507  0.00  0.00    +0.001 C 
ATOM     22  C   UNL     1       8.767   7.204   6.811  0.00  0.00    +0.001 C 
ENDBRANCH  18  17
ENDBRANCH   8  14
BRANCH   9  15
ATOM     15  C   UNL     1      15.377   5.707   1.580  0.00  0.00    +0.124 C 
BRANCH  15   4
ATOM      1  O   UNL     1      14.724   8.193   2.891  0.00  0.00    -0.253 OA
ATOM      4  N   UNL     1      14.702   5.871   2.831  0.00  0.00    -0.298 N 
ATOM      6  N   UNL     1      13.757   6.987   4.621  0.00  0.00    -0.297 N 
ATOM     24  C   UNL     1      14.421   7.117   3.404  0.00  0.00    +0.300 C 
ATOM     28  H   UNL     1      14.415   5.037   3.335  0.00  0.00    +0.150 HD
ATOM     29  H   UNL     1      13.483   6.056   4.924  0.00  0.00    +0.150 HD
BRANCH   6  25
ATOM     25  C   UNL     1      13.352   8.121   5.417  0.00  0.00    +0.068 C 
ATOM     26  C   UNL     1      13.428   7.782   6.900  0.00  0.00    +0.027 C 
ATOM     27  C   UNL     1      11.951   8.576   5.027  0.00  0.00    +0.027 C 
ENDBRANCH   6  25
ENDBRANCH  15   4
ENDBRANCH   9  15
TORSDOF 5
ENDMDL
MODEL 10
REMARK VINA RESULT:      -6.1     25.332     27.696
REMARK  Name = 25389088
REMARK  8 active torsions:
REMARK  status: ('A' for Active; 'I' for Inactive)
REMARK    1  A    between atoms: N_3  and  C_23
REMARK    2  A    between atoms: N_4  and  C_15
REMARK    3  A    between atoms: N_6  and  C_25
REMARK    4  A    between atoms: C_8  and  C_14
REMARK    5  A    between atoms: C_9  and  C_15
REMARK    6  A    between atoms: C_17  and  C_18
REMARK    7  A    between atoms: C_25  and  C_26
REMARK    8  A    between atoms: C_25  and  C_27
REMARK                            x       y       z     vdW  Elec       q    Type
REMARK                         _______ _______ _______ _____ _____    ______ ____
ROOT
ATOM      2  N   UNL     1      18.328  -3.719  23.119  0.00  0.00    -0.297 NA
ATOM      7  C   UNL     1      16.987  -1.934  24.462  0.00  0.00    +0.002 C 
ATOM      8  C   UNL     1      18.424  -2.079  25.034  0.00  0.00    +0.055 C 
ATOM      9  C   UNL     1      17.007  -4.271  23.521  0.00  0.00    +0.074 C 
ATOM     10  C   UNL     1      16.286  -3.309  24.489  0.00  0.00    +0.024 C 
ATOM     11  C   UNL     1      19.087  -3.293  24.321  0.00  0.00    +0.094 C 
ATOM     12  C   UNL     1      17.137  -1.532  22.979  0.00  0.00    +0.019 C 
ATOM     13  C   UNL     1      18.083  -2.524  22.278  0.00  0.00    +0.085 C 
ENDROOT
BRANCH   8  14
ATOM      3  N   UNL     1      19.701  -1.668  27.189  0.00  0.00    -0.271 N 
ATOM      5  N   UNL     1      19.655  -1.810  28.524  0.00  0.00    -0.176 NA
ATOM     14  C   UNL     1      18.593  -2.137  26.545  0.00  0.00    +0.044 A 
ATOM     16  C   UNL     1      17.764  -2.619  27.529  0.00  0.00    +0.048 A 
ATOM     18  C   UNL     1      18.469  -2.392  28.726  0.00  0.00    +0.066 A 
ATOM     23  C   UNL     1      20.865  -1.063  26.584  0.00  0.00    +0.172 C 
BRANCH  18  17
ATOM     17  C   UNL     1      18.028  -2.727  30.134  0.00  0.00    +0.040 C 
ATOM     19  C   UNL     1      17.207  -1.596  30.778  0.00  0.00    +0.010 C 
ATOM     20  C   UNL     1      17.153  -3.993  30.245  0.00  0.00    +0.010 C 
ATOM     21  C   UNL     1      16.171  -2.310  31.633  0.00  0.00    +0.001 C 
ATOM     22  C   UNL     1      15.811  -3.523  30.794  0.00  0.00    +0.001 C 
ENDBRANCH  18  17
ENDBRANCH   8  14
BRANCH   9  15
ATOM     15  C   UNL     1      17.117  -5.684  24.100  0.00  0.00    +0.124 C 
BRANCH  15   4
ATOM      1  O   UNL     1      15.938  -7.773  25.704  0.00  0.00    -0.253 OA
ATOM      4  N   UNL     1      16.915  -5.673  25.516  0.00  0.00    -0.298 N 
ATOM      6  N   UNL     1      16.258  -6.458  27.588  0.00  0.00    -0.297 N 
ATOM     24  C   UNL     1      16.333  -6.731  26.225  0.00  0.00    +0.300 C 
ATOM     28  H   UNL     1      17.205  -4.851  26.036  0.00  0.00    +0.150 HD
ATOM     29  H   UNL     1      16.680  -5.600  27.932  0.00  0.00    +0.150 HD
BRANCH   6  25
ATOM     25  C   UNL     1      15.698  -7.385  28.543  0.00  0.00    +0.068 C 
ATOM     26  C   UNL     1      14.556  -6.732  29.310  0.00  0.00    +0.027 C 
ATOM     27  C   UNL     1      16.778  -7.893  29.490  0.00  0.00    +0.027 C 
ENDBRANCH   6  25
ENDBRANCH  15   4
ENDBRANCH   9  15
TORSDOF 5
ENDMDL
