MODEL 1
REMARK VINA RESULT:      -7.1      0.000      0.000
REMARK  Name = 75367677
REMARK  4 active torsions:
REMARK  status: ('A' for Active; 'I' for Inactive)
REMARK    1  A    between atoms: S_1  and  N_6
REMARK    2  A    between atoms: S_1  and  C_12
REMARK    3  A    between atoms: O_3  and  C_8
REMARK    4  A    between atoms: O_3  and  C_13
REMARK                            x       y       z     vdW  Elec       q    Type
REMARK                         _______ _______ _______ _____ _____    ______ ____
ROOT
ATOM      2  O   UNL     1      -3.942   4.371  24.516  0.00  0.00    -0.375 OA
ATOM      6  N   UNL     1      -1.729   2.555  25.141  0.00  0.00    -0.176 NA
ATOM      7  C   UNL     1      -2.601   1.842  24.156  0.00  0.00    +0.156 C 
ATOM      8  C   UNL     1      -4.067   1.915  24.577  0.00  0.00    +0.215 C 
ATOM      9  C   UNL     1      -1.533   3.992  24.780  0.00  0.00    +0.137 C 
ATOM     10  C   UNL     1      -4.538   3.247  25.155  0.00  0.00    +0.205 C 
ATOM     11  C   UNL     1      -2.754   4.812  25.173  0.00  0.00    +0.177 C 
ENDROOT
BRANCH   6   1
ATOM      1  S   UNL     1      -0.317   1.715  25.631  0.00  0.00    +0.029 S 
ATOM      4  O   UNL     1      -0.685   0.364  25.986  0.00  0.00    -0.158 OA
ATOM      5  O   UNL     1       0.434   2.564  26.525  0.00  0.00    -0.158 OA
ATOM     12  C   UNL     1       0.531   1.665  24.074  0.00  0.00    +0.215 C 
ENDBRANCH   6   1
BRANCH   8   3
ATOM      3  O   UNL     1      -4.345   0.901  25.543  0.00  0.00    -0.485 OA
BRANCH   3  13
ATOM     13  C   UNL     1      -4.080  -0.389  25.171  0.00  0.00    +0.121 A 
ATOM     14  C   UNL     1      -3.382  -1.234  26.033  0.00  0.00    +0.045 A 
ATOM     15  C   UNL     1      -4.507  -0.857  23.928  0.00  0.00    +0.045 A 
ATOM     16  C   UNL     1      -3.113  -2.550  25.653  0.00  0.00    +0.004 A 
ATOM     17  C   UNL     1      -4.238  -2.171  23.548  0.00  0.00    +0.004 A 
ATOM     18  C   UNL     1      -3.540  -3.017  24.410  0.00  0.00    +0.000 A 
ENDBRANCH   3  13
ENDBRANCH   8   3
TORSDOF 3
ENDMDL
MODEL 2
REMARK VINA RESULT:      -6.6     17.142     19.815
REMARK  Name = 75367677
REMARK  4 active torsions:
REMARK  status: ('A' for Active; 'I' for Inactive)
REMARK    1  A    between atoms: S_1  and  N_6
REMARK    2  A    between atoms: S_1  and  C_12
REMARK    3  A    between atoms: O_3  and  C_8
REMARK    4  A    between atoms: O_3  and  C_13
REMARK                            x       y       z     vdW  Elec       q    Type
REMARK                         _______ _______ _______ _____ _____    ______ ____
ROOT
ATOM      2  O   UNL     1      12.523   8.529  22.036  0.00  0.00    -0.375 OA
ATOM      6  N   UNL     1      12.632   8.147  19.133  0.00  0.00    -0.176 NA
ATOM      7  C   UNL     1      13.469   7.064  19.739  0.00  0.00    +0.156 C 
ATOM      8  C   UNL     1      14.435   7.638  20.772  0.00  0.00    +0.215 C 
ATOM      9  C   UNL     1      11.358   8.358  19.885  0.00  0.00    +0.137 C 
ATOM     10  C   UNL     1      13.883   8.740  21.674  0.00  0.00    +0.205 C 
ATOM     11  C   UNL     1      11.610   9.171  21.146  0.00  0.00    +0.177 C 
ENDROOT
BRANCH   6   1
ATOM      1  S   UNL     1      12.488   8.110  17.426  0.00  0.00    +0.029 S 
ATOM      4  O   UNL     1      11.121   7.788  17.087  0.00  0.00    -0.158 OA
ATOM      5  O   UNL     1      13.605   7.372  16.886  0.00  0.00    -0.158 OA
ATOM     12  C   UNL     1      12.747   9.833  17.088  0.00  0.00    +0.215 C 
ENDBRANCH   6   1
BRANCH   8   3
ATOM      3  O   UNL     1      15.594   8.156  20.117  0.00  0.00    -0.485 OA
BRANCH   3  13
ATOM     13  C   UNL     1      16.739   7.415  20.224  0.00  0.00    +0.121 A 
ATOM     14  C   UNL     1      16.953   6.334  19.368  0.00  0.00    +0.045 A 
ATOM     15  C   UNL     1      17.692   7.739  21.190  0.00  0.00    +0.045 A 
ATOM     16  C   UNL     1      18.121   5.579  19.477  0.00  0.00    +0.004 A 
ATOM     17  C   UNL     1      18.859   6.984  21.299  0.00  0.00    +0.004 A 
ATOM     18  C   UNL     1      19.074   5.904  20.443  0.00  0.00    +0.000 A 
ENDBRANCH   3  13
ENDBRANCH   8   3
TORSDOF 3
ENDMDL
MODEL 3
REMARK VINA RESULT:      -6.3     16.915     19.517
REMARK  Name = 75367677
REMARK  4 active torsions:
REMARK  status: ('A' for Active; 'I' for Inactive)
REMARK    1  A    between atoms: S_1  and  N_6
REMARK    2  A    between atoms: S_1  and  C_12
REMARK    3  A    between atoms: O_3  and  C_8
REMARK    4  A    between atoms: O_3  and  C_13
REMARK                            x       y       z     vdW  Elec       q    Type
REMARK                         _______ _______ _______ _____ _____    ______ ____
ROOT
ATOM      2  O   UNL     1      14.071  10.804  22.745  0.00  0.00    -0.375 OA
ATOM      6  N   UNL     1      12.571   8.681  21.393  0.00  0.00    -0.176 NA
ATOM      7  C   UNL     1      13.803   8.043  21.953  0.00  0.00    +0.156 C 
ATOM      8  C   UNL     1      15.044   8.858  21.598  0.00  0.00    +0.215 C 
ATOM      9  C   UNL     1      11.948   9.639  22.356  0.00  0.00    +0.137 C 
ATOM     10  C   UNL     1      14.899  10.377  21.669  0.00  0.00    +0.205 C 
ATOM     11  C   UNL     1      12.705  10.959  22.361  0.00  0.00    +0.177 C 
ENDROOT
BRANCH   6   1
ATOM      1  S   UNL     1      11.484   7.626  20.590  0.00  0.00    +0.029 S 
ATOM      4  O   UNL     1      10.557   8.421  19.819  0.00  0.00    -0.158 OA
ATOM      5  O   UNL     1      11.037   6.626  21.531  0.00  0.00    -0.158 OA
ATOM     12  C   UNL     1      12.621   6.859  19.465  0.00  0.00    +0.215 C 
ENDBRANCH   6   1
BRANCH   8   3
ATOM      3  O   UNL     1      15.482   8.527  20.280  0.00  0.00    -0.485 OA
BRANCH   3  13
ATOM     13  C   UNL     1      16.501   7.619  20.183  0.00  0.00    +0.121 A 
ATOM     14  C   UNL     1      17.603   7.714  21.033  0.00  0.00    +0.045 A 
ATOM     15  C   UNL     1      16.439   6.598  19.234  0.00  0.00    +0.045 A 
ATOM     16  C   UNL     1      18.642   6.788  20.935  0.00  0.00    +0.004 A 
ATOM     17  C   UNL     1      17.477   5.673  19.136  0.00  0.00    +0.004 A 
ATOM     18  C   UNL     1      18.579   5.768  19.986  0.00  0.00    +0.000 A 
ENDBRANCH   3  13
ENDBRANCH   8   3
TORSDOF 3
ENDMDL
MODEL 4
REMARK VINA RESULT:      -6.0     17.423     18.909
REMARK  Name = 75367677
REMARK  4 active torsions:
REMARK  status: ('A' for Active; 'I' for Inactive)
REMARK    1  A    between atoms: S_1  and  N_6
REMARK    2  A    between atoms: S_1  and  C_12
REMARK    3  A    between atoms: O_3  and  C_8
REMARK    4  A    between atoms: O_3  and  C_13
REMARK                            x       y       z     vdW  Elec       q    Type
REMARK                         _______ _______ _______ _____ _____    ______ ____
ROOT
ATOM      2  O   UNL     1      15.308   7.493  21.589  0.00  0.00    -0.375 OA
ATOM      6  N   UNL     1      13.870   7.936  19.075  0.00  0.00    -0.176 NA
ATOM      7  C   UNL     1      14.025   9.277  19.721  0.00  0.00    +0.156 C 
ATOM      8  C   UNL     1      13.607   9.223  21.188  0.00  0.00    +0.215 C 
ATOM      9  C   UNL     1      15.118   7.120  19.173  0.00  0.00    +0.137 C 
ATOM     10  C   UNL     1      14.022   7.975  21.964  0.00  0.00    +0.205 C 
ATOM     11  C   UNL     1      15.247   6.506  20.559  0.00  0.00    +0.177 C 
ENDROOT
BRANCH   6   1
ATOM      1  S   UNL     1      13.100   7.931  17.544  0.00  0.00    +0.029 S 
ATOM      4  O   UNL     1      11.865   7.190  17.653  0.00  0.00    -0.158 OA
ATOM      5  O   UNL     1      14.087   7.629  16.534  0.00  0.00    -0.158 OA
ATOM     12  C   UNL     1      12.699   9.655  17.428  0.00  0.00    +0.215 C 
ENDBRANCH   6   1
BRANCH   8   3
ATOM      3  O   UNL     1      12.188   9.346  21.293  0.00  0.00    -0.485 OA
BRANCH   3  13
ATOM     13  C   UNL     1      11.716  10.427  21.987  0.00  0.00    +0.121 A 
ATOM     14  C   UNL     1      11.719  11.690  21.396  0.00  0.00    +0.045 A 
ATOM     15  C   UNL     1      11.235  10.266  23.286  0.00  0.00    +0.045 A 
ATOM     16  C   UNL     1      11.238  12.793  22.103  0.00  0.00    +0.004 A 
ATOM     17  C   UNL     1      10.754  11.367  23.993  0.00  0.00    +0.004 A 
ATOM     18  C   UNL     1      10.756  12.630  23.402  0.00  0.00    +0.000 A 
ENDBRANCH   3  13
ENDBRANCH   8   3
TORSDOF 3
ENDMDL
MODEL 5
REMARK VINA RESULT:      -5.8      2.032      5.599
REMARK  Name = 75367677
REMARK  4 active torsions:
REMARK  status: ('A' for Active; 'I' for Inactive)
REMARK    1  A    between atoms: S_1  and  N_6
REMARK    2  A    between atoms: S_1  and  C_12
REMARK    3  A    between atoms: O_3  and  C_8
REMARK    4  A    between atoms: O_3  and  C_13
REMARK                            x       y       z     vdW  Elec       q    Type
REMARK                         _______ _______ _______ _____ _____    ______ ____
ROOT
ATOM      2  O   UNL     1      -2.278  -1.918  24.634  0.00  0.00    -0.375 OA
ATOM      6  N   UNL     1      -3.822   0.571  24.729  0.00  0.00    -0.176 NA
ATOM      7  C   UNL     1      -2.560   0.879  23.986  0.00  0.00    +0.156 C 
ATOM      8  C   UNL     1      -1.343   0.354  24.744  0.00  0.00    +0.215 C 
ATOM      9  C   UNL     1      -4.407  -0.742  24.320  0.00  0.00    +0.137 C 
ATOM     10  C   UNL     1      -1.497  -1.013  25.407  0.00  0.00    +0.205 C 
ATOM     11  C   UNL     1      -3.662  -1.890  24.985  0.00  0.00    +0.177 C 
ENDROOT
BRANCH   6   1
ATOM      1  S   UNL     1      -4.936   1.865  24.875  0.00  0.00    +0.029 S 
ATOM      4  O   UNL     1      -4.725   2.511  26.150  0.00  0.00    -0.158 OA
ATOM      5  O   UNL     1      -6.238   1.400  24.459  0.00  0.00    -0.158 OA
ATOM     12  C   UNL     1      -4.296   2.927  23.607  0.00  0.00    +0.215 C 
ENDBRANCH   6   1
BRANCH   8   3
ATOM      3  O   UNL     1      -0.964   1.285  25.758  0.00  0.00    -0.485 OA
BRANCH   3  13
ATOM     13  C   UNL     1      -1.006   2.610  25.418  0.00  0.00    +0.121 A 
ATOM     14  C   UNL     1      -1.855   3.479  26.104  0.00  0.00    +0.045 A 
ATOM     15  C   UNL     1      -0.202   3.092  24.385  0.00  0.00    +0.045 A 
ATOM     16  C   UNL     1      -1.898   4.830  25.758  0.00  0.00    +0.004 A 
ATOM     17  C   UNL     1      -0.245   4.442  24.039  0.00  0.00    +0.004 A 
ATOM     18  C   UNL     1      -1.093   5.311  24.725  0.00  0.00    +0.000 A 
ENDBRANCH   3  13
ENDBRANCH   8   3
TORSDOF 3
ENDMDL
MODEL 6
REMARK VINA RESULT:      -5.8     25.565     27.379
REMARK  Name = 75367677
REMARK  4 active torsions:
REMARK  status: ('A' for Active; 'I' for Inactive)
REMARK    1  A    between atoms: S_1  and  N_6
REMARK    2  A    between atoms: S_1  and  C_12
REMARK    3  A    between atoms: O_3  and  C_8
REMARK    4  A    between atoms: O_3  and  C_13
REMARK                            x       y       z     vdW  Elec       q    Type
REMARK                         _______ _______ _______ _____ _____    ______ ____
ROOT
ATOM      2  O   UNL     1      10.257   3.920  -0.255  0.00  0.00    -0.375 OA
ATOM      6  N   UNL     1      12.939   4.104   0.911  0.00  0.00    -0.176 NA
ATOM      7  C   UNL     1      12.036   3.604   1.994  0.00  0.00    +0.156 C 
ATOM      8  C   UNL     1      10.776   4.461   2.088  0.00  0.00    +0.215 C 
ATOM      9  C   UNL     1      12.660   3.446  -0.401  0.00  0.00    +0.137 C 
ATOM     10  C   UNL     1      10.165   4.911   0.763  0.00  0.00    +0.205 C 
ATOM     11  C   UNL     1      11.431   4.061  -1.056  0.00  0.00    +0.177 C 
ENDROOT
BRANCH   6   1
ATOM      1  S   UNL     1      14.596   4.249   1.329  0.00  0.00    +0.029 S 
ATOM      4  O   UNL     1      15.016   3.025   1.972  0.00  0.00    -0.158 OA
ATOM      5  O   UNL     1      14.805   5.543   1.934  0.00  0.00    -0.158 OA
ATOM     12  C   UNL     1      15.292   4.281  -0.302  0.00  0.00    +0.215 C 
ENDBRANCH   6   1
BRANCH   8   3
ATOM      3  O   UNL     1      11.041   5.631   2.862  0.00  0.00    -0.485 OA
BRANCH   3  13
ATOM     13  C   UNL     1      10.123   5.949   3.825  0.00  0.00    +0.121 A 
ATOM     14  C   UNL     1       9.225   6.996   3.614  0.00  0.00    +0.045 A 
ATOM     15  C   UNL     1      10.086   5.228   5.018  0.00  0.00    +0.045 A 
ATOM     16  C   UNL     1       8.288   7.320   4.596  0.00  0.00    +0.004 A 
ATOM     17  C   UNL     1       9.150   5.552   6.000  0.00  0.00    +0.004 A 
ATOM     18  C   UNL     1       8.252   6.598   5.789  0.00  0.00    +0.000 A 
ENDBRANCH   3  13
ENDBRANCH   8   3
TORSDOF 3
ENDMDL
MODEL 7
REMARK VINA RESULT:      -5.6      1.861      2.253
REMARK  Name = 75367677
REMARK  4 active torsions:
REMARK  status: ('A' for Active; 'I' for Inactive)
REMARK    1  A    between atoms: S_1  and  N_6
REMARK    2  A    between atoms: S_1  and  C_12
REMARK    3  A    between atoms: O_3  and  C_8
REMARK    4  A    between atoms: O_3  and  C_13
REMARK                            x       y       z     vdW  Elec       q    Type
REMARK                         _______ _______ _______ _____ _____    ______ ____
ROOT
ATOM      2  O   UNL     1      -5.464   2.651  25.275  0.00  0.00    -0.375 OA
ATOM      6  N   UNL     1      -2.640   3.311  24.855  0.00  0.00    -0.176 NA
ATOM      7  C   UNL     1      -3.261   3.207  23.497  0.00  0.00    +0.156 C 
ATOM      8  C   UNL     1      -4.082   1.925  23.375  0.00  0.00    +0.215 C 
ATOM      9  C   UNL     1      -3.518   4.042  25.818  0.00  0.00    +0.137 C 
ATOM     10  C   UNL     1      -4.905   1.530  24.598  0.00  0.00    +0.205 C 
ATOM     11  C   UNL     1      -4.626   3.132  26.327  0.00  0.00    +0.177 C 
ENDROOT
BRANCH   6   1
ATOM      1  S   UNL     1      -0.983   3.749  24.885  0.00  0.00    +0.029 S 
ATOM      4  O   UNL     1      -0.886   5.162  25.167  0.00  0.00    -0.158 OA
ATOM      5  O   UNL     1      -0.329   3.149  23.746  0.00  0.00    -0.158 OA
ATOM     12  C   UNL     1      -0.488   2.862  26.339  0.00  0.00    +0.215 C 
ENDBRANCH   6   1
BRANCH   8   3
ATOM      3  O   UNL     1      -3.224   0.828  23.058  0.00  0.00    -0.485 OA
BRANCH   3  13
ATOM     13  C   UNL     1      -3.232  -0.227  23.929  0.00  0.00    +0.121 A 
ATOM     14  C   UNL     1      -2.519  -0.149  25.125  0.00  0.00    +0.045 A 
ATOM     15  C   UNL     1      -3.953  -1.381  23.620  0.00  0.00    +0.045 A 
ATOM     16  C   UNL     1      -2.528  -1.225  26.015  0.00  0.00    +0.004 A 
ATOM     17  C   UNL     1      -3.962  -2.456  24.508  0.00  0.00    +0.004 A 
ATOM     18  C   UNL     1      -3.249  -2.378  25.705  0.00  0.00    +0.000 A 
ENDBRANCH   3  13
ENDBRANCH   8   3
TORSDOF 3
ENDMDL
MODEL 8
REMARK VINA RESULT:      -5.4     13.964     15.382
REMARK  Name = 75367677
REMARK  4 active torsions:
REMARK  status: ('A' for Active; 'I' for Inactive)
REMARK    1  A    between atoms: S_1  and  N_6
REMARK    2  A    between atoms: S_1  and  C_12
REMARK    3  A    between atoms: O_3  and  C_8
REMARK    4  A    between atoms: O_3  and  C_13
REMARK                            x       y       z     vdW  Elec       q    Type
REMARK                         _______ _______ _______ _____ _____    ______ ____
ROOT
ATOM      2  O   UNL     1      -8.668  -9.315  15.189  0.00  0.00    -0.375 OA
ATOM      6  N   UNL     1      -7.809 -10.352  17.792  0.00  0.00    -0.176 NA
ATOM      7  C   UNL     1      -6.673  -9.535  17.262  0.00  0.00    +0.156 C 
ATOM      8  C   UNL     1      -6.364  -9.910  15.814  0.00  0.00    +0.215 C 
ATOM      9  C   UNL     1      -9.129  -9.689  17.569  0.00  0.00    +0.137 C 
ATOM     10  C   UNL     1      -7.569 -10.177  14.914  0.00  0.00    +0.205 C 
ATOM     11  C   UNL     1      -9.585  -9.876  16.129  0.00  0.00    +0.177 C 
ENDROOT
BRANCH   6   1
ATOM      1  S   UNL     1      -7.575 -11.033  19.348  0.00  0.00    +0.029 S 
ATOM      4  O   UNL     1      -8.867 -11.221  19.966  0.00  0.00    -0.158 OA
ATOM      5  O   UNL     1      -6.508 -10.317  20.006  0.00  0.00    -0.158 OA
ATOM     12  C   UNL     1      -6.958 -12.625  18.865  0.00  0.00    +0.215 C 
ENDBRANCH   6   1
BRANCH   8   3
ATOM      3  O   UNL     1      -5.534 -11.071  15.780  0.00  0.00    -0.485 OA
BRANCH   3  13
ATOM     13  C   UNL     1      -4.215 -10.872  15.472  0.00  0.00    +0.121 A 
ATOM     14  C   UNL     1      -3.828 -10.700  14.144  0.00  0.00    +0.045 A 
ATOM     15  C   UNL     1      -3.259 -10.843  16.487  0.00  0.00    +0.045 A 
ATOM     16  C   UNL     1      -2.484 -10.495  13.829  0.00  0.00    +0.004 A 
ATOM     17  C   UNL     1      -1.916 -10.639  16.174  0.00  0.00    +0.004 A 
ATOM     18  C   UNL     1      -1.528 -10.466  14.845  0.00  0.00    +0.000 A 
ENDBRANCH   3  13
ENDBRANCH   8   3
TORSDOF 3
ENDMDL
MODEL 9
REMARK VINA RESULT:      -5.4     14.489     15.919
REMARK  Name = 75367677
REMARK  4 active torsions:
REMARK  status: ('A' for Active; 'I' for Inactive)
REMARK    1  A    between atoms: S_1  and  N_6
REMARK    2  A    between atoms: S_1  and  C_12
REMARK    3  A    between atoms: O_3  and  C_8
REMARK    4  A    between atoms: O_3  and  C_13
REMARK                            x       y       z     vdW  Elec       q    Type
REMARK                         _______ _______ _______ _____ _____    ______ ____
ROOT
ATOM      2  O   UNL     1      -6.696 -10.293  12.870  0.00  0.00    -0.375 OA
ATOM      6  N   UNL     1      -3.789 -10.555  13.125  0.00  0.00    -0.176 NA
ATOM      7  C   UNL     1      -4.391 -11.509  14.107  0.00  0.00    +0.156 C 
ATOM      8  C   UNL     1      -5.473 -10.822  14.937  0.00  0.00    +0.215 C 
ATOM      9  C   UNL     1      -4.502 -10.577  11.812  0.00  0.00    +0.137 C 
ATOM     10  C   UNL     1      -6.387  -9.854  14.189  0.00  0.00    +0.205 C 
ATOM     11  C   UNL     1      -5.794  -9.776  11.892  0.00  0.00    +0.177 C 
ENDROOT
BRANCH   6   1
ATOM      1  S   UNL     1      -2.077 -10.556  13.038  0.00  0.00    +0.029 S 
ATOM      4  O   UNL     1      -1.556  -9.940  14.236  0.00  0.00    -0.158 OA
ATOM      5  O   UNL     1      -1.684 -10.119  11.719  0.00  0.00    -0.158 OA
ATOM     12  C   UNL     1      -1.794 -12.304  13.150  0.00  0.00    +0.215 C 
ENDBRANCH   6   1
BRANCH   8   3
ATOM      3  O   UNL     1      -4.874 -10.103  16.016  0.00  0.00    -0.485 OA
BRANCH   3  13
ATOM     13  C   UNL     1      -5.143 -10.557  17.278  0.00  0.00    +0.121 A 
ATOM     14  C   UNL     1      -4.249 -11.416  17.917  0.00  0.00    +0.045 A 
ATOM     15  C   UNL     1      -6.314 -10.162  17.926  0.00  0.00    +0.045 A 
ATOM     16  C   UNL     1      -4.524 -11.879  19.204  0.00  0.00    +0.004 A 
ATOM     17  C   UNL     1      -6.589 -10.624  19.212  0.00  0.00    +0.004 A 
ATOM     18  C   UNL     1      -5.695 -11.483  19.851  0.00  0.00    +0.000 A 
ENDBRANCH   3  13
ENDBRANCH   8   3
TORSDOF 3
ENDMDL
MODEL 10
REMARK VINA RESULT:      -5.2     25.096     26.967
REMARK  Name = 75367677
REMARK  4 active torsions:
REMARK  status: ('A' for Active; 'I' for Inactive)
REMARK    1  A    between atoms: S_1  and  N_6
REMARK    2  A    between atoms: S_1  and  C_12
REMARK    3  A    between atoms: O_3  and  C_8
REMARK    4  A    between atoms: O_3  and  C_13
REMARK                            x       y       z     vdW  Elec       q    Type
REMARK                         _______ _______ _______ _____ _____    ______ ____
ROOT
ATOM      2  O   UNL     1      13.794   7.951   2.890  0.00  0.00    -0.375 OA
ATOM      6  N   UNL     1      13.734   5.184   1.928  0.00  0.00    -0.176 NA
ATOM      7  C   UNL     1      12.377   5.757   1.663  0.00  0.00    +0.156 C 
ATOM      8  C   UNL     1      11.836   6.463   2.904  0.00  0.00    +0.215 C 
ATOM      9  C   UNL     1      14.826   6.146   1.589  0.00  0.00    +0.137 C 
ATOM     10  C   UNL     1      12.842   7.281   3.710  0.00  0.00    +0.205 C 
ATOM     11  C   UNL     1      14.983   7.185   2.689  0.00  0.00    +0.177 C 
ENDROOT
BRANCH   6   1
ATOM      1  S   UNL     1      13.977   3.571   1.399  0.00  0.00    +0.029 S 
ATOM      4  O   UNL     1      12.746   2.838   1.578  0.00  0.00    -0.158 OA
ATOM      5  O   UNL     1      15.234   3.099   1.931  0.00  0.00    -0.158 OA
ATOM     12  C   UNL     1      14.190   3.877  -0.336  0.00  0.00    +0.215 C 
ENDBRANCH   6   1
BRANCH   8   3
ATOM      3  O   UNL     1      11.249   5.506   3.788  0.00  0.00    -0.485 OA
BRANCH   3  13
ATOM     13  C   UNL     1      10.280   5.970   4.635  0.00  0.00    +0.121 A 
ATOM     14  C   UNL     1      10.364   5.705   6.002  0.00  0.00    +0.045 A 
ATOM     15  C   UNL     1       9.208   6.706   4.132  0.00  0.00    +0.045 A 
ATOM     16  C   UNL     1       9.376   6.179   6.867  0.00  0.00    +0.004 A 
ATOM     17  C   UNL     1       8.220   7.179   4.995  0.00  0.00    +0.004 A 
ATOM     18  C   UNL     1       8.304   6.915   6.362  0.00  0.00    +0.000 A 
ENDBRANCH   3  13
ENDBRANCH   8   3
TORSDOF 3
ENDMDL
