MODEL 1
REMARK VINA RESULT:      -8.2      0.000      0.000
REMARK  Name = 51136827
REMARK  5 active torsions:
REMARK  status: ('A' for Active; 'I' for Inactive)
REMARK    1  A    between atoms: N_4  and  C_14
REMARK    2  A    between atoms: C_10  and  C_15
REMARK    3  A    between atoms: C_14  and  C_18
REMARK    4  A    between atoms: C_22  and  C_23
REMARK    5  A    between atoms: C_26  and  C_30
REMARK                            x       y       z     vdW  Elec       q    Type
REMARK                         _______ _______ _______ _____ _____    ______ ____
ROOT
ATOM      2  O   UNL     1      15.342   6.200  18.680  0.00  0.00    -0.336 OA
ATOM      7  N   UNL     1      15.599   7.374  20.570  0.00  0.00    -0.190 NA
ATOM      8  N   UNL     1      16.709   6.153  18.985  0.00  0.00    -0.056 NA
ATOM     15  C   UNL     1      14.763   6.938  19.662  0.00  0.00    +0.245 A 
ATOM     22  C   UNL     1      16.781   6.867  20.112  0.00  0.00    +0.202 A 
ENDROOT
BRANCH  22  23
ATOM      3  O   UNL     1      24.349   1.569  20.714  0.00  0.00    -0.276 OA
ATOM      5  N   UNL     1      21.309   5.586  21.162  0.00  0.00    -0.312 N 
ATOM      6  N   UNL     1      23.484   3.725  20.731  0.00  0.00    -0.299 N 
ATOM      9  N   UNL     1      20.427   7.541  22.151  0.00  0.00    -0.240 NA
ATOM     16  C   UNL     1      22.700   6.033  21.262  0.00  0.00    +0.125 C 
ATOM     17  C   UNL     1      21.054   4.164  20.918  0.00  0.00    +0.125 C 
ATOM     19  C   UNL     1      23.616   5.149  20.413  0.00  0.00    +0.126 C 
ATOM     20  C   UNL     1      22.239   3.316  21.376  0.00  0.00    +0.126 C 
ATOM     21  C   UNL     1      20.254   6.479  21.332  0.00  0.00    +0.122 A 
ATOM     23  C   UNL     1      18.018   7.095  20.804  0.00  0.00    +0.027 A 
ATOM     25  C   UNL     1      19.081   6.214  20.643  0.00  0.00    +0.055 A 
ATOM     26  C   UNL     1      24.458   2.768  20.447  0.00  0.00    +0.213 C 
ATOM     27  C   UNL     1      18.157   8.199  21.637  0.00  0.00    +0.031 A 
ATOM     30  C   UNL     1      25.710   3.271  19.772  0.00  0.00    +0.109 C 
ATOM     31  C   UNL     1      19.372   8.376  22.281  0.00  0.00    +0.113 A 
ENDBRANCH  22  23
BRANCH  15  10
ATOM      4  N   UNL     1      12.809   8.363  20.249  0.00  0.00    -0.287 NA
ATOM     10  C   UNL     1      13.265   7.139  19.560  0.00  0.00    +0.146 C 
ATOM     11  C   UNL     1      12.785   7.305  18.107  0.00  0.00    +0.030 C 
ATOM     12  C   UNL     1      12.018   8.619  18.089  0.00  0.00    +0.017 C 
ATOM     13  C   UNL     1      11.615   8.817  19.536  0.00  0.00    +0.085 C 
BRANCH   4  14
ATOM     14  C   UNL     1      12.557   8.163  21.670  0.00  0.00    +0.127 C 
BRANCH  14  18
ATOM      1  S   UNL     1      13.276  10.731  22.460  0.00  0.00    -0.100 S 
ATOM     18  C   UNL     1      12.153   9.443  22.352  0.00  0.00    +0.004 A 
ATOM     24  C   UNL     1      10.948   9.757  22.940  0.00  0.00    +0.012 A 
ATOM     28  C   UNL     1      10.946  11.073  23.486  0.00  0.00    +0.008 A 
ATOM     29  C   UNL     1      12.150  11.715  23.295  0.00  0.00    +0.045 A 
ENDBRANCH  14  18
ENDBRANCH   4  14
ENDBRANCH  15  10
TORSDOF 4
ENDMDL
MODEL 2
REMARK VINA RESULT:      -7.6     27.101     31.407
REMARK  Name = 51136827
REMARK  5 active torsions:
REMARK  status: ('A' for Active; 'I' for Inactive)
REMARK    1  A    between atoms: N_4  and  C_14
REMARK    2  A    between atoms: C_10  and  C_15
REMARK    3  A    between atoms: C_14  and  C_18
REMARK    4  A    between atoms: C_22  and  C_23
REMARK    5  A    between atoms: C_26  and  C_30
REMARK                            x       y       z     vdW  Elec       q    Type
REMARK                         _______ _______ _______ _____ _____    ______ ____
ROOT
ATOM      2  O   UNL     1      -4.340 -13.262  15.403  0.00  0.00    -0.336 OA
ATOM      7  N   UNL     1      -4.567 -11.294  16.449  0.00  0.00    -0.190 NA
ATOM      8  N   UNL     1      -5.528 -13.348  16.143  0.00  0.00    -0.056 NA
ATOM     15  C   UNL     1      -3.839 -12.021  15.640  0.00  0.00    +0.245 A 
ATOM     22  C   UNL     1      -5.592 -12.150  16.731  0.00  0.00    +0.202 A 
ENDROOT
BRANCH  22  23
ATOM      3  O   UNL     1     -12.259  -5.819  15.640  0.00  0.00    -0.276 OA
ATOM      5  N   UNL     1      -9.627  -9.662  17.611  0.00  0.00    -0.312 N 
ATOM      6  N   UNL     1     -11.639  -7.836  16.612  0.00  0.00    -0.299 N 
ATOM      9  N   UNL     1      -8.760 -11.052  19.312  0.00  0.00    -0.240 NA
ATOM     16  C   UNL     1     -11.003  -9.726  18.111  0.00  0.00    +0.125 C 
ATOM     17  C   UNL     1      -9.285  -8.604  16.657  0.00  0.00    +0.125 C 
ATOM     19  C   UNL     1     -11.984  -9.184  17.069  0.00  0.00    +0.126 C 
ATOM     20  C   UNL     1     -10.248  -7.426  16.789  0.00  0.00    +0.126 C 
ATOM     21  C   UNL     1      -8.659 -10.558  18.058  0.00  0.00    +0.122 A 
ATOM     23  C   UNL     1      -6.666 -11.777  17.607  0.00  0.00    +0.027 A 
ATOM     25  C   UNL     1      -7.641 -10.885  17.175  0.00  0.00    +0.055 A 
ATOM     26  C   UNL     1     -12.546  -6.955  16.025  0.00  0.00    +0.213 C 
ATOM     27  C   UNL     1      -6.736 -12.307  18.890  0.00  0.00    +0.031 A 
ATOM     30  C   UNL     1     -13.961  -7.458  15.870  0.00  0.00    +0.109 C 
ATOM     31  C   UNL     1      -7.794 -11.917  19.696  0.00  0.00    +0.113 A 
ENDBRANCH  22  23
BRANCH  15  10
ATOM      4  N   UNL     1      -2.723 -10.697  13.853  0.00  0.00    -0.287 NA
ATOM     10  C   UNL     1      -2.539 -11.675  14.944  0.00  0.00    +0.146 C 
ATOM     11  C   UNL     1      -1.515 -11.019  15.889  0.00  0.00    +0.030 C 
ATOM     12  C   UNL     1      -1.136  -9.707  15.216  0.00  0.00    +0.017 C 
ATOM     13  C   UNL     1      -1.472  -9.944  13.758  0.00  0.00    +0.085 C 
BRANCH   4  14
ATOM     14  C   UNL     1      -3.090 -11.314  12.585  0.00  0.00    +0.127 C 
BRANCH  14  18
ATOM      1  S   UNL     1      -5.229  -9.674  11.901  0.00  0.00    -0.100 S 
ATOM     18  C   UNL     1      -3.665 -10.312  11.620  0.00  0.00    +0.004 A 
ATOM     24  C   UNL     1      -3.095  -9.798  10.477  0.00  0.00    +0.012 A 
ATOM     28  C   UNL     1      -3.953  -8.867   9.823  0.00  0.00    +0.008 A 
ATOM     29  C   UNL     1      -5.147  -8.706  10.492  0.00  0.00    +0.045 A 
ENDBRANCH  14  18
ENDBRANCH   4  14
ENDBRANCH  15  10
TORSDOF 4
ENDMDL
MODEL 3
REMARK VINA RESULT:      -7.6      3.174     10.727
REMARK  Name = 51136827
REMARK  5 active torsions:
REMARK  status: ('A' for Active; 'I' for Inactive)
REMARK    1  A    between atoms: N_4  and  C_14
REMARK    2  A    between atoms: C_10  and  C_15
REMARK    3  A    between atoms: C_14  and  C_18
REMARK    4  A    between atoms: C_22  and  C_23
REMARK    5  A    between atoms: C_26  and  C_30
REMARK                            x       y       z     vdW  Elec       q    Type
REMARK                         _______ _______ _______ _____ _____    ______ ____
ROOT
ATOM      2  O   UNL     1      21.747   3.695  20.619  0.00  0.00    -0.336 OA
ATOM      7  N   UNL     1      21.473   4.895  22.489  0.00  0.00    -0.190 NA
ATOM      8  N   UNL     1      20.857   4.727  20.293  0.00  0.00    -0.056 NA
ATOM     15  C   UNL     1      22.060   3.868  21.929  0.00  0.00    +0.245 A 
ATOM     22  C   UNL     1      20.746   5.391  21.446  0.00  0.00    +0.202 A 
ENDROOT
BRANCH  22  23
ATOM      3  O   UNL     1      11.933   6.777  18.970  0.00  0.00    -0.276 OA
ATOM      5  N   UNL     1      16.455   7.562  21.096  0.00  0.00    -0.312 N 
ATOM      6  N   UNL     1      13.645   7.329  20.441  0.00  0.00    -0.299 N 
ATOM      9  N   UNL     1      18.298   8.815  21.878  0.00  0.00    -0.240 NA
ATOM     16  C   UNL     1      15.461   8.395  21.778  0.00  0.00    +0.125 C 
ATOM     17  C   UNL     1      15.996   6.673  20.026  0.00  0.00    +0.125 C 
ATOM     19  C   UNL     1      14.092   7.711  21.783  0.00  0.00    +0.126 C 
ATOM     20  C   UNL     1      14.685   7.178  19.428  0.00  0.00    +0.126 C 
ATOM     21  C   UNL     1      17.806   7.640  21.427  0.00  0.00    +0.122 A 
ATOM     23  C   UNL     1      19.915   6.553  21.592  0.00  0.00    +0.027 A 
ATOM     25  C   UNL     1      18.565   6.491  21.267  0.00  0.00    +0.055 A 
ATOM     26  C   UNL     1      12.312   7.099  20.099  0.00  0.00    +0.213 C 
ATOM     27  C   UNL     1      20.458   7.744  22.059  0.00  0.00    +0.031 A 
ATOM     30  C   UNL     1      11.301   7.266  21.206  0.00  0.00    +0.109 C 
ATOM     31  C   UNL     1      19.614   8.837  22.184  0.00  0.00    +0.113 A 
ENDBRANCH  22  23
BRANCH  15  10
ATOM      4  N   UNL     1      24.432   3.173  22.216  0.00  0.00    -0.287 NA
ATOM     10  C   UNL     1      23.022   2.865  22.531  0.00  0.00    +0.146 C 
ATOM     11  C   UNL     1      22.963   2.833  24.069  0.00  0.00    +0.030 C 
ATOM     12  C   UNL     1      24.394   3.071  24.528  0.00  0.00    +0.017 C 
ATOM     13  C   UNL     1      25.226   2.657  23.331  0.00  0.00    +0.085 C 
BRANCH   4  14
ATOM     14  C   UNL     1      24.866   2.631  20.936  0.00  0.00    +0.127 C 
BRANCH  14  18
ATOM      1  S   UNL     1      25.161   5.317  20.281  0.00  0.00    -0.100 S 
ATOM     18  C   UNL     1      25.571   3.665  20.099  0.00  0.00    +0.004 A 
ATOM     24  C   UNL     1      26.553   3.477  19.152  0.00  0.00    +0.012 A 
ATOM     28  C   UNL     1      26.976   4.706  18.568  0.00  0.00    +0.008 A 
ATOM     29  C   UNL     1      26.299   5.787  19.091  0.00  0.00    +0.045 A 
ENDBRANCH  14  18
ENDBRANCH   4  14
ENDBRANCH  15  10
TORSDOF 4
ENDMDL
MODEL 4
REMARK VINA RESULT:      -7.3     30.197     33.033
REMARK  Name = 51136827
REMARK  5 active torsions:
REMARK  status: ('A' for Active; 'I' for Inactive)
REMARK    1  A    between atoms: N_4  and  C_14
REMARK    2  A    between atoms: C_10  and  C_15
REMARK    3  A    between atoms: C_14  and  C_18
REMARK    4  A    between atoms: C_22  and  C_23
REMARK    5  A    between atoms: C_26  and  C_30
REMARK                            x       y       z     vdW  Elec       q    Type
REMARK                         _______ _______ _______ _____ _____    ______ ____
ROOT
ATOM      2  O   UNL     1     -13.307  10.369  32.794  0.00  0.00    -0.336 OA
ATOM      7  N   UNL     1     -12.428   8.440  32.074  0.00  0.00    -0.190 NA
ATOM      8  N   UNL     1     -13.889   9.361  33.574  0.00  0.00    -0.056 NA
ATOM     15  C   UNL     1     -12.461   9.741  31.937  0.00  0.00    +0.245 A 
ATOM     22  C   UNL     1     -13.320   8.254  33.089  0.00  0.00    +0.202 A 
ENDROOT
BRANCH  22  23
ATOM      3  O   UNL     1     -15.859   0.557  28.614  0.00  0.00    -0.276 OA
ATOM      5  N   UNL     1     -14.367   3.603  32.366  0.00  0.00    -0.312 N 
ATOM      6  N   UNL     1     -14.784   1.459  30.466  0.00  0.00    -0.299 N 
ATOM      9  N   UNL     1     -14.208   4.396  34.585  0.00  0.00    -0.240 NA
ATOM     16  C   UNL     1     -14.041   2.220  32.721  0.00  0.00    +0.125 C 
ATOM     17  C   UNL     1     -14.980   3.856  31.059  0.00  0.00    +0.125 C 
ATOM     19  C   UNL     1     -13.721   1.399  31.471  0.00  0.00    +0.126 C 
ATOM     20  C   UNL     1     -15.688   2.605  30.543  0.00  0.00    +0.126 C 
ATOM     21  C   UNL     1     -14.138   4.648  33.258  0.00  0.00    +0.122 A 
ATOM     23  C   UNL     1     -13.622   6.945  33.597  0.00  0.00    +0.027 A 
ATOM     25  C   UNL     1     -13.852   5.892  32.718  0.00  0.00    +0.055 A 
ATOM     26  C   UNL     1     -14.964   0.509  29.461  0.00  0.00    +0.213 C 
ATOM     27  C   UNL     1     -13.685   6.726  34.968  0.00  0.00    +0.031 A 
ATOM     30  C   UNL     1     -13.983  -0.638  29.445  0.00  0.00    +0.109 C 
ATOM     31  C   UNL     1     -13.978   5.444  35.407  0.00  0.00    +0.113 A 
ENDBRANCH  22  23
BRANCH  15  10
ATOM      4  N   UNL     1     -12.555  11.652  30.346  0.00  0.00    -0.287 NA
ATOM     10  C   UNL     1     -11.697  10.626  30.973  0.00  0.00    +0.146 C 
ATOM     11  C   UNL     1     -10.573  11.423  31.661  0.00  0.00    +0.030 C 
ATOM     12  C   UNL     1     -10.847  12.878  31.313  0.00  0.00    +0.017 C 
ATOM     13  C   UNL     1     -11.687  12.793  30.055  0.00  0.00    +0.085 C 
BRANCH   4  14
ATOM     14  C   UNL     1     -13.248  11.172  29.157  0.00  0.00    +0.127 C 
BRANCH  14  18
ATOM      1  S   UNL     1     -12.455  11.635  26.532  0.00  0.00    -0.100 S 
ATOM     18  C   UNL     1     -12.290  10.846  28.043  0.00  0.00    +0.004 A 
ATOM     24  C   UNL     1     -11.238   9.957  28.050  0.00  0.00    +0.012 A 
ATOM     28  C   UNL     1     -10.558   9.923  26.798  0.00  0.00    +0.008 A 
ATOM     29  C   UNL     1     -11.116  10.787  25.882  0.00  0.00    +0.045 A 
ENDBRANCH  14  18
ENDBRANCH   4  14
ENDBRANCH  15  10
TORSDOF 4
ENDMDL
MODEL 5
REMARK VINA RESULT:      -7.3     27.539     31.051
REMARK  Name = 51136827
REMARK  5 active torsions:
REMARK  status: ('A' for Active; 'I' for Inactive)
REMARK    1  A    between atoms: N_4  and  C_14
REMARK    2  A    between atoms: C_10  and  C_15
REMARK    3  A    between atoms: C_14  and  C_18
REMARK    4  A    between atoms: C_22  and  C_23
REMARK    5  A    between atoms: C_26  and  C_30
REMARK                            x       y       z     vdW  Elec       q    Type
REMARK                         _______ _______ _______ _____ _____    ______ ____
ROOT
ATOM      2  O   UNL     1      -2.018 -10.728  14.916  0.00  0.00    -0.336 OA
ATOM      7  N   UNL     1      -4.236 -10.966  14.718  0.00  0.00    -0.190 NA
ATOM      8  N   UNL     1      -2.535 -10.660  16.217  0.00  0.00    -0.056 NA
ATOM     15  C   UNL     1      -3.086 -10.909  14.096  0.00  0.00    +0.245 A 
ATOM     22  C   UNL     1      -3.847 -10.808  16.017  0.00  0.00    +0.202 A 
ENDROOT
BRANCH  22  23
ATOM      3  O   UNL     1     -12.404  -7.294  16.400  0.00  0.00    -0.276 OA
ATOM      5  N   UNL     1      -8.259  -9.873  17.722  0.00  0.00    -0.312 N 
ATOM      6  N   UNL     1     -10.937  -8.919  17.178  0.00  0.00    -0.299 N 
ATOM      9  N   UNL     1      -6.650 -10.794  19.186  0.00  0.00    -0.240 NA
ATOM     16  C   UNL     1      -9.402 -10.397  18.474  0.00  0.00    +0.125 C 
ATOM     17  C   UNL     1      -8.501  -8.803  16.751  0.00  0.00    +0.125 C 
ATOM     19  C   UNL     1     -10.689 -10.282  17.654  0.00  0.00    +0.126 C 
ATOM     20  C   UNL     1      -9.776  -8.037  17.097  0.00  0.00    +0.126 C 
ATOM     21  C   UNL     1      -6.970 -10.349  17.950  0.00  0.00    +0.122 A 
ATOM     23  C   UNL     1      -4.798 -10.803  17.092  0.00  0.00    +0.027 A 
ATOM     25  C   UNL     1      -6.089 -10.332  16.880  0.00  0.00    +0.055 A 
ATOM     26  C   UNL     1     -12.192  -8.441  16.800  0.00  0.00    +0.213 C 
ATOM     27  C   UNL     1      -4.432 -11.269  18.349  0.00  0.00    +0.031 A 
ATOM     30  C   UNL     1     -13.337  -9.418  16.905  0.00  0.00    +0.109 C 
ATOM     31  C   UNL     1      -5.387 -11.245  19.354  0.00  0.00    +0.113 A 
ENDBRANCH  22  23
BRANCH  15  10
ATOM      4  N   UNL     1      -3.834 -10.393  11.780  0.00  0.00    -0.287 NA
ATOM     10  C   UNL     1      -2.787 -11.016  12.615  0.00  0.00    +0.146 C 
ATOM     11  C   UNL     1      -1.487 -10.294  12.216  0.00  0.00    +0.030 C 
ATOM     12  C   UNL     1      -1.890  -9.329  11.110  0.00  0.00    +0.017 C 
ATOM     13  C   UNL     1      -3.168  -9.930  10.562  0.00  0.00    +0.085 C 
BRANCH   4  14
ATOM     14  C   UNL     1      -4.947 -11.288  11.490  0.00  0.00    +0.127 C 
BRANCH  14  18
ATOM      1  S   UNL     1      -6.791  -9.209  11.595  0.00  0.00    -0.100 S 
ATOM     18  C   UNL     1      -6.087 -10.566  10.824  0.00  0.00    +0.004 A 
ATOM     24  C   UNL     1      -6.690 -10.845   9.618  0.00  0.00    +0.012 A 
ATOM     28  C   UNL     1      -7.744  -9.933   9.321  0.00  0.00    +0.008 A 
ATOM     29  C   UNL     1      -7.906  -8.991  10.314  0.00  0.00    +0.045 A 
ENDBRANCH  14  18
ENDBRANCH   4  14
ENDBRANCH  15  10
TORSDOF 4
ENDMDL
MODEL 6
REMARK VINA RESULT:      -7.2     28.186     30.649
REMARK  Name = 51136827
REMARK  5 active torsions:
REMARK  status: ('A' for Active; 'I' for Inactive)
REMARK    1  A    between atoms: N_4  and  C_14
REMARK    2  A    between atoms: C_10  and  C_15
REMARK    3  A    between atoms: C_14  and  C_18
REMARK    4  A    between atoms: C_22  and  C_23
REMARK    5  A    between atoms: C_26  and  C_30
REMARK                            x       y       z     vdW  Elec       q    Type
REMARK                         _______ _______ _______ _____ _____    ______ ____
ROOT
ATOM      2  O   UNL     1      -4.297 -12.139  16.894  0.00  0.00    -0.336 OA
ATOM      7  N   UNL     1      -4.844 -10.242  15.835  0.00  0.00    -0.190 NA
ATOM      8  N   UNL     1      -3.679 -12.202  15.638  0.00  0.00    -0.056 NA
ATOM     15  C   UNL     1      -4.962 -10.954  16.927  0.00  0.00    +0.245 A 
ATOM     22  C   UNL     1      -4.048 -11.049  15.073  0.00  0.00    +0.202 A 
ENDROOT
BRANCH  22  23
ATOM      3  O   UNL     1      -9.140  -9.104   7.590  0.00  0.00    -0.276 OA
ATOM      5  N   UNL     1      -5.111  -9.556  10.613  0.00  0.00    -0.312 N 
ATOM      6  N   UNL     1      -7.153  -8.732   8.735  0.00  0.00    -0.299 N 
ATOM      9  N   UNL     1      -2.848  -9.935  11.172  0.00  0.00    -0.240 NA
ATOM     16  C   UNL     1      -4.801  -8.593   9.554  0.00  0.00    +0.125 C 
ATOM     17  C   UNL     1      -6.453 -10.144  10.644  0.00  0.00    +0.125 C 
ATOM     19  C   UNL     1      -6.060  -7.838   9.123  0.00  0.00    +0.126 C 
ATOM     20  C   UNL     1      -7.097 -10.093   9.260  0.00  0.00    +0.126 C 
ATOM     21  C   UNL     1      -4.147  -9.934  11.545  0.00  0.00    +0.122 A 
ATOM     23  C   UNL     1      -3.641 -10.672  13.749  0.00  0.00    +0.027 A 
ATOM     25  C   UNL     1      -4.591 -10.291  12.809  0.00  0.00    +0.055 A 
ATOM     26  C   UNL     1      -8.219  -8.353   7.919  0.00  0.00    +0.213 C 
ATOM     27  C   UNL     1      -2.295 -10.685  13.403  0.00  0.00    +0.031 A 
ATOM     30  C   UNL     1      -8.207  -6.927   7.425  0.00  0.00    +0.109 C 
ATOM     31  C   UNL     1      -1.953 -10.311  12.113  0.00  0.00    +0.113 A 
ENDBRANCH  22  23
BRANCH  15  10
ATOM      4  N   UNL     1      -7.185 -10.636  17.998  0.00  0.00    -0.287 NA
ATOM     10  C   UNL     1      -5.722 -10.643  18.200  0.00  0.00    +0.146 C 
ATOM     11  C   UNL     1      -5.484 -11.688  19.305  0.00  0.00    +0.030 C 
ATOM     12  C   UNL     1      -6.872 -12.168  19.705  0.00  0.00    +0.017 C 
ATOM     13  C   UNL     1      -7.779 -11.033  19.275  0.00  0.00    +0.085 C 
BRANCH   4  14
ATOM     14  C   UNL     1      -7.695  -9.354  17.531  0.00  0.00    +0.127 C 
BRANCH  14  18
ATOM      1  S   UNL     1      -9.762  -8.386  15.942  0.00  0.00    -0.100 S 
ATOM     18  C   UNL     1      -8.500  -9.497  16.268  0.00  0.00    +0.004 A 
ATOM     24  C   UNL     1      -8.375 -10.442  15.274  0.00  0.00    +0.012 A 
ATOM     28  C   UNL     1      -9.325 -10.251  14.230  0.00  0.00    +0.008 A 
ATOM     29  C   UNL     1     -10.142  -9.167  14.467  0.00  0.00    +0.045 A 
ENDBRANCH  14  18
ENDBRANCH   4  14
ENDBRANCH  15  10
TORSDOF 4
ENDMDL
MODEL 7
REMARK VINA RESULT:      -7.1     30.353     33.076
REMARK  Name = 51136827
REMARK  5 active torsions:
REMARK  status: ('A' for Active; 'I' for Inactive)
REMARK    1  A    between atoms: N_4  and  C_14
REMARK    2  A    between atoms: C_10  and  C_15
REMARK    3  A    between atoms: C_14  and  C_18
REMARK    4  A    between atoms: C_22  and  C_23
REMARK    5  A    between atoms: C_26  and  C_30
REMARK                            x       y       z     vdW  Elec       q    Type
REMARK                         _______ _______ _______ _____ _____    ______ ____
ROOT
ATOM      2  O   UNL     1     -12.892   9.926  31.670  0.00  0.00    -0.336 OA
ATOM      7  N   UNL     1     -12.270   9.057  33.638  0.00  0.00    -0.190 NA
ATOM      8  N   UNL     1     -13.516   8.675  31.758  0.00  0.00    -0.056 NA
ATOM     15  C   UNL     1     -12.178  10.072  32.818  0.00  0.00    +0.245 A 
ATOM     22  C   UNL     1     -13.101   8.225  32.945  0.00  0.00    +0.202 A 
ENDROOT
BRANCH  22  23
ATOM      3  O   UNL     1     -15.903   0.579  28.540  0.00  0.00    -0.276 OA
ATOM      5  N   UNL     1     -14.383   3.624  32.281  0.00  0.00    -0.312 N 
ATOM      6  N   UNL     1     -14.850   1.463  30.413  0.00  0.00    -0.299 N 
ATOM      9  N   UNL     1     -14.264   4.460  34.487  0.00  0.00    -0.240 NA
ATOM     16  C   UNL     1     -14.150   2.234  32.679  0.00  0.00    +0.125 C 
ATOM     17  C   UNL     1     -14.930   3.880  30.946  0.00  0.00    +0.125 C 
ATOM     19  C   UNL     1     -13.830   1.367  31.460  0.00  0.00    +0.126 C 
ATOM     20  C   UNL     1     -15.688   2.659  30.430  0.00  0.00    +0.126 C 
ATOM     21  C   UNL     1     -14.129   4.675  33.159  0.00  0.00    +0.122 A 
ATOM     23  C   UNL     1     -13.496   6.947  33.468  0.00  0.00    +0.027 A 
ATOM     25  C   UNL     1     -13.752   5.888  32.604  0.00  0.00    +0.055 A 
ATOM     26  C   UNL     1     -15.045   0.501  29.422  0.00  0.00    +0.213 C 
ATOM     27  C   UNL     1     -13.624   6.765  34.840  0.00  0.00    +0.031 A 
ATOM     30  C   UNL     1     -14.131  -0.700  29.469  0.00  0.00    +0.109 C 
ATOM     31  C   UNL     1     -14.006   5.512  35.295  0.00  0.00    +0.113 A 
ENDBRANCH  22  23
BRANCH  15  10
ATOM      4  N   UNL     1     -10.140  11.182  33.714  0.00  0.00    -0.287 NA
ATOM     10  C   UNL     1     -11.402  11.363  32.969  0.00  0.00    +0.146 C 
ATOM     11  C   UNL     1     -10.974  11.962  31.617  0.00  0.00    +0.030 C 
ATOM     12  C   UNL     1      -9.466  12.139  31.718  0.00  0.00    +0.017 C 
ATOM     13  C   UNL     1      -9.213  12.195  33.211  0.00  0.00    +0.085 C 
BRANCH   4  14
ATOM     14  C   UNL     1     -10.309  11.263  35.159  0.00  0.00    +0.127 C 
BRANCH  14  18
ATOM      1  S   UNL     1      -7.989   9.889  35.842  0.00  0.00    -0.100 S 
ATOM     18  C   UNL     1      -9.691  10.084  35.863  0.00  0.00    +0.004 A 
ATOM     24  C   UNL     1     -10.318   9.077  36.562  0.00  0.00    +0.012 A 
ATOM     28  C   UNL     1      -9.390   8.133  37.089  0.00  0.00    +0.008 A 
ATOM     29  C   UNL     1      -8.089   8.454  36.771  0.00  0.00    +0.045 A 
ENDBRANCH  14  18
ENDBRANCH   4  14
ENDBRANCH  15  10
TORSDOF 4
ENDMDL
MODEL 8
REMARK VINA RESULT:      -7.0     27.170     30.435
REMARK  Name = 51136827
REMARK  5 active torsions:
REMARK  status: ('A' for Active; 'I' for Inactive)
REMARK    1  A    between atoms: N_4  and  C_14
REMARK    2  A    between atoms: C_10  and  C_15
REMARK    3  A    between atoms: C_14  and  C_18
REMARK    4  A    between atoms: C_22  and  C_23
REMARK    5  A    between atoms: C_26  and  C_30
REMARK                            x       y       z     vdW  Elec       q    Type
REMARK                         _______ _______ _______ _____ _____    ______ ____
ROOT
ATOM      2  O   UNL     1      -2.557 -10.022  10.610  0.00  0.00    -0.336 OA
ATOM      7  N   UNL     1      -4.184 -10.212  12.138  0.00  0.00    -0.190 NA
ATOM      8  N   UNL     1      -1.915 -10.207  11.842  0.00  0.00    -0.056 NA
ATOM     15  C   UNL     1      -3.890 -10.037  10.874  0.00  0.00    +0.245 A 
ATOM     22  C   UNL     1      -2.940 -10.311  12.692  0.00  0.00    +0.202 A 
ENDROOT
BRANCH  22  23
ATOM      3  O   UNL     1      -9.190 -10.932  19.494  0.00  0.00    -0.276 OA
ATOM      5  N   UNL     1      -4.741 -11.100  17.094  0.00  0.00    -0.312 N 
ATOM      6  N   UNL     1      -7.086 -11.554  18.730  0.00  0.00    -0.299 N 
ATOM      9  N   UNL     1      -2.400 -10.908  16.846  0.00  0.00    -0.240 NA
ATOM     16  C   UNL     1      -4.654 -11.915  18.309  0.00  0.00    +0.125 C 
ATOM     17  C   UNL     1      -6.021 -10.462  16.778  0.00  0.00    +0.125 C 
ATOM     19  C   UNL     1      -6.009 -12.543  18.638  0.00  0.00    +0.126 C 
ATOM     20  C   UNL     1      -6.863 -10.286  18.041  0.00  0.00    +0.126 C 
ATOM     21  C   UNL     1      -3.628 -10.904  16.280  0.00  0.00    +0.122 A 
ATOM     23  C   UNL     1      -2.757 -10.513  14.101  0.00  0.00    +0.027 A 
ATOM     25  C   UNL     1      -3.858 -10.712  14.927  0.00  0.00    +0.055 A 
ATOM     26  C   UNL     1      -8.283 -11.763  19.415  0.00  0.00    +0.213 C 
ATOM     27  C   UNL     1      -1.478 -10.511  14.646  0.00  0.00    +0.031 A 
ATOM     30  C   UNL     1      -8.438 -13.103  20.092  0.00  0.00    +0.109 C 
ATOM     31  C   UNL     1      -1.354 -10.712  16.012  0.00  0.00    +0.113 A 
ENDBRANCH  22  23
BRANCH  15  10
ATOM      4  N   UNL     1      -6.061 -10.635   9.818  0.00  0.00    -0.287 NA
ATOM     10  C   UNL     1      -4.814  -9.855   9.689  0.00  0.00    +0.146 C 
ATOM     11  C   UNL     1      -5.281  -8.397   9.517  0.00  0.00    +0.030 C 
ATOM     12  C   UNL     1      -6.801  -8.465   9.500  0.00  0.00    +0.017 C 
ATOM     13  C   UNL     1      -7.089  -9.894   9.086  0.00  0.00    +0.085 C 
BRANCH   4  14
ATOM     14  C   UNL     1      -5.932 -12.007   9.344  0.00  0.00    +0.127 C 
BRANCH  14  18
ATOM      1  S   UNL     1      -4.100 -13.818  10.391  0.00  0.00    -0.100 S 
ATOM     18  C   UNL     1      -5.576 -12.954  10.459  0.00  0.00    +0.004 A 
ATOM     24  C   UNL     1      -6.298 -13.252  11.593  0.00  0.00    +0.012 A 
ATOM     28  C   UNL     1      -5.630 -14.202  12.418  0.00  0.00    +0.008 A 
ATOM     29  C   UNL     1      -4.423 -14.594  11.882  0.00  0.00    +0.045 A 
ENDBRANCH  14  18
ENDBRANCH   4  14
ENDBRANCH  15  10
TORSDOF 4
ENDMDL
MODEL 9
REMARK VINA RESULT:      -6.9     28.275     31.465
REMARK  Name = 51136827
REMARK  5 active torsions:
REMARK  status: ('A' for Active; 'I' for Inactive)
REMARK    1  A    between atoms: N_4  and  C_14
REMARK    2  A    between atoms: C_10  and  C_15
REMARK    3  A    between atoms: C_14  and  C_18
REMARK    4  A    between atoms: C_22  and  C_23
REMARK    5  A    between atoms: C_26  and  C_30
REMARK                            x       y       z     vdW  Elec       q    Type
REMARK                         _______ _______ _______ _____ _____    ______ ____
ROOT
ATOM      2  O   UNL     1      -2.105 -11.135  15.398  0.00  0.00    -0.336 OA
ATOM      7  N   UNL     1      -4.193 -11.943  15.340  0.00  0.00    -0.190 NA
ATOM      8  N   UNL     1      -2.697 -10.774  16.616  0.00  0.00    -0.056 NA
ATOM     15  C   UNL     1      -3.054 -11.820  14.707  0.00  0.00    +0.245 A 
ATOM     22  C   UNL     1      -3.926 -11.286  16.506  0.00  0.00    +0.202 A 
ENDROOT
BRANCH  22  23
ATOM      3  O   UNL     1     -12.218  -7.170  16.376  0.00  0.00    -0.276 OA
ATOM      5  N   UNL     1      -8.317  -9.957  17.988  0.00  0.00    -0.312 N 
ATOM      6  N   UNL     1     -10.900  -8.850  17.292  0.00  0.00    -0.299 N 
ATOM      9  N   UNL     1      -6.832 -10.909  19.558  0.00  0.00    -0.240 NA
ATOM     16  C   UNL     1      -9.521 -10.360  18.719  0.00  0.00    +0.125 C 
ATOM     17  C   UNL     1      -8.448  -8.926  16.955  0.00  0.00    +0.125 C 
ATOM     19  C   UNL     1     -10.766 -10.199  17.845  0.00  0.00    +0.126 C 
ATOM     20  C   UNL     1      -9.677  -8.056  17.212  0.00  0.00    +0.126 C 
ATOM     21  C   UNL     1      -7.075 -10.509  18.290  0.00  0.00    +0.122 A 
ATOM     23  C   UNL     1      -4.912 -11.157  17.541  0.00  0.00    +0.027 A 
ATOM     25  C   UNL     1      -6.157 -10.609  17.255  0.00  0.00    +0.055 A 
ATOM     26  C   UNL     1     -12.103  -8.306  16.841  0.00  0.00    +0.213 C 
ATOM     27  C   UNL     1      -4.625 -11.580  18.834  0.00  0.00    +0.031 A 
ATOM     30  C   UNL     1     -13.318  -9.194  16.950  0.00  0.00    +0.109 C 
ATOM     31  C   UNL     1      -5.611 -11.437  19.797  0.00  0.00    +0.113 A 
ENDBRANCH  22  23
BRANCH  15  10
ATOM      4  N   UNL     1      -3.802 -12.863  12.576  0.00  0.00    -0.287 NA
ATOM     10  C   UNL     1      -2.656 -12.327  13.337  0.00  0.00    +0.146 C 
ATOM     11  C   UNL     1      -2.073 -11.220  12.439  0.00  0.00    +0.030 C 
ATOM     12  C   UNL     1      -2.917 -11.249  11.173  0.00  0.00    +0.017 C 
ATOM     13  C   UNL     1      -3.494 -12.650  11.161  0.00  0.00    +0.085 C 
BRANCH   4  14
ATOM     14  C   UNL     1      -4.085 -14.261  12.871  0.00  0.00    +0.127 C 
BRANCH  14  18
ATOM      1  S   UNL     1      -2.265 -15.623  14.473  0.00  0.00    -0.100 S 
ATOM     18  C   UNL     1      -2.826 -15.083  12.948  0.00  0.00    +0.004 A 
ATOM     24  C   UNL     1      -2.006 -15.492  11.920  0.00  0.00    +0.012 A 
ATOM     28  C   UNL     1      -0.901 -16.260  12.390  0.00  0.00    +0.008 A 
ATOM     29  C   UNL     1      -0.920 -16.408  13.760  0.00  0.00    +0.045 A 
ENDBRANCH  14  18
ENDBRANCH   4  14
ENDBRANCH  15  10
TORSDOF 4
ENDMDL
MODEL 10
REMARK VINA RESULT:      -6.8     18.140     21.605
REMARK  Name = 51136827
REMARK  5 active torsions:
REMARK  status: ('A' for Active; 'I' for Inactive)
REMARK    1  A    between atoms: N_4  and  C_14
REMARK    2  A    between atoms: C_10  and  C_15
REMARK    3  A    between atoms: C_14  and  C_18
REMARK    4  A    between atoms: C_22  and  C_23
REMARK    5  A    between atoms: C_26  and  C_30
REMARK                            x       y       z     vdW  Elec       q    Type
REMARK                         _______ _______ _______ _____ _____    ______ ____
ROOT
ATOM      2  O   UNL     1       9.591   6.717   3.199  0.00  0.00    -0.336 OA
ATOM      7  N   UNL     1      10.792   4.864   3.573  0.00  0.00    -0.190 NA
ATOM      8  N   UNL     1      10.187   6.385   1.974  0.00  0.00    -0.056 NA
ATOM     15  C   UNL     1      10.000   5.771   4.085  0.00  0.00    +0.245 A 
ATOM     22  C   UNL     1      10.877   5.282   2.276  0.00  0.00    +0.202 A 
ENDROOT
BRANCH  22  23
ATOM      3  O   UNL     1       9.135   3.432  -6.626  0.00  0.00    -0.276 OA
ATOM      5  N   UNL     1      11.642   3.806  -2.250  0.00  0.00    -0.312 N 
ATOM      6  N   UNL     1      10.755   3.814  -5.005  0.00  0.00    -0.299 N 
ATOM      9  N   UNL     1      13.200   3.198  -0.582  0.00  0.00    -0.240 NA
ATOM     16  C   UNL     1      12.612   3.710  -3.343  0.00  0.00    +0.125 C 
ATOM     17  C   UNL     1      10.217   3.826  -2.588  0.00  0.00    +0.125 C 
ATOM     19  C   UNL     1      12.059   4.355  -4.616  0.00  0.00    +0.126 C 
ATOM     20  C   UNL     1       9.975   3.175  -3.948  0.00  0.00    +0.126 C 
ATOM     21  C   UNL     1      12.059   3.839  -0.921  0.00  0.00    +0.122 A 
ATOM     23  C   UNL     1      11.665   4.574   1.307  0.00  0.00    +0.027 A 
ATOM     25  C   UNL     1      11.263   4.534  -0.024  0.00  0.00    +0.055 A 
ATOM     26  C   UNL     1      10.232   3.887  -6.296  0.00  0.00    +0.213 C 
ATOM     27  C   UNL     1      12.833   3.928   1.694  0.00  0.00    +0.031 A 
ATOM     30  C   UNL     1      11.097   4.571  -7.327  0.00  0.00    +0.109 C 
ATOM     31  C   UNL     1      13.559   3.261   0.720  0.00  0.00    +0.113 A 
ENDBRANCH  22  23
BRANCH  15  10
ATOM      4  N   UNL     1      10.256   6.889   6.293  0.00  0.00    -0.287 NA
ATOM     10  C   UNL     1       9.485   5.908   5.502  0.00  0.00    +0.146 C 
ATOM     11  C   UNL     1       8.032   6.415   5.561  0.00  0.00    +0.030 C 
ATOM     12  C   UNL     1       8.075   7.645   6.455  0.00  0.00    +0.017 C 
ATOM     13  C   UNL     1       9.329   7.443   7.280  0.00  0.00    +0.085 C 
BRANCH   4  14
ATOM     14  C   UNL     1      11.443   6.318   6.915  0.00  0.00    +0.127 C 
BRANCH  14  18
ATOM      1  S   UNL     1      12.614   8.203   5.238  0.00  0.00    -0.100 S 
ATOM     18  C   UNL     1      12.699   7.024   6.477  0.00  0.00    +0.004 A 
ATOM     24  C   UNL     1      13.983   6.858   6.945  0.00  0.00    +0.012 A 
ATOM     28  C   UNL     1      14.911   7.710   6.279  0.00  0.00    +0.008 A 
ATOM     29  C   UNL     1      14.299   8.494   5.326  0.00  0.00    +0.045 A 
ENDBRANCH  14  18
ENDBRANCH   4  14
ENDBRANCH  15  10
TORSDOF 4
ENDMDL
