MODEL 1
REMARK VINA RESULT:      -7.6      0.000      0.000
REMARK  Name = 51138039
REMARK  9 active torsions:
REMARK  status: ('A' for Active; 'I' for Inactive)
REMARK    1  A    between atoms: N_3  and  C_19
REMARK    2  A    between atoms: N_4  and  C_24
REMARK    3  A    between atoms: C_6  and  C_10
REMARK    4  A    between atoms: C_9  and  C_17
REMARK    5  A    between atoms: C_10  and  C_14
REMARK    6  A    between atoms: C_14  and  C_21
REMARK    7  A    between atoms: C_14  and  C_22
REMARK    8  A    between atoms: C_19  and  C_23
REMARK    9  A    between atoms: C_24  and  C_27
REMARK                            x       y       z     vdW  Elec       q    Type
REMARK                         _______ _______ _______ _____ _____    ______ ____
ROOT
ATOM      2  N   UNL     1      -6.813 -11.358  16.209  0.00  0.00    -0.299 NA
ATOM      3  N   UNL     1      -4.143 -10.019  12.137  0.00  0.00    -0.342 N 
ATOM      6  C   UNL     1      -5.429 -11.201  16.675  0.00  0.00    +0.085 C 
ATOM      7  C   UNL     1      -4.377 -10.973  15.584  0.00  0.00    -0.021 A 
ATOM      8  C   UNL     1      -4.657 -10.571  14.246  0.00  0.00    +0.008 A 
ATOM      9  C   UNL     1      -7.373 -10.183  15.557  0.00  0.00    +0.145 C 
ATOM     11  C   UNL     1      -5.864 -10.263  13.527  0.00  0.00    -0.020 A 
ATOM     12  C   UNL     1      -7.265 -10.281  14.037  0.00  0.00    +0.065 C 
ATOM     13  C   UNL     1      -3.601 -10.384  13.347  0.00  0.00    +0.050 A 
ATOM     15  C   UNL     1      -5.501  -9.937  12.235  0.00  0.00    +0.091 A 
ATOM     16  C   UNL     1      -3.006 -11.089  15.928  0.00  0.00    +0.006 A 
ATOM     18  C   UNL     1      -2.259 -10.549  13.693  0.00  0.00    +0.026 A 
ATOM     20  C   UNL     1      -1.979 -10.894  15.009  0.00  0.00    +0.002 A 
ATOM     35  H   UNL     1      -6.908 -12.186  15.622  0.00  0.00    +0.123 HD
ENDROOT
BRANCH   9  17
ATOM      1  O   UNL     1      -9.673 -10.761  15.294  0.00  0.00    -0.274 OA
ATOM      4  N   UNL     1      -9.048  -9.407  17.081  0.00  0.00    -0.310 N 
ATOM     17  C   UNL     1      -8.819 -10.168  15.947  0.00  0.00    +0.231 C 
ATOM     36  H   UNL     1      -8.262  -8.977  17.561  0.00  0.00    +0.149 HD
BRANCH   4  24
ATOM     24  C   UNL     1     -10.361  -9.214  17.651  0.00  0.00    +0.139 C 
BRANCH  24  27
ATOM     27  C   UNL     1     -11.138  -8.152  16.928  0.00  0.00    -0.030 A 
ATOM     30  C   UNL     1     -12.490  -8.349  16.642  0.00  0.00    +0.005 A 
ATOM     31  C   UNL     1     -10.509  -6.968  16.542  0.00  0.00    +0.005 A 
ATOM     32  C   UNL     1     -13.212  -7.363  15.971  0.00  0.00    +0.000 A 
ATOM     33  C   UNL     1     -11.232  -5.982  15.871  0.00  0.00    +0.000 A 
ATOM     34  C   UNL     1     -12.583  -6.178  15.585  0.00  0.00    +0.000 A 
ENDBRANCH  24  27
ENDBRANCH   4  24
ENDBRANCH   9  17
BRANCH   6  10
ATOM     10  C   UNL     1      -5.152 -12.467  17.506  0.00  0.00    +0.026 C 
BRANCH  10  14
ATOM     14  C   UNL     1      -5.006 -12.180  19.004  0.00  0.00    -0.015 C 
ATOM     21  C   UNL     1      -5.671 -10.841  19.329  0.00  0.00    +0.007 C 
ATOM     22  C   UNL     1      -3.545 -12.156  19.458  0.00  0.00    +0.007 C 
ENDBRANCH  10  14
ENDBRANCH   6  10
BRANCH   3  19
ATOM     19  C   UNL     1      -3.396  -9.740  10.929  0.00  0.00    +0.157 C 
BRANCH  19  23
ATOM      5  N   UNL     1      -5.220 -11.357   7.382  0.00  0.00    -0.263 NA
ATOM     23  C   UNL     1      -4.036 -10.307   9.686  0.00  0.00    -0.025 A 
ATOM     25  C   UNL     1      -4.049 -11.681   9.472  0.00  0.00    +0.025 A 
ATOM     26  C   UNL     1      -4.613  -9.458   8.750  0.00  0.00    +0.025 A 
ATOM     28  C   UNL     1      -4.648 -12.151   8.315  0.00  0.00    +0.111 A 
ATOM     29  C   UNL     1      -5.187 -10.027   7.624  0.00  0.00    +0.111 A 
ENDBRANCH  19  23
ENDBRANCH   3  19
TORSDOF 7
ENDMDL
MODEL 2
REMARK VINA RESULT:      -7.5      1.340      2.383
REMARK  Name = 51138039
REMARK  9 active torsions:
REMARK  status: ('A' for Active; 'I' for Inactive)
REMARK    1  A    between atoms: N_3  and  C_19
REMARK    2  A    between atoms: N_4  and  C_24
REMARK    3  A    between atoms: C_6  and  C_10
REMARK    4  A    between atoms: C_9  and  C_17
REMARK    5  A    between atoms: C_10  and  C_14
REMARK    6  A    between atoms: C_14  and  C_21
REMARK    7  A    between atoms: C_14  and  C_22
REMARK    8  A    between atoms: C_19  and  C_23
REMARK    9  A    between atoms: C_24  and  C_27
REMARK                            x       y       z     vdW  Elec       q    Type
REMARK                         _______ _______ _______ _____ _____    ______ ____
ROOT
ATOM      2  N   UNL     1      -6.869 -10.950  16.600  0.00  0.00    -0.299 NA
ATOM      3  N   UNL     1      -3.740 -10.338  12.683  0.00  0.00    -0.342 N 
ATOM      6  C   UNL     1      -5.527 -10.807  17.181  0.00  0.00    +0.085 C 
ATOM      7  C   UNL     1      -4.365 -10.791  16.184  0.00  0.00    -0.021 A 
ATOM      8  C   UNL     1      -4.489 -10.563  14.782  0.00  0.00    +0.008 A 
ATOM      9  C   UNL     1      -7.282  -9.846  15.744  0.00  0.00    +0.145 C 
ATOM     11  C   UNL     1      -5.597 -10.290  13.908  0.00  0.00    -0.020 A 
ATOM     12  C   UNL     1      -7.039 -10.160  14.269  0.00  0.00    +0.065 C 
ATOM     13  C   UNL     1      -3.342 -10.561  13.980  0.00  0.00    +0.050 A 
ATOM     15  C   UNL     1      -5.093 -10.167  12.630  0.00  0.00    +0.091 A 
ATOM     16  C   UNL     1      -3.043 -10.935  16.679  0.00  0.00    +0.006 A 
ATOM     18  C   UNL     1      -2.053 -10.751  14.481  0.00  0.00    +0.026 A 
ATOM     20  C   UNL     1      -1.922 -10.926  15.852  0.00  0.00    +0.002 A 
ATOM     35  H   UNL     1      -6.965 -11.843  16.120  0.00  0.00    +0.123 HD
ENDROOT
BRANCH   9  17
ATOM      1  O   UNL     1      -9.582 -10.319  15.319  0.00  0.00    -0.274 OA
ATOM      4  N   UNL     1      -9.035  -8.783  16.980  0.00  0.00    -0.310 N 
ATOM     17  C   UNL     1      -8.754  -9.696  15.978  0.00  0.00    +0.231 C 
ATOM     36  H   UNL     1      -8.270  -8.341  17.481  0.00  0.00    +0.149 HD
BRANCH   4  24
ATOM     24  C   UNL     1     -10.380  -8.441  17.383  0.00  0.00    +0.139 C 
BRANCH  24  27
ATOM     27  C   UNL     1     -10.927  -9.407  18.394  0.00  0.00    -0.030 A 
ATOM     30  C   UNL     1     -12.300  -9.461  18.636  0.00  0.00    +0.005 A 
ATOM     31  C   UNL     1     -10.062 -10.253  19.090  0.00  0.00    +0.005 A 
ATOM     32  C   UNL     1     -12.808 -10.359  19.574  0.00  0.00    +0.000 A 
ATOM     33  C   UNL     1     -10.571 -11.150  20.028  0.00  0.00    +0.000 A 
ATOM     34  C   UNL     1     -11.944 -11.204  20.271  0.00  0.00    +0.000 A 
ENDBRANCH  24  27
ENDBRANCH   4  24
ENDBRANCH   9  17
BRANCH   6  10
ATOM     10  C   UNL     1      -5.418 -11.959  18.196  0.00  0.00    +0.026 C 
BRANCH  10  14
ATOM     14  C   UNL     1      -5.988 -11.601  19.572  0.00  0.00    -0.015 C 
ATOM     21  C   UNL     1      -7.248 -12.430  19.829  0.00  0.00    +0.007 C 
ATOM     22  C   UNL     1      -6.313 -10.112  19.705  0.00  0.00    +0.007 C 
ENDBRANCH  10  14
ENDBRANCH   6  10
BRANCH   3  19
ATOM     19  C   UNL     1      -2.866 -10.270  11.532  0.00  0.00    +0.157 C 
BRANCH  19  23
ATOM      5  N   UNL     1      -4.960 -10.540   7.782  0.00  0.00    -0.263 NA
ATOM     23  C   UNL     1      -3.599 -10.364  10.217  0.00  0.00    -0.025 A 
ATOM     25  C   UNL     1      -3.993  -9.208   9.552  0.00  0.00    +0.025 A 
ATOM     26  C   UNL     1      -3.886 -11.608   9.666  0.00  0.00    +0.025 A 
ATOM     28  C   UNL     1      -4.664  -9.349   8.349  0.00  0.00    +0.111 A 
ATOM     29  C   UNL     1      -4.562 -11.642   8.458  0.00  0.00    +0.111 A 
ENDBRANCH  19  23
ENDBRANCH   3  19
TORSDOF 7
ENDMDL
MODEL 3
REMARK VINA RESULT:      -7.3     25.826     29.958
REMARK  Name = 51138039
REMARK  9 active torsions:
REMARK  status: ('A' for Active; 'I' for Inactive)
REMARK    1  A    between atoms: N_3  and  C_19
REMARK    2  A    between atoms: N_4  and  C_24
REMARK    3  A    between atoms: C_6  and  C_10
REMARK    4  A    between atoms: C_9  and  C_17
REMARK    5  A    between atoms: C_10  and  C_14
REMARK    6  A    between atoms: C_14  and  C_21
REMARK    7  A    between atoms: C_14  and  C_22
REMARK    8  A    between atoms: C_19  and  C_23
REMARK    9  A    between atoms: C_24  and  C_27
REMARK                            x       y       z     vdW  Elec       q    Type
REMARK                         _______ _______ _______ _____ _____    ______ ____
ROOT
ATOM      2  N   UNL     1      15.455   6.264   1.887  0.00  0.00    -0.299 NA
ATOM      3  N   UNL     1      11.146   6.819   4.462  0.00  0.00    -0.342 N 
ATOM      6  C   UNL     1      14.436   5.534   1.120  0.00  0.00    +0.085 C 
ATOM      7  C   UNL     1      13.066   5.395   1.791  0.00  0.00    -0.021 A 
ATOM      8  C   UNL     1      12.609   6.175   2.893  0.00  0.00    +0.008 A 
ATOM      9  C   UNL     1      15.145   7.666   2.128  0.00  0.00    +0.145 C 
ATOM     11  C   UNL     1      13.181   7.242   3.668  0.00  0.00    -0.020 A 
ATOM     12  C   UNL     1      14.524   7.872   3.508  0.00  0.00    +0.065 C 
ATOM     13  C   UNL     1      11.325   5.957   3.406  0.00  0.00    +0.050 A 
ATOM     15  C   UNL     1      12.253   7.600   4.623  0.00  0.00    +0.091 A 
ATOM     16  C   UNL     1      12.131   4.479   1.243  0.00  0.00    +0.006 A 
ATOM     18  C   UNL     1      10.437   5.016   2.881  0.00  0.00    +0.026 A 
ATOM     20  C   UNL     1      10.860   4.287   1.778  0.00  0.00    +0.002 A 
ATOM     35  H   UNL     1      15.673   5.779   2.756  0.00  0.00    +0.123 HD
ENDROOT
BRANCH   9  17
ATOM      1  O   UNL     1      16.596   9.454   1.502  0.00  0.00    -0.274 OA
ATOM      4  N   UNL     1      17.468   7.663   2.707  0.00  0.00    -0.310 N 
ATOM     17  C   UNL     1      16.464   8.375   2.073  0.00  0.00    +0.231 C 
ATOM     36  H   UNL     1      17.244   6.788   3.172  0.00  0.00    +0.149 HD
BRANCH   4  24
ATOM     24  C   UNL     1      18.838   8.120   2.775  0.00  0.00    +0.139 C 
BRANCH  24  27
ATOM     27  C   UNL     1      19.362   8.117   4.182  0.00  0.00    -0.030 A 
ATOM     30  C   UNL     1      20.598   7.536   4.464  0.00  0.00    +0.005 A 
ATOM     31  C   UNL     1      18.614   8.697   5.207  0.00  0.00    +0.005 A 
ATOM     32  C   UNL     1      21.086   7.534   5.771  0.00  0.00    +0.000 A 
ATOM     33  C   UNL     1      19.101   8.695   6.513  0.00  0.00    +0.000 A 
ATOM     34  C   UNL     1      20.337   8.113   6.796  0.00  0.00    +0.000 A 
ENDBRANCH  24  27
ENDBRANCH   4  24
ENDBRANCH   9  17
BRANCH   6  10
ATOM     10  C   UNL     1      15.083   4.172   0.811  0.00  0.00    +0.026 C 
BRANCH  10  14
ATOM     14  C   UNL     1      15.354   3.962  -0.682  0.00  0.00    -0.015 C 
ATOM     21  C   UNL     1      16.812   4.315  -0.985  0.00  0.00    +0.007 C 
ATOM     22  C   UNL     1      14.426   4.792  -1.571  0.00  0.00    +0.007 C 
ENDBRANCH  10  14
ENDBRANCH   6  10
BRANCH   3  19
ATOM     19  C   UNL     1       9.957   6.914   5.281  0.00  0.00    +0.157 C 
BRANCH  19  23
ATOM      5  N   UNL     1      10.112   4.442   8.801  0.00  0.00    -0.263 NA
ATOM     23  C   UNL     1      10.011   6.048   6.515  0.00  0.00    -0.025 A 
ATOM     25  C   UNL     1      10.373   6.598   7.740  0.00  0.00    +0.025 A 
ATOM     26  C   UNL     1       9.701   4.696   6.433  0.00  0.00    +0.025 A 
ATOM     28  C   UNL     1      10.408   5.761   8.842  0.00  0.00    +0.111 A 
ATOM     29  C   UNL     1       9.765   3.942   7.593  0.00  0.00    +0.111 A 
ENDBRANCH  19  23
ENDBRANCH   3  19
TORSDOF 7
ENDMDL
MODEL 4
REMARK VINA RESULT:      -7.1      2.507      4.085
REMARK  Name = 51138039
REMARK  9 active torsions:
REMARK  status: ('A' for Active; 'I' for Inactive)
REMARK    1  A    between atoms: N_3  and  C_19
REMARK    2  A    between atoms: N_4  and  C_24
REMARK    3  A    between atoms: C_6  and  C_10
REMARK    4  A    between atoms: C_9  and  C_17
REMARK    5  A    between atoms: C_10  and  C_14
REMARK    6  A    between atoms: C_14  and  C_21
REMARK    7  A    between atoms: C_14  and  C_22
REMARK    8  A    between atoms: C_19  and  C_23
REMARK    9  A    between atoms: C_24  and  C_27
REMARK                            x       y       z     vdW  Elec       q    Type
REMARK                         _______ _______ _______ _____ _____    ______ ____
ROOT
ATOM      2  N   UNL     1      -8.552 -10.553  18.087  0.00  0.00    -0.299 NA
ATOM      3  N   UNL     1      -4.015 -10.638  15.869  0.00  0.00    -0.342 N 
ATOM      6  C   UNL     1      -7.595 -10.890  19.151  0.00  0.00    +0.085 C 
ATOM      7  C   UNL     1      -6.157 -11.159  18.696  0.00  0.00    -0.021 A 
ATOM      8  C   UNL     1      -5.613 -10.788  17.432  0.00  0.00    +0.008 A 
ATOM      9  C   UNL     1      -8.269  -9.309  17.386  0.00  0.00    +0.145 C 
ATOM     11  C   UNL     1      -6.138 -10.108  16.278  0.00  0.00    -0.020 A 
ATOM     12  C   UNL     1      -7.511  -9.561  16.084  0.00  0.00    +0.065 C 
ATOM     13  C   UNL     1      -4.275 -11.081  17.144  0.00  0.00    +0.050 A 
ATOM     15  C   UNL     1      -5.126 -10.046  15.342  0.00  0.00    +0.091 A 
ATOM     16  C   UNL     1      -5.254 -11.752  19.615  0.00  0.00    +0.006 A 
ATOM     18  C   UNL     1      -3.415 -11.709  18.047  0.00  0.00    +0.026 A 
ATOM     20  C   UNL     1      -3.926 -12.029  19.297  0.00  0.00    +0.002 A 
ATOM     35  H   UNL     1      -8.658 -11.329  17.435  0.00  0.00    +0.123 HD
ENDROOT
BRANCH   9  17
ATOM      1  O   UNL     1      -9.726  -7.655  16.475  0.00  0.00    -0.274 OA
ATOM      4  N   UNL     1     -10.649  -9.509  17.537  0.00  0.00    -0.310 N 
ATOM     17  C   UNL     1      -9.610  -8.723  17.068  0.00  0.00    +0.231 C 
ATOM     36  H   UNL     1     -10.441 -10.391  17.994  0.00  0.00    +0.149 HD
BRANCH   4  24
ATOM     24  C   UNL     1     -12.041  -9.155  17.378  0.00  0.00    +0.139 C 
BRANCH  24  27
ATOM     27  C   UNL     1     -12.858  -9.533  18.580  0.00  0.00    -0.030 A 
ATOM     30  C   UNL     1     -14.251  -9.525  18.507  0.00  0.00    +0.005 A 
ATOM     31  C   UNL     1     -12.224  -9.893  19.770  0.00  0.00    +0.005 A 
ATOM     32  C   UNL     1     -15.010  -9.876  19.623  0.00  0.00    +0.000 A 
ATOM     33  C   UNL     1     -12.983 -10.245  20.885  0.00  0.00    +0.000 A 
ATOM     34  C   UNL     1     -14.376 -10.236  20.813  0.00  0.00    +0.000 A 
ENDBRANCH  24  27
ENDBRANCH   4  24
ENDBRANCH   9  17
BRANCH   6  10
ATOM     10  C   UNL     1      -8.221 -12.097  19.871  0.00  0.00    +0.026 C 
BRANCH  10  14
ATOM     14  C   UNL     1      -9.232 -12.853  19.003  0.00  0.00    -0.015 C 
ATOM     21  C   UNL     1     -10.439 -13.246  19.858  0.00  0.00    +0.007 C 
ATOM     22  C   UNL     1      -8.632 -14.100  18.351  0.00  0.00    +0.007 C 
ENDBRANCH  10  14
ENDBRANCH   6  10
BRANCH   3  19
ATOM     19  C   UNL     1      -2.750 -10.754  15.177  0.00  0.00    +0.157 C 
BRANCH  19  23
ATOM      5  N   UNL     1      -3.124 -12.315  11.184  0.00  0.00    -0.263 NA
ATOM     23  C   UNL     1      -2.882 -11.302  13.777  0.00  0.00    -0.025 A 
ATOM     25  C   UNL     1      -3.283 -12.618  13.577  0.00  0.00    +0.025 A 
ATOM     26  C   UNL     1      -2.602 -10.492  12.683  0.00  0.00    +0.025 A 
ATOM     28  C   UNL     1      -3.387 -13.072  12.273  0.00  0.00    +0.111 A 
ATOM     29  C   UNL     1      -2.737 -11.041  11.418  0.00  0.00    +0.111 A 
ENDBRANCH  19  23
ENDBRANCH   3  19
TORSDOF 7
ENDMDL
MODEL 5
REMARK VINA RESULT:      -7.1      3.387      6.197
REMARK  Name = 51138039
REMARK  9 active torsions:
REMARK  status: ('A' for Active; 'I' for Inactive)
REMARK    1  A    between atoms: N_3  and  C_19
REMARK    2  A    between atoms: N_4  and  C_24
REMARK    3  A    between atoms: C_6  and  C_10
REMARK    4  A    between atoms: C_9  and  C_17
REMARK    5  A    between atoms: C_10  and  C_14
REMARK    6  A    between atoms: C_14  and  C_21
REMARK    7  A    between atoms: C_14  and  C_22
REMARK    8  A    between atoms: C_19  and  C_23
REMARK    9  A    between atoms: C_24  and  C_27
REMARK                            x       y       z     vdW  Elec       q    Type
REMARK                         _______ _______ _______ _____ _____    ______ ____
ROOT
ATOM      2  N   UNL     1      -6.034 -10.916  13.200  0.00  0.00    -0.299 NA
ATOM      3  N   UNL     1      -8.166  -8.835   9.122  0.00  0.00    -0.342 N 
ATOM      6  C   UNL     1      -4.921 -10.428  12.374  0.00  0.00    +0.085 C 
ATOM      7  C   UNL     1      -5.297  -9.913  10.982  0.00  0.00    -0.021 A 
ATOM      8  C   UNL     1      -6.614  -9.557  10.566  0.00  0.00    +0.008 A 
ATOM      9  C   UNL     1      -7.015  -9.902  13.560  0.00  0.00    +0.145 C 
ATOM     11  C   UNL     1      -7.897  -9.543  11.215  0.00  0.00    -0.020 A 
ATOM     12  C   UNL     1      -8.218  -9.928  12.619  0.00  0.00    +0.065 C 
ATOM     13  C   UNL     1      -6.822  -9.085   9.265  0.00  0.00    +0.050 A 
ATOM     15  C   UNL     1      -8.820  -9.101  10.289  0.00  0.00    +0.091 A 
ATOM     16  C   UNL     1      -4.262  -9.688  10.038  0.00  0.00    +0.006 A 
ATOM     18  C   UNL     1      -5.794  -8.916   8.335  0.00  0.00    +0.026 A 
ATOM     20  C   UNL     1      -4.504  -9.215   8.751  0.00  0.00    +0.002 A 
ATOM     35  H   UNL     1      -6.480 -11.724  12.769  0.00  0.00    +0.123 HD
ENDROOT
BRANCH   9  17
ATOM      1  O   UNL     1      -8.199 -11.223  15.155  0.00  0.00    -0.274 OA
ATOM      4  N   UNL     1      -6.976  -9.387  15.897  0.00  0.00    -0.310 N 
ATOM     17  C   UNL     1      -7.465 -10.262  14.943  0.00  0.00    +0.231 C 
ATOM     36  H   UNL     1      -6.353  -8.636  15.614  0.00  0.00    +0.149 HD
BRANCH   4  24
ATOM     24  C   UNL     1      -7.282  -9.502  17.305  0.00  0.00    +0.139 C 
BRANCH  24  27
ATOM     27  C   UNL     1      -6.267 -10.334  18.034  0.00  0.00    -0.030 A 
ATOM     30  C   UNL     1      -5.095 -10.729  17.390  0.00  0.00    +0.005 A 
ATOM     31  C   UNL     1      -6.496 -10.711  19.358  0.00  0.00    +0.005 A 
ATOM     32  C   UNL     1      -4.153 -11.502  18.067  0.00  0.00    +0.000 A 
ATOM     33  C   UNL     1      -5.554 -11.483  20.036  0.00  0.00    +0.000 A 
ATOM     34  C   UNL     1      -4.382 -11.879  19.391  0.00  0.00    +0.000 A 
ENDBRANCH  24  27
ENDBRANCH   4  24
ENDBRANCH   9  17
BRANCH   6  10
ATOM     10  C   UNL     1      -3.932 -11.605  12.320  0.00  0.00    +0.026 C 
BRANCH  10  14
ATOM     14  C   UNL     1      -2.588 -11.290  12.985  0.00  0.00    -0.015 C 
ATOM     21  C   UNL     1      -2.839 -10.680  14.366  0.00  0.00    +0.007 C 
ATOM     22  C   UNL     1      -1.726 -10.342  12.150  0.00  0.00    +0.007 C 
ENDBRANCH  10  14
ENDBRANCH   6  10
BRANCH   3  19
ATOM     19  C   UNL     1      -8.810  -8.344   7.923  0.00  0.00    +0.157 C 
BRANCH  19  23
ATOM      5  N   UNL     1     -11.138  -4.783   8.571  0.00  0.00    -0.263 NA
ATOM     23  C   UNL     1      -9.626  -7.096   8.150  0.00  0.00    -0.025 A 
ATOM     25  C   UNL     1     -11.015  -7.151   8.103  0.00  0.00    +0.025 A 
ATOM     26  C   UNL     1      -8.993  -5.886   8.408  0.00  0.00    +0.025 A 
ATOM     28  C   UNL     1     -11.718  -5.978   8.318  0.00  0.00    +0.111 A 
ATOM     29  C   UNL     1      -9.786  -4.768   8.609  0.00  0.00    +0.111 A 
ENDBRANCH  19  23
ENDBRANCH   3  19
TORSDOF 7
ENDMDL
MODEL 6
REMARK VINA RESULT:      -6.9      3.074      4.897
REMARK  Name = 51138039
REMARK  9 active torsions:
REMARK  status: ('A' for Active; 'I' for Inactive)
REMARK    1  A    between atoms: N_3  and  C_19
REMARK    2  A    between atoms: N_4  and  C_24
REMARK    3  A    between atoms: C_6  and  C_10
REMARK    4  A    between atoms: C_9  and  C_17
REMARK    5  A    between atoms: C_10  and  C_14
REMARK    6  A    between atoms: C_14  and  C_21
REMARK    7  A    between atoms: C_14  and  C_22
REMARK    8  A    between atoms: C_19  and  C_23
REMARK    9  A    between atoms: C_24  and  C_27
REMARK                            x       y       z     vdW  Elec       q    Type
REMARK                         _______ _______ _______ _____ _____    ______ ____
ROOT
ATOM      2  N   UNL     1      -4.568 -10.773  13.891  0.00  0.00    -0.299 NA
ATOM      3  N   UNL     1      -7.468  -9.526   9.949  0.00  0.00    -0.342 N 
ATOM      6  C   UNL     1      -3.656 -10.198  12.892  0.00  0.00    +0.085 C 
ATOM      7  C   UNL     1      -4.268  -9.905  11.519  0.00  0.00    -0.021 A 
ATOM      8  C   UNL     1      -5.664  -9.820  11.243  0.00  0.00    +0.008 A 
ATOM      9  C   UNL     1      -5.668  -9.904  14.282  0.00  0.00    +0.145 C 
ATOM     11  C   UNL     1      -6.850  -9.950  12.045  0.00  0.00    -0.020 A 
ATOM     12  C   UNL     1      -6.943 -10.230  13.507  0.00  0.00    +0.065 C 
ATOM     13  C   UNL     1      -6.093  -9.531   9.943  0.00  0.00    +0.050 A 
ATOM     15  C   UNL     1      -7.933  -9.770  11.208  0.00  0.00    +0.091 A 
ATOM     16  C   UNL     1      -3.398  -9.614  10.436  0.00  0.00    +0.006 A 
ATOM     18  C   UNL     1      -5.220  -9.295   8.880  0.00  0.00    +0.026 A 
ATOM     20  C   UNL     1      -3.860  -9.329   9.153  0.00  0.00    +0.002 A 
ATOM     35  H   UNL     1      -4.907 -11.686  13.591  0.00  0.00    +0.123 HD
ENDROOT
BRANCH   9  17
ATOM      1  O   UNL     1      -5.175 -10.956  16.366  0.00  0.00    -0.274 OA
ATOM      4  N   UNL     1      -6.984  -9.498  16.239  0.00  0.00    -0.310 N 
ATOM     17  C   UNL     1      -5.892 -10.184  15.737  0.00  0.00    +0.231 C 
ATOM     36  H   UNL     1      -7.496  -8.861  15.635  0.00  0.00    +0.149 HD
BRANCH   4  24
ATOM     24  C   UNL     1      -7.426  -9.612  17.610  0.00  0.00    +0.139 C 
BRANCH  24  27
ATOM     27  C   UNL     1      -8.912  -9.435  17.739  0.00  0.00    -0.030 A 
ATOM     30  C   UNL     1      -9.548  -8.381  17.082  0.00  0.00    +0.005 A 
ATOM     31  C   UNL     1      -9.656 -10.324  18.515  0.00  0.00    +0.005 A 
ATOM     32  C   UNL     1     -10.928  -8.217  17.201  0.00  0.00    +0.000 A 
ATOM     33  C   UNL     1     -11.035 -10.159  18.634  0.00  0.00    +0.000 A 
ATOM     34  C   UNL     1     -11.672  -9.106  17.978  0.00  0.00    +0.000 A 
ENDBRANCH  24  27
ENDBRANCH   4  24
ENDBRANCH   9  17
BRANCH   6  10
ATOM     10  C   UNL     1      -2.485 -11.193  12.816  0.00  0.00    +0.026 C 
BRANCH  10  14
ATOM     14  C   UNL     1      -2.921 -12.648  13.015  0.00  0.00    -0.015 C 
ATOM     21  C   UNL     1      -1.889 -13.371  13.883  0.00  0.00    +0.007 C 
ATOM     22  C   UNL     1      -3.098 -13.396  11.692  0.00  0.00    +0.007 C 
ENDBRANCH  10  14
ENDBRANCH   6  10
BRANCH   3  19
ATOM     19  C   UNL     1      -8.316  -9.280   8.803  0.00  0.00    +0.157 C 
BRANCH  19  23
ATOM      5  N   UNL     1      -9.865  -5.267   8.654  0.00  0.00    -0.263 NA
ATOM     23  C   UNL     1      -8.859  -7.873   8.751  0.00  0.00    -0.025 A 
ATOM     25  C   UNL     1     -10.150  -7.606   9.193  0.00  0.00    +0.025 A 
ATOM     26  C   UNL     1      -8.071  -6.839   8.261  0.00  0.00    +0.025 A 
ATOM     28  C   UNL     1     -10.602  -6.298   9.124  0.00  0.00    +0.111 A 
ATOM     29  C   UNL     1      -8.614  -5.565   8.233  0.00  0.00    +0.111 A 
ENDBRANCH  19  23
ENDBRANCH   3  19
TORSDOF 7
ENDMDL
MODEL 7
REMARK VINA RESULT:      -6.9     25.942     30.073
REMARK  Name = 51138039
REMARK  9 active torsions:
REMARK  status: ('A' for Active; 'I' for Inactive)
REMARK    1  A    between atoms: N_3  and  C_19
REMARK    2  A    between atoms: N_4  and  C_24
REMARK    3  A    between atoms: C_6  and  C_10
REMARK    4  A    between atoms: C_9  and  C_17
REMARK    5  A    between atoms: C_10  and  C_14
REMARK    6  A    between atoms: C_14  and  C_21
REMARK    7  A    between atoms: C_14  and  C_22
REMARK    8  A    between atoms: C_19  and  C_23
REMARK    9  A    between atoms: C_24  and  C_27
REMARK                            x       y       z     vdW  Elec       q    Type
REMARK                         _______ _______ _______ _____ _____    ______ ____
ROOT
ATOM      2  N   UNL     1      15.153   5.829   1.721  0.00  0.00    -0.299 NA
ATOM      3  N   UNL     1      11.695   7.975   4.711  0.00  0.00    -0.342 N 
ATOM      6  C   UNL     1      13.849   5.456   1.154  0.00  0.00    +0.085 C 
ATOM      7  C   UNL     1      12.623   5.834   1.990  0.00  0.00    -0.021 A 
ATOM      8  C   UNL     1      12.616   6.782   3.055  0.00  0.00    +0.008 A 
ATOM      9  C   UNL     1      15.369   7.262   1.857  0.00  0.00    +0.145 C 
ATOM     11  C   UNL     1      13.618   7.626   3.648  0.00  0.00    -0.020 A 
ATOM     12  C   UNL     1      15.056   7.744   3.272  0.00  0.00    +0.065 C 
ATOM     13  C   UNL     1      11.421   7.048   3.733  0.00  0.00    +0.050 A 
ATOM     15  C   UNL     1      13.010   8.333   4.665  0.00  0.00    +0.091 A 
ATOM     16  C   UNL     1      11.367   5.270   1.648  0.00  0.00    +0.006 A 
ATOM     18  C   UNL     1      10.204   6.446   3.411  0.00  0.00    +0.026 A 
ATOM     20  C   UNL     1      10.196   5.558   2.344  0.00  0.00    +0.002 A 
ATOM     35  H   UNL     1      15.318   5.346   2.603  0.00  0.00    +0.123 HD
ENDROOT
BRANCH   9  17
ATOM      1  O   UNL     1      17.319   7.216   0.482  0.00  0.00    -0.274 OA
ATOM      4  N   UNL     1      17.509   7.940   2.686  0.00  0.00    -0.310 N 
ATOM     17  C   UNL     1      16.827   7.468   1.578  0.00  0.00    +0.231 C 
ATOM     36  H   UNL     1      16.998   8.141   3.540  0.00  0.00    +0.149 HD
BRANCH   4  24
ATOM     24  C   UNL     1      18.931   8.200   2.686  0.00  0.00    +0.139 C 
BRANCH  24  27
ATOM     27  C   UNL     1      19.526   8.075   4.059  0.00  0.00    -0.030 A 
ATOM     30  C   UNL     1      18.916   8.706   5.143  0.00  0.00    +0.005 A 
ATOM     31  C   UNL     1      20.688   7.327   4.250  0.00  0.00    +0.005 A 
ATOM     32  C   UNL     1      19.468   8.589   6.419  0.00  0.00    +0.000 A 
ATOM     33  C   UNL     1      21.240   7.210   5.525  0.00  0.00    +0.000 A 
ATOM     34  C   UNL     1      20.631   7.841   6.610  0.00  0.00    +0.000 A 
ENDBRANCH  24  27
ENDBRANCH   4  24
ENDBRANCH   9  17
BRANCH   6  10
ATOM     10  C   UNL     1      13.951   3.940   0.909  0.00  0.00    +0.026 C 
BRANCH  10  14
ATOM     14  C   UNL     1      13.866   3.566  -0.574  0.00  0.00    -0.015 C 
ATOM     21  C   UNL     1      14.085   4.819  -1.425  0.00  0.00    +0.007 C 
ATOM     22  C   UNL     1      12.530   2.918  -0.942  0.00  0.00    +0.007 C 
ENDBRANCH  10  14
ENDBRANCH   6  10
BRANCH   3  19
ATOM     19  C   UNL     1      10.736   8.518   5.650  0.00  0.00    +0.157 C 
BRANCH  19  23
ATOM      5  N   UNL     1       9.669   5.767   8.783  0.00  0.00    -0.263 NA
ATOM     23  C   UNL     1      10.363   7.554   6.748  0.00  0.00    -0.025 A 
ATOM     25  C   UNL     1      11.250   6.554   7.132  0.00  0.00    +0.025 A 
ATOM     26  C   UNL     1       9.129   7.660   7.380  0.00  0.00    +0.025 A 
ATOM     28  C   UNL     1      10.859   5.694   8.145  0.00  0.00    +0.111 A 
ATOM     29  C   UNL     1       8.832   6.751   8.382  0.00  0.00    +0.111 A 
ENDBRANCH  19  23
ENDBRANCH   3  19
TORSDOF 7
ENDMDL
MODEL 8
REMARK VINA RESULT:      -6.8     19.742     23.746
REMARK  Name = 51138039
REMARK  9 active torsions:
REMARK  status: ('A' for Active; 'I' for Inactive)
REMARK    1  A    between atoms: N_3  and  C_19
REMARK    2  A    between atoms: N_4  and  C_24
REMARK    3  A    between atoms: C_6  and  C_10
REMARK    4  A    between atoms: C_9  and  C_17
REMARK    5  A    between atoms: C_10  and  C_14
REMARK    6  A    between atoms: C_14  and  C_21
REMARK    7  A    between atoms: C_14  and  C_22
REMARK    8  A    between atoms: C_19  and  C_23
REMARK    9  A    between atoms: C_24  and  C_27
REMARK                            x       y       z     vdW  Elec       q    Type
REMARK                         _______ _______ _______ _____ _____    ______ ____
ROOT
ATOM      2  N   UNL     1       6.063  -8.104  34.731  0.00  0.00    -0.299 NA
ATOM      3  N   UNL     1       6.899 -12.481  32.355  0.00  0.00    -0.342 N 
ATOM      6  C   UNL     1       6.011  -7.794  33.296  0.00  0.00    +0.085 C 
ATOM      7  C   UNL     1       6.418  -8.929  32.351  0.00  0.00    -0.021 A 
ATOM      8  C   UNL     1       6.505 -10.306  32.712  0.00  0.00    +0.008 A 
ATOM      9  C   UNL     1       5.136  -9.141  35.163  0.00  0.00    +0.145 C 
ATOM     11  C   UNL     1       6.265 -11.038  33.925  0.00  0.00    -0.020 A 
ATOM     12  C   UNL     1       5.820 -10.504  35.245  0.00  0.00    +0.065 C 
ATOM     13  C   UNL     1       6.877 -11.249  31.747  0.00  0.00    +0.050 A 
ATOM     15  C   UNL     1       6.527 -12.367  33.663  0.00  0.00    +0.091 A 
ATOM     16  C   UNL     1       6.656  -8.624  30.986  0.00  0.00    +0.006 A 
ATOM     18  C   UNL     1       7.154 -10.921  30.418  0.00  0.00    +0.026 A 
ATOM     20  C   UNL     1       7.024  -9.589  30.051  0.00  0.00    +0.002 A 
ATOM     35  H   UNL     1       7.016  -8.316  35.023  0.00  0.00    +0.123 HD
ENDROOT
BRANCH   9  17
ATOM      1  O   UNL     1       3.885  -9.385  37.180  0.00  0.00    -0.274 OA
ATOM      4  N   UNL     1       5.293  -7.547  36.943  0.00  0.00    -0.310 N 
ATOM     17  C   UNL     1       4.698  -8.728  36.536  0.00  0.00    +0.231 C 
ATOM     36  H   UNL     1       5.975  -7.097  36.339  0.00  0.00    +0.149 HD
BRANCH   4  24
ATOM     24  C   UNL     1       5.022  -6.924  38.218  0.00  0.00    +0.139 C 
BRANCH  24  27
ATOM     27  C   UNL     1       5.507  -5.504  38.265  0.00  0.00    -0.030 A 
ATOM     30  C   UNL     1       6.556  -5.098  37.441  0.00  0.00    +0.005 A 
ATOM     31  C   UNL     1       4.907  -4.590  39.133  0.00  0.00    +0.005 A 
ATOM     32  C   UNL     1       7.006  -3.778  37.483  0.00  0.00    +0.000 A 
ATOM     33  C   UNL     1       5.358  -3.271  39.175  0.00  0.00    +0.000 A 
ATOM     34  C   UNL     1       6.407  -2.864  38.352  0.00  0.00    +0.000 A 
ENDBRANCH  24  27
ENDBRANCH   4  24
ENDBRANCH   9  17
BRANCH   6  10
ATOM     10  C   UNL     1       6.897  -6.546  33.135  0.00  0.00    +0.026 C 
BRANCH  10  14
ATOM     14  C   UNL     1       8.145  -6.579  34.023  0.00  0.00    -0.015 C 
ATOM     21  C   UNL     1       8.582  -5.146  34.334  0.00  0.00    +0.007 C 
ATOM     22  C   UNL     1       9.303  -7.345  33.382  0.00  0.00    +0.007 C 
ENDBRANCH  10  14
ENDBRANCH   6  10
BRANCH   3  19
ATOM     19  C   UNL     1       7.245 -13.732  31.714  0.00  0.00    +0.157 C 
BRANCH  19  23
ATOM      5  N   UNL     1       4.619 -14.767  28.466  0.00  0.00    -0.263 NA
ATOM     23  C   UNL     1       6.325 -14.095  30.576  0.00  0.00    -0.025 A 
ATOM     25  C   UNL     1       6.843 -14.634  29.403  0.00  0.00    +0.025 A 
ATOM     26  C   UNL     1       4.955 -13.892  30.694  0.00  0.00    +0.025 A 
ATOM     28  C   UNL     1       5.956 -14.950  28.388  0.00  0.00    +0.111 A 
ATOM     29  C   UNL     1       4.152 -14.240  29.621  0.00  0.00    +0.111 A 
ENDBRANCH  19  23
ENDBRANCH   3  19
TORSDOF 7
ENDMDL
MODEL 9
REMARK VINA RESULT:      -6.8      4.940      8.079
REMARK  Name = 51138039
REMARK  9 active torsions:
REMARK  status: ('A' for Active; 'I' for Inactive)
REMARK    1  A    between atoms: N_3  and  C_19
REMARK    2  A    between atoms: N_4  and  C_24
REMARK    3  A    between atoms: C_6  and  C_10
REMARK    4  A    between atoms: C_9  and  C_17
REMARK    5  A    between atoms: C_10  and  C_14
REMARK    6  A    between atoms: C_14  and  C_21
REMARK    7  A    between atoms: C_14  and  C_22
REMARK    8  A    between atoms: C_19  and  C_23
REMARK    9  A    between atoms: C_24  and  C_27
REMARK                            x       y       z     vdW  Elec       q    Type
REMARK                         _______ _______ _______ _____ _____    ______ ____
ROOT
ATOM      2  N   UNL     1     -10.739 -11.520  20.510  0.00  0.00    -0.299 NA
ATOM      3  N   UNL     1      -7.343  -9.791  17.196  0.00  0.00    -0.342 N 
ATOM      6  C   UNL     1     -11.490 -10.667  19.579  0.00  0.00    +0.085 C 
ATOM      7  C   UNL     1     -10.650  -9.869  18.577  0.00  0.00    -0.021 A 
ATOM      8  C   UNL     1      -9.287 -10.135  18.253  0.00  0.00    +0.008 A 
ATOM      9  C   UNL     1      -9.998 -12.603  19.879  0.00  0.00    +0.145 C 
ATOM     11  C   UNL     1      -8.333 -11.121  18.681  0.00  0.00    -0.020 A 
ATOM     12  C   UNL     1      -8.534 -12.227  19.661  0.00  0.00    +0.065 C 
ATOM     13  C   UNL     1      -8.636  -9.337  17.306  0.00  0.00    +0.050 A 
ATOM     15  C   UNL     1      -7.152 -10.867  18.013  0.00  0.00    +0.091 A 
ATOM     16  C   UNL     1     -11.276  -8.829  17.842  0.00  0.00    +0.006 A 
ATOM     18  C   UNL     1      -9.257  -8.286  16.629  0.00  0.00    +0.026 A 
ATOM     20  C   UNL     1     -10.597  -8.054  16.905  0.00  0.00    +0.002 A 
ATOM     35  H   UNL     1     -10.135 -10.961  21.110  0.00  0.00    +0.123 HD
ENDROOT
BRANCH   9  17
ATOM      1  O   UNL     1      -9.348 -14.732  20.741  0.00  0.00    -0.274 OA
ATOM      4  N   UNL     1     -11.043 -13.550  21.814  0.00  0.00    -0.310 N 
ATOM     17  C   UNL     1     -10.072 -13.746  20.846  0.00  0.00    +0.231 C 
ATOM     36  H   UNL     1     -11.570 -12.683  21.824  0.00  0.00    +0.149 HD
BRANCH   4  24
ATOM     24  C   UNL     1     -11.330 -14.515  22.851  0.00  0.00    +0.139 C 
BRANCH  24  27
ATOM     27  C   UNL     1     -12.468 -14.077  23.727  0.00  0.00    -0.030 A 
ATOM     30  C   UNL     1     -13.198 -12.934  23.403  0.00  0.00    +0.005 A 
ATOM     31  C   UNL     1     -12.796 -14.815  24.864  0.00  0.00    +0.005 A 
ATOM     32  C   UNL     1     -14.256 -12.528  24.216  0.00  0.00    +0.000 A 
ATOM     33  C   UNL     1     -13.854 -14.409  25.677  0.00  0.00    +0.000 A 
ATOM     34  C   UNL     1     -14.584 -13.265  25.354  0.00  0.00    +0.000 A 
ENDBRANCH  24  27
ENDBRANCH   4  24
ENDBRANCH   9  17
BRANCH   6  10
ATOM     10  C   UNL     1     -12.346  -9.763  20.484  0.00  0.00    +0.026 C 
BRANCH  10  14
ATOM     14  C   UNL     1     -13.764 -10.299  20.698  0.00  0.00    -0.015 C 
ATOM     21  C   UNL     1     -14.138 -11.219  19.533  0.00  0.00    +0.007 C 
ATOM     22  C   UNL     1     -14.802  -9.183  20.830  0.00  0.00    +0.007 C 
ENDBRANCH  10  14
ENDBRANCH   6  10
BRANCH   3  19
ATOM     19  C   UNL     1      -6.324  -9.235  16.332  0.00  0.00    +0.157 C 
BRANCH  19  23
ATOM      5  N   UNL     1      -3.275 -12.072  15.246  0.00  0.00    -0.263 NA
ATOM     23  C   UNL     1      -5.255 -10.229  15.951  0.00  0.00    -0.025 A 
ATOM     25  C   UNL     1      -5.449 -11.083  14.871  0.00  0.00    +0.025 A 
ATOM     26  C   UNL     1      -4.074 -10.296  16.679  0.00  0.00    +0.025 A 
ATOM     28  C   UNL     1      -4.438 -11.978  14.562  0.00  0.00    +0.111 A 
ATOM     29  C   UNL     1      -3.123 -11.226  16.290  0.00  0.00    +0.111 A 
ENDBRANCH  19  23
ENDBRANCH   3  19
TORSDOF 7
ENDMDL
MODEL 10
REMARK VINA RESULT:      -6.8      1.630      2.240
REMARK  Name = 51138039
REMARK  9 active torsions:
REMARK  status: ('A' for Active; 'I' for Inactive)
REMARK    1  A    between atoms: N_3  and  C_19
REMARK    2  A    between atoms: N_4  and  C_24
REMARK    3  A    between atoms: C_6  and  C_10
REMARK    4  A    between atoms: C_9  and  C_17
REMARK    5  A    between atoms: C_10  and  C_14
REMARK    6  A    between atoms: C_14  and  C_21
REMARK    7  A    between atoms: C_14  and  C_22
REMARK    8  A    between atoms: C_19  and  C_23
REMARK    9  A    between atoms: C_24  and  C_27
REMARK                            x       y       z     vdW  Elec       q    Type
REMARK                         _______ _______ _______ _____ _____    ______ ____
ROOT
ATOM      2  N   UNL     1      -5.819 -11.177  15.120  0.00  0.00    -0.299 NA
ATOM      3  N   UNL     1      -4.949  -9.343  10.495  0.00  0.00    -0.342 N 
ATOM      6  C   UNL     1      -4.364 -10.995  15.031  0.00  0.00    +0.085 C 
ATOM      7  C   UNL     1      -3.820 -10.617  13.649  0.00  0.00    -0.021 A 
ATOM      8  C   UNL     1      -4.601 -10.110  12.571  0.00  0.00    +0.008 A 
ATOM      9  C   UNL     1      -6.599  -9.975  14.858  0.00  0.00    +0.145 C 
ATOM     11  C   UNL     1      -5.994  -9.796  12.407  0.00  0.00    -0.020 A 
ATOM     12  C   UNL     1      -7.088  -9.930  13.412  0.00  0.00    +0.065 C 
ATOM     13  C   UNL     1      -3.977  -9.789  11.359  0.00  0.00    +0.050 A 
ATOM     15  C   UNL     1      -6.164  -9.337  11.116  0.00  0.00    +0.091 A 
ATOM     16  C   UNL     1      -2.421 -10.696  13.426  0.00  0.00    +0.006 A 
ATOM     18  C   UNL     1      -2.604  -9.919  11.144  0.00  0.00    +0.026 A 
ATOM     20  C   UNL     1      -1.833 -10.368  12.207  0.00  0.00    +0.002 A 
ATOM     35  H   UNL     1      -6.126 -11.951  14.533  0.00  0.00    +0.123 HD
ENDROOT
BRANCH   9  17
ATOM      1  O   UNL     1      -8.452 -11.091  15.865  0.00  0.00    -0.274 OA
ATOM      4  N   UNL     1      -8.011  -8.882  16.452  0.00  0.00    -0.310 N 
ATOM     17  C   UNL     1      -7.781 -10.067  15.774  0.00  0.00    +0.231 C 
ATOM     36  H   UNL     1      -7.376  -8.100  16.320  0.00  0.00    +0.149 HD
BRANCH   4  24
ATOM     24  C   UNL     1      -9.104  -8.702  17.379  0.00  0.00    +0.139 C 
BRANCH  24  27
ATOM     27  C   UNL     1     -10.278  -8.018  16.740  0.00  0.00    -0.030 A 
ATOM     30  C   UNL     1     -11.565  -8.524  16.924  0.00  0.00    +0.005 A 
ATOM     31  C   UNL     1     -10.082  -6.876  15.963  0.00  0.00    +0.005 A 
ATOM     32  C   UNL     1     -12.656  -7.889  16.331  0.00  0.00    +0.000 A 
ATOM     33  C   UNL     1     -11.173  -6.241  15.370  0.00  0.00    +0.000 A 
ATOM     34  C   UNL     1     -12.460  -6.747  15.553  0.00  0.00    +0.000 A 
ENDBRANCH  24  27
ENDBRANCH   4  24
ENDBRANCH   9  17
BRANCH   6  10
ATOM     10  C   UNL     1      -3.774 -12.316  15.556  0.00  0.00    +0.026 C 
BRANCH  10  14
ATOM     14  C   UNL     1      -4.320 -13.547  14.828  0.00  0.00    -0.015 C 
ATOM     21  C   UNL     1      -4.919 -14.516  15.851  0.00  0.00    +0.007 C 
ATOM     22  C   UNL     1      -3.252 -14.264  14.001  0.00  0.00    +0.007 C 
ENDBRANCH  10  14
ENDBRANCH   6  10
BRANCH   3  19
ATOM     19  C   UNL     1      -4.732  -8.919   9.129  0.00  0.00    +0.157 C 
BRANCH  19  23
ATOM      5  N   UNL     1      -6.108 -11.772   6.215  0.00  0.00    -0.263 NA
ATOM     23  C   UNL     1      -5.215  -9.920   8.108  0.00  0.00    -0.025 A 
ATOM     25  C   UNL     1      -4.617 -11.172   8.020  0.00  0.00    +0.025 A 
ATOM     26  C   UNL     1      -6.258  -9.593   7.250  0.00  0.00    +0.025 A 
ATOM     28  C   UNL     1      -5.096 -12.054   7.066  0.00  0.00    +0.111 A 
ATOM     29  C   UNL     1      -6.664 -10.545   6.329  0.00  0.00    +0.111 A 
ENDBRANCH  19  23
ENDBRANCH   3  19
TORSDOF 7
ENDMDL
