MODEL 1
REMARK VINA RESULT:      -6.4      0.000      0.000
REMARK  Name = 75536612
REMARK  7 active torsions:
REMARK  status: ('A' for Active; 'I' for Inactive)
REMARK    1  A    between atoms: O_2  and  C_7
REMARK    2  A    between atoms: N_4  and  C_6
REMARK    3  A    between atoms: N_4  and  C_11
REMARK    4  A    between atoms: N_4  and  C_12
REMARK    5  A    between atoms: N_5  and  C_10
REMARK    6  A    between atoms: C_8  and  C_10
REMARK    7  A    between atoms: C_13  and  C_14
REMARK                            x       y       z     vdW  Elec       q    Type
REMARK                         _______ _______ _______ _____ _____    ______ ____
ROOT
ATOM     10  C   UNL     1      12.236   7.307  19.828  0.00  0.00    +0.138 C 
ENDROOT
BRANCH  10   8
ATOM      1  O   UNL     1      12.750   9.588  19.213  0.00  0.00    -0.371 OA
ATOM      6  C   UNL     1      12.359   9.543  16.870  0.00  0.00    +0.113 C 
ATOM      7  C   UNL     1      12.140   8.153  17.435  0.00  0.00    +0.164 C 
ATOM      8  C   UNL     1      11.905   8.468  18.907  0.00  0.00    +0.165 C 
ATOM      9  C   UNL     1      13.172  10.194  17.978  0.00  0.00    +0.181 C 
BRANCH   6   4
ATOM      4  N   UNL     1      13.043   9.552  15.588  0.00  0.00    -0.301 NA
ATOM     11  C   UNL     1      13.507  10.902  15.253  0.00  0.00    +0.105 C 
ATOM     12  C   UNL     1      14.175   8.619  15.593  0.00  0.00    +0.105 C 
ENDBRANCH   6   4
BRANCH   7   2
ATOM      2  O   UNL     1      11.032   7.495  16.852  0.00  0.00    -0.388 OA
ATOM     20  H   UNL     1      11.115   7.558  15.885  0.00  0.00    +0.210 HD
ENDBRANCH   7   2
ENDBRANCH  10   8
BRANCH  10   5
ATOM      3  O   UNL     1      14.244   7.593  21.862  0.00  0.00    -0.270 OA
ATOM      5  N   UNL     1      13.619   6.939  19.725  0.00  0.00    -0.309 N 
ATOM     13  C   UNL     1      14.525   7.114  20.767  0.00  0.00    +0.244 C 
ATOM     21  H   UNL     1      13.933   6.603  18.821  0.00  0.00    +0.149 HD
BRANCH  13  14
ATOM     14  C   UNL     1      15.928   6.707  20.492  0.00  0.00    +0.037 A 
ATOM     15  C   UNL     1      16.908   6.876  21.471  0.00  0.00    +0.013 A 
ATOM     16  C   UNL     1      16.263   6.153  19.257  0.00  0.00    +0.013 A 
ATOM     17  C   UNL     1      18.224   6.491  21.213  0.00  0.00    +0.001 A 
ATOM     18  C   UNL     1      17.579   5.769  18.999  0.00  0.00    +0.001 A 
ATOM     19  C   UNL     1      18.559   5.938  19.977  0.00  0.00    +0.000 A 
ENDBRANCH  13  14
ENDBRANCH  10   5
TORSDOF 5
ENDMDL
MODEL 2
REMARK VINA RESULT:      -6.0      1.648      2.198
REMARK  Name = 75536612
REMARK  7 active torsions:
REMARK  status: ('A' for Active; 'I' for Inactive)
REMARK    1  A    between atoms: O_2  and  C_7
REMARK    2  A    between atoms: N_4  and  C_6
REMARK    3  A    between atoms: N_4  and  C_11
REMARK    4  A    between atoms: N_4  and  C_12
REMARK    5  A    between atoms: N_5  and  C_10
REMARK    6  A    between atoms: C_8  and  C_10
REMARK    7  A    between atoms: C_13  and  C_14
REMARK                            x       y       z     vdW  Elec       q    Type
REMARK                         _______ _______ _______ _____ _____    ______ ____
ROOT
ATOM     10  C   UNL     1      13.921   6.658  20.158  0.00  0.00    +0.138 C 
ENDROOT
BRANCH  10   8
ATOM      1  O   UNL     1      14.106   9.011  19.633  0.00  0.00    -0.371 OA
ATOM      6  C   UNL     1      13.065   9.101  17.500  0.00  0.00    +0.113 C 
ATOM      7  C   UNL     1      13.096   7.661  17.975  0.00  0.00    +0.164 C 
ATOM      8  C   UNL     1      13.274   7.850  19.475  0.00  0.00    +0.165 C 
ATOM      9  C   UNL     1      14.122   9.735  18.389  0.00  0.00    +0.181 C 
BRANCH   6   4
ATOM      4  N   UNL     1      13.351   9.255  16.083  0.00  0.00    -0.301 NA
ATOM     11  C   UNL     1      12.142   9.632  15.344  0.00  0.00    +0.105 C 
ATOM     12  C   UNL     1      14.402  10.255  15.869  0.00  0.00    +0.105 C 
ENDBRANCH   6   4
BRANCH   7   2
ATOM      2  O   UNL     1      11.907   6.958  17.668  0.00  0.00    -0.388 OA
ATOM     20  H   UNL     1      12.071   6.009  17.804  0.00  0.00    +0.210 HD
ENDBRANCH   7   2
ENDBRANCH  10   8
BRANCH  10   5
ATOM      3  O   UNL     1      16.347   5.803  18.879  0.00  0.00    -0.270 OA
ATOM      5  N   UNL     1      15.262   6.960  20.573  0.00  0.00    -0.309 N 
ATOM     13  C   UNL     1      16.383   6.500  19.889  0.00  0.00    +0.244 C 
ATOM     21  H   UNL     1      15.363   7.473  21.441  0.00  0.00    +0.149 HD
BRANCH  13  14
ATOM     14  C   UNL     1      17.701   6.878  20.462  0.00  0.00    +0.037 A 
ATOM     15  C   UNL     1      18.809   6.053  20.266  0.00  0.00    +0.013 A 
ATOM     16  C   UNL     1      17.831   8.058  21.193  0.00  0.00    +0.013 A 
ATOM     17  C   UNL     1      20.047   6.409  20.803  0.00  0.00    +0.001 A 
ATOM     18  C   UNL     1      19.068   8.414  21.730  0.00  0.00    +0.001 A 
ATOM     19  C   UNL     1      20.176   7.589  21.535  0.00  0.00    +0.000 A 
ENDBRANCH  13  14
ENDBRANCH  10   5
TORSDOF 5
ENDMDL
MODEL 3
REMARK VINA RESULT:      -6.0      2.152      2.862
REMARK  Name = 75536612
REMARK  7 active torsions:
REMARK  status: ('A' for Active; 'I' for Inactive)
REMARK    1  A    between atoms: O_2  and  C_7
REMARK    2  A    between atoms: N_4  and  C_6
REMARK    3  A    between atoms: N_4  and  C_11
REMARK    4  A    between atoms: N_4  and  C_12
REMARK    5  A    between atoms: N_5  and  C_10
REMARK    6  A    between atoms: C_8  and  C_10
REMARK    7  A    between atoms: C_13  and  C_14
REMARK                            x       y       z     vdW  Elec       q    Type
REMARK                         _______ _______ _______ _____ _____    ______ ____
ROOT
ATOM     10  C   UNL     1      14.615   8.753  22.383  0.00  0.00    +0.138 C 
ENDROOT
BRANCH  10   8
ATOM      1  O   UNL     1      12.855   9.800  21.098  0.00  0.00    -0.371 OA
ATOM      6  C   UNL     1      12.174   8.014  19.689  0.00  0.00    +0.113 C 
ATOM      7  C   UNL     1      13.337   7.552  20.546  0.00  0.00    +0.164 C 
ATOM      8  C   UNL     1      13.280   8.560  21.686  0.00  0.00    +0.165 C 
ATOM      9  C   UNL     1      12.299   9.524  19.800  0.00  0.00    +0.181 C 
BRANCH   6   4
ATOM      4  N   UNL     1      12.237   7.541  18.316  0.00  0.00    -0.301 NA
ATOM     11  C   UNL     1      11.367   8.342  17.448  0.00  0.00    +0.105 C 
ATOM     12  C   UNL     1      13.614   7.574  17.814  0.00  0.00    +0.105 C 
ENDBRANCH   6   4
BRANCH   7   2
ATOM      2  O   UNL     1      13.183   6.224  21.007  0.00  0.00    -0.388 OA
ATOM     20  H   UNL     1      12.898   5.673  20.258  0.00  0.00    +0.210 HD
ENDBRANCH   7   2
ENDBRANCH  10   8
BRANCH  10   5
ATOM      3  O   UNL     1      17.244   9.427  21.442  0.00  0.00    -0.270 OA
ATOM      5  N   UNL     1      15.603   7.844  21.877  0.00  0.00    -0.309 N 
ATOM     13  C   UNL     1      16.858   8.261  21.441  0.00  0.00    +0.244 C 
ATOM     21  H   UNL     1      15.322   6.875  21.782  0.00  0.00    +0.149 HD
BRANCH  13  14
ATOM     14  C   UNL     1      17.757   7.200  20.920  0.00  0.00    +0.037 A 
ATOM     15  C   UNL     1      19.012   7.004  21.496  0.00  0.00    +0.013 A 
ATOM     16  C   UNL     1      17.345   6.397  19.856  0.00  0.00    +0.013 A 
ATOM     17  C   UNL     1      19.856   6.005  21.007  0.00  0.00    +0.001 A 
ATOM     18  C   UNL     1      18.188   5.399  19.368  0.00  0.00    +0.001 A 
ATOM     19  C   UNL     1      19.443   5.204  19.943  0.00  0.00    +0.000 A 
ENDBRANCH  13  14
ENDBRANCH  10   5
TORSDOF 5
ENDMDL
MODEL 4
REMARK VINA RESULT:      -5.9     26.111     29.116
REMARK  Name = 75536612
REMARK  7 active torsions:
REMARK  status: ('A' for Active; 'I' for Inactive)
REMARK    1  A    between atoms: O_2  and  C_7
REMARK    2  A    between atoms: N_4  and  C_6
REMARK    3  A    between atoms: N_4  and  C_11
REMARK    4  A    between atoms: N_4  and  C_12
REMARK    5  A    between atoms: N_5  and  C_10
REMARK    6  A    between atoms: C_8  and  C_10
REMARK    7  A    between atoms: C_13  and  C_14
REMARK                            x       y       z     vdW  Elec       q    Type
REMARK                         _______ _______ _______ _____ _____    ______ ____
ROOT
ATOM     10  C   UNL     1       0.502   2.846  -4.375  0.00  0.00    +0.138 C 
ENDROOT
BRANCH  10   8
ATOM      1  O   UNL     1       1.026   5.160  -4.840  0.00  0.00    -0.371 OA
ATOM      6  C   UNL     1       3.282   4.997  -5.563  0.00  0.00    +0.113 C 
ATOM      7  C   UNL     1       2.790   3.619  -5.162  0.00  0.00    +0.164 C 
ATOM      8  C   UNL     1       1.282   3.809  -5.254  0.00  0.00    +0.165 C 
ATOM      9  C   UNL     1       2.264   5.892  -4.876  0.00  0.00    +0.181 C 
BRANCH   6   4
ATOM      4  N   UNL     1       4.648   5.272  -5.148  0.00  0.00    -0.301 NA
ATOM     11  C   UNL     1       5.450   5.751  -6.279  0.00  0.00    +0.105 C 
ATOM     12  C   UNL     1       4.676   6.256  -4.061  0.00  0.00    +0.105 C 
ENDBRANCH   6   4
BRANCH   7   2
ATOM      2  O   UNL     1       3.248   2.602  -6.032  0.00  0.00    -0.388 OA
ATOM     20  H   UNL     1       2.606   1.872  -6.011  0.00  0.00    +0.210 HD
ENDBRANCH   7   2
ENDBRANCH  10   8
BRANCH  10   5
ATOM      3  O   UNL     1       1.173   0.409  -5.739  0.00  0.00    -0.270 OA
ATOM      5  N   UNL     1      -0.383   2.029  -5.155  0.00  0.00    -0.309 N 
ATOM     13  C   UNL     1       0.031   0.858  -5.783  0.00  0.00    +0.244 C 
ATOM     21  H   UNL     1      -1.324   2.381  -5.291  0.00  0.00    +0.149 HD
BRANCH  13  14
ATOM     14  C   UNL     1      -1.001   0.140  -6.576  0.00  0.00    +0.037 A 
ATOM     15  C   UNL     1      -1.692   0.806  -7.588  0.00  0.00    +0.013 A 
ATOM     16  C   UNL     1      -1.275  -1.202  -6.310  0.00  0.00    +0.013 A 
ATOM     17  C   UNL     1      -2.659   0.130  -8.333  0.00  0.00    +0.001 A 
ATOM     18  C   UNL     1      -2.241  -1.877  -7.054  0.00  0.00    +0.001 A 
ATOM     19  C   UNL     1      -2.933  -1.211  -8.066  0.00  0.00    +0.000 A 
ENDBRANCH  13  14
ENDBRANCH  10   5
TORSDOF 5
ENDMDL
MODEL 5
REMARK VINA RESULT:      -5.8     26.715     29.509
REMARK  Name = 75536612
REMARK  7 active torsions:
REMARK  status: ('A' for Active; 'I' for Inactive)
REMARK    1  A    between atoms: O_2  and  C_7
REMARK    2  A    between atoms: N_4  and  C_6
REMARK    3  A    between atoms: N_4  and  C_11
REMARK    4  A    between atoms: N_4  and  C_12
REMARK    5  A    between atoms: N_5  and  C_10
REMARK    6  A    between atoms: C_8  and  C_10
REMARK    7  A    between atoms: C_13  and  C_14
REMARK                            x       y       z     vdW  Elec       q    Type
REMARK                         _______ _______ _______ _____ _____    ______ ____
ROOT
ATOM     10  C   UNL     1       0.628   2.606  -4.291  0.00  0.00    +0.138 C 
ENDROOT
BRANCH  10   8
ATOM      1  O   UNL     1       1.769   4.700  -3.895  0.00  0.00    -0.371 OA
ATOM      6  C   UNL     1       2.109   5.479  -6.113  0.00  0.00    +0.113 C 
ATOM      7  C   UNL     1       1.443   4.116  -6.162  0.00  0.00    +0.164 C 
ATOM      8  C   UNL     1       0.843   4.032  -4.766  0.00  0.00    +0.165 C 
ATOM      9  C   UNL     1       2.664   5.491  -4.697  0.00  0.00    +0.181 C 
BRANCH   6   4
ATOM      4  N   UNL     1       3.137   5.664  -7.124  0.00  0.00    -0.301 NA
ATOM     11  C   UNL     1       3.941   6.855  -6.837  0.00  0.00    +0.105 C 
ATOM     12  C   UNL     1       4.001   4.483  -7.212  0.00  0.00    +0.105 C 
ENDBRANCH   6   4
BRANCH   7   2
ATOM      2  O   UNL     1       0.453   4.029  -7.169  0.00  0.00    -0.388 OA
ATOM     20  H   UNL     1       0.746   3.376  -7.828  0.00  0.00    +0.210 HD
ENDBRANCH   7   2
ENDBRANCH  10   8
BRANCH  10   5
ATOM      3  O   UNL     1       1.025  -0.000  -5.431  0.00  0.00    -0.270 OA
ATOM      5  N   UNL     1      -0.277   1.900  -5.152  0.00  0.00    -0.309 N 
ATOM     13  C   UNL     1      -0.001   0.634  -5.660  0.00  0.00    +0.244 C 
ATOM     21  H   UNL     1      -1.112   2.398  -5.439  0.00  0.00    +0.149 HD
BRANCH  13  14
ATOM     14  C   UNL     1      -1.029   0.050  -6.560  0.00  0.00    +0.037 A 
ATOM     15  C   UNL     1      -1.427  -1.277  -6.396  0.00  0.00    +0.013 A 
ATOM     16  C   UNL     1      -1.597   0.829  -7.567  0.00  0.00    +0.013 A 
ATOM     17  C   UNL     1      -2.394  -1.824  -7.240  0.00  0.00    +0.001 A 
ATOM     18  C   UNL     1      -2.563   0.282  -8.411  0.00  0.00    +0.001 A 
ATOM     19  C   UNL     1      -2.961  -1.044  -8.248  0.00  0.00    +0.000 A 
ENDBRANCH  13  14
ENDBRANCH  10   5
TORSDOF 5
ENDMDL
MODEL 6
REMARK VINA RESULT:      -5.5     24.555     26.390
REMARK  Name = 75536612
REMARK  7 active torsions:
REMARK  status: ('A' for Active; 'I' for Inactive)
REMARK    1  A    between atoms: O_2  and  C_7
REMARK    2  A    between atoms: N_4  and  C_6
REMARK    3  A    between atoms: N_4  and  C_11
REMARK    4  A    between atoms: N_4  and  C_12
REMARK    5  A    between atoms: N_5  and  C_10
REMARK    6  A    between atoms: C_8  and  C_10
REMARK    7  A    between atoms: C_13  and  C_14
REMARK                            x       y       z     vdW  Elec       q    Type
REMARK                         _______ _______ _______ _____ _____    ______ ____
ROOT
ATOM     10  C   UNL     1     -11.722   8.593  15.533  0.00  0.00    +0.138 C 
ENDROOT
BRANCH  10   8
ATOM      1  O   UNL     1     -11.158  10.821  14.783  0.00  0.00    -0.371 OA
ATOM      6  C   UNL     1      -9.801  11.592  16.574  0.00  0.00    +0.113 C 
ATOM      7  C   UNL     1     -10.309  10.200  16.900  0.00  0.00    +0.164 C 
ATOM      8  C   UNL     1     -10.667   9.685  15.513  0.00  0.00    +0.165 C 
ATOM      9  C   UNL     1     -10.770  12.017  15.483  0.00  0.00    +0.181 C 
BRANCH   6   4
ATOM      4  N   UNL     1      -9.801  12.495  17.713  0.00  0.00    -0.301 NA
ATOM     11  C   UNL     1      -9.293  13.816  17.329  0.00  0.00    +0.105 C 
ATOM     12  C   UNL     1     -11.146  12.620  18.282  0.00  0.00    +0.105 C 
ENDBRANCH   6   4
BRANCH   7   2
ATOM      2  O   UNL     1      -9.328   9.394  17.526  0.00  0.00    -0.388 OA
ATOM     20  H   UNL     1      -9.374   8.503  17.138  0.00  0.00    +0.210 HD
ENDBRANCH   7   2
ENDBRANCH  10   8
BRANCH  10   5
ATOM      3  O   UNL     1     -13.991   8.953  17.256  0.00  0.00    -0.270 OA
ATOM      5  N   UNL     1     -11.890   8.055  16.853  0.00  0.00    -0.309 N 
ATOM     13  C   UNL     1     -13.029   8.282  17.620  0.00  0.00    +0.244 C 
ATOM     21  H   UNL     1     -11.101   7.550  17.241  0.00  0.00    +0.149 HD
BRANCH  13  14
ATOM     14  C   UNL     1     -13.037   7.677  18.977  0.00  0.00    +0.037 A 
ATOM     15  C   UNL     1     -14.245   7.489  19.650  0.00  0.00    +0.013 A 
ATOM     16  C   UNL     1     -11.837   7.295  19.577  0.00  0.00    +0.013 A 
ATOM     17  C   UNL     1     -14.252   6.919  20.923  0.00  0.00    +0.001 A 
ATOM     18  C   UNL     1     -11.844   6.725  20.850  0.00  0.00    +0.001 A 
ATOM     19  C   UNL     1     -13.051   6.538  21.523  0.00  0.00    +0.000 A 
ENDBRANCH  13  14
ENDBRANCH  10   5
TORSDOF 5
ENDMDL
MODEL 7
REMARK VINA RESULT:      -5.5      3.353      4.504
REMARK  Name = 75536612
REMARK  7 active torsions:
REMARK  status: ('A' for Active; 'I' for Inactive)
REMARK    1  A    between atoms: O_2  and  C_7
REMARK    2  A    between atoms: N_4  and  C_6
REMARK    3  A    between atoms: N_4  and  C_11
REMARK    4  A    between atoms: N_4  and  C_12
REMARK    5  A    between atoms: N_5  and  C_10
REMARK    6  A    between atoms: C_8  and  C_10
REMARK    7  A    between atoms: C_13  and  C_14
REMARK                            x       y       z     vdW  Elec       q    Type
REMARK                         _______ _______ _______ _____ _____    ______ ____
ROOT
ATOM     10  C   UNL     1      12.204   7.731  21.703  0.00  0.00    +0.138 C 
ENDROOT
BRANCH  10   8
ATOM      1  O   UNL     1      11.012   9.590  22.688  0.00  0.00    -0.371 OA
ATOM      6  C   UNL     1      12.579  11.353  22.412  0.00  0.00    +0.113 C 
ATOM      7  C   UNL     1      13.188  10.064  21.894  0.00  0.00    +0.164 C 
ATOM      8  C   UNL     1      11.940   9.225  21.654  0.00  0.00    +0.165 C 
ATOM      9  C   UNL     1      11.450  10.824  23.282  0.00  0.00    +0.181 C 
BRANCH   6   4
ATOM      4  N   UNL     1      13.516  12.188  23.147  0.00  0.00    -0.301 NA
ATOM     11  C   UNL     1      12.804  13.196  23.939  0.00  0.00    +0.105 C 
ATOM     12  C   UNL     1      14.368  11.374  24.019  0.00  0.00    +0.105 C 
ENDBRANCH   6   4
BRANCH   7   2
ATOM      2  O   UNL     1      13.936  10.251  20.708  0.00  0.00    -0.388 OA
ATOM     20  H   UNL     1      13.499  10.941  20.179  0.00  0.00    +0.210 HD
ENDBRANCH   7   2
ENDBRANCH  10   8
BRANCH  10   5
ATOM      3  O   UNL     1      13.354   6.633  19.312  0.00  0.00    -0.270 OA
ATOM      5  N   UNL     1      13.590   7.438  21.475  0.00  0.00    -0.309 N 
ATOM     13  C   UNL     1      14.060   6.905  20.279  0.00  0.00    +0.244 C 
ATOM     21  H   UNL     1      14.217   7.573  22.260  0.00  0.00    +0.149 HD
BRANCH  13  14
ATOM     14  C   UNL     1      15.520   6.634  20.210  0.00  0.00    +0.037 A 
ATOM     15  C   UNL     1      16.314   6.800  21.345  0.00  0.00    +0.013 A 
ATOM     16  C   UNL     1      16.094   6.210  19.013  0.00  0.00    +0.013 A 
ATOM     17  C   UNL     1      17.684   6.543  21.281  0.00  0.00    +0.001 A 
ATOM     18  C   UNL     1      17.464   5.954  18.948  0.00  0.00    +0.001 A 
ATOM     19  C   UNL     1      18.258   6.121  20.082  0.00  0.00    +0.000 A 
ENDBRANCH  13  14
ENDBRANCH  10   5
TORSDOF 5
ENDMDL
MODEL 8
REMARK VINA RESULT:      -5.5     26.529     29.552
REMARK  Name = 75536612
REMARK  7 active torsions:
REMARK  status: ('A' for Active; 'I' for Inactive)
REMARK    1  A    between atoms: O_2  and  C_7
REMARK    2  A    between atoms: N_4  and  C_6
REMARK    3  A    between atoms: N_4  and  C_11
REMARK    4  A    between atoms: N_4  and  C_12
REMARK    5  A    between atoms: N_5  and  C_10
REMARK    6  A    between atoms: C_8  and  C_10
REMARK    7  A    between atoms: C_13  and  C_14
REMARK                            x       y       z     vdW  Elec       q    Type
REMARK                         _______ _______ _______ _____ _____    ______ ____
ROOT
ATOM     10  C   UNL     1       1.629   2.728  -6.840  0.00  0.00    +0.138 C 
ENDROOT
BRANCH  10   8
ATOM      1  O   UNL     1       2.301   3.751  -4.755  0.00  0.00    -0.371 OA
ATOM      6  C   UNL     1       1.714   6.022  -5.133  0.00  0.00    +0.113 C 
ATOM      7  C   UNL     1       1.413   5.217  -6.383  0.00  0.00    +0.164 C 
ATOM      8  C   UNL     1       1.332   3.808  -5.814  0.00  0.00    +0.165 C 
ATOM      9  C   UNL     1       2.674   5.096  -4.403  0.00  0.00    +0.181 C 
BRANCH   6   4
ATOM      4  N   UNL     1       2.287   7.330  -5.403  0.00  0.00    -0.301 NA
ATOM     11  C   UNL     1       1.340   8.395  -5.056  0.00  0.00    +0.105 C 
ATOM     12  C   UNL     1       3.541   7.513  -4.667  0.00  0.00    +0.105 C 
ENDBRANCH   6   4
BRANCH   7   2
ATOM      2  O   UNL     1       0.204   5.607  -7.005  0.00  0.00    -0.388 OA
ATOM     20  H   UNL     1      -0.513   5.530  -6.351  0.00  0.00    +0.210 HD
ENDBRANCH   7   2
ENDBRANCH  10   8
BRANCH  10   5
ATOM      3  O   UNL     1       0.793   0.357  -5.452  0.00  0.00    -0.270 OA
ATOM      5  N   UNL     1       0.463   1.939  -7.118  0.00  0.00    -0.309 N 
ATOM     13  C   UNL     1       0.134   0.799  -6.390  0.00  0.00    +0.244 C 
ATOM     21  H   UNL     1      -0.086   2.209  -7.926  0.00  0.00    +0.149 HD
BRANCH  13  14
ATOM     14  C   UNL     1      -1.091   0.077  -6.820  0.00  0.00    +0.037 A 
ATOM     15  C   UNL     1      -2.017   0.708  -7.651  0.00  0.00    +0.013 A 
ATOM     16  C   UNL     1      -1.313  -1.232  -6.395  0.00  0.00    +0.013 A 
ATOM     17  C   UNL     1      -3.166   0.028  -8.056  0.00  0.00    +0.001 A 
ATOM     18  C   UNL     1      -2.462  -1.911  -6.800  0.00  0.00    +0.001 A 
ATOM     19  C   UNL     1      -3.389  -1.281  -7.630  0.00  0.00    +0.000 A 
ENDBRANCH  13  14
ENDBRANCH  10   5
TORSDOF 5
ENDMDL
MODEL 9
REMARK VINA RESULT:      -5.5     25.141     26.531
REMARK  Name = 75536612
REMARK  7 active torsions:
REMARK  status: ('A' for Active; 'I' for Inactive)
REMARK    1  A    between atoms: O_2  and  C_7
REMARK    2  A    between atoms: N_4  and  C_6
REMARK    3  A    between atoms: N_4  and  C_11
REMARK    4  A    between atoms: N_4  and  C_12
REMARK    5  A    between atoms: N_5  and  C_10
REMARK    6  A    between atoms: C_8  and  C_10
REMARK    7  A    between atoms: C_13  and  C_14
REMARK                            x       y       z     vdW  Elec       q    Type
REMARK                         _______ _______ _______ _____ _____    ______ ____
ROOT
ATOM     10  C   UNL     1      -1.874 -10.417  13.722  0.00  0.00    +0.138 C 
ENDROOT
BRANCH  10   8
ATOM      1  O   UNL     1      -3.435 -11.551  12.267  0.00  0.00    -0.371 OA
ATOM      6  C   UNL     1      -3.269 -10.248  10.288  0.00  0.00    +0.113 C 
ATOM      7  C   UNL     1      -2.383  -9.639  11.359  0.00  0.00    +0.164 C 
ATOM      8  C   UNL     1      -2.197 -10.825  12.296  0.00  0.00    +0.165 C 
ATOM      9  C   UNL     1      -4.193 -11.119  11.123  0.00  0.00    +0.181 C 
BRANCH   6   4
ATOM      4  N   UNL     1      -3.984  -9.264   9.493  0.00  0.00    -0.301 NA
ATOM     11  C   UNL     1      -4.837  -9.920   8.496  0.00  0.00    +0.105 C 
ATOM     12  C   UNL     1      -4.793  -8.389  10.348  0.00  0.00    +0.105 C 
ENDBRANCH   6   4
BRANCH   7   2
ATOM      2  O   UNL     1      -1.150  -9.171  10.847  0.00  0.00    -0.388 OA
ATOM     20  H   UNL     1      -1.058  -9.494   9.934  0.00  0.00    +0.210 HD
ENDBRANCH   7   2
ENDBRANCH  10   8
BRANCH  10   5
ATOM      3  O   UNL     1      -2.073 -10.845  16.555  0.00  0.00    -0.270 OA
ATOM      5  N   UNL     1      -3.063 -10.329  14.521  0.00  0.00    -0.309 N 
ATOM     13  C   UNL     1      -3.066 -10.553  15.894  0.00  0.00    +0.244 C 
ATOM     21  H   UNL     1      -3.931 -10.161  14.025  0.00  0.00    +0.149 HD
BRANCH  13  14
ATOM     14  C   UNL     1      -4.384 -10.450  16.573  0.00  0.00    +0.037 A 
ATOM     15  C   UNL     1      -4.590 -11.086  17.798  0.00  0.00    +0.013 A 
ATOM     16  C   UNL     1      -5.414  -9.715  15.987  0.00  0.00    +0.013 A 
ATOM     17  C   UNL     1      -5.828 -10.987  18.435  0.00  0.00    +0.001 A 
ATOM     18  C   UNL     1      -6.651  -9.617  16.623  0.00  0.00    +0.001 A 
ATOM     19  C   UNL     1      -6.858 -10.253  17.847  0.00  0.00    +0.000 A 
ENDBRANCH  13  14
ENDBRANCH  10   5
TORSDOF 5
ENDMDL
MODEL 10
REMARK VINA RESULT:      -5.4     25.931     27.357
REMARK  Name = 75536612
REMARK  7 active torsions:
REMARK  status: ('A' for Active; 'I' for Inactive)
REMARK    1  A    between atoms: O_2  and  C_7
REMARK    2  A    between atoms: N_4  and  C_6
REMARK    3  A    between atoms: N_4  and  C_11
REMARK    4  A    between atoms: N_4  and  C_12
REMARK    5  A    between atoms: N_5  and  C_10
REMARK    6  A    between atoms: C_8  and  C_10
REMARK    7  A    between atoms: C_13  and  C_14
REMARK                            x       y       z     vdW  Elec       q    Type
REMARK                         _______ _______ _______ _____ _____    ______ ____
ROOT
ATOM     10  C   UNL     1      -2.952 -11.021  15.762  0.00  0.00    +0.138 C 
ENDROOT
BRANCH  10   8
ATOM      1  O   UNL     1      -4.963  -9.867  16.448  0.00  0.00    -0.371 OA
ATOM      6  C   UNL     1      -5.528 -11.044  18.432  0.00  0.00    +0.113 C 
ATOM      7  C   UNL     1      -4.297 -11.678  17.814  0.00  0.00    +0.164 C 
ATOM      8  C   UNL     1      -3.792 -10.543  16.934  0.00  0.00    +0.165 C 
ATOM      9  C   UNL     1      -6.087 -10.262  17.255  0.00  0.00    +0.181 C 
BRANCH   6   4
ATOM      4  N   UNL     1      -6.474 -12.008  18.970  0.00  0.00    -0.301 NA
ATOM     11  C   UNL     1      -7.706 -11.342  19.405  0.00  0.00    +0.105 C 
ATOM     12  C   UNL     1      -6.785 -13.043  17.980  0.00  0.00    +0.105 C 
ENDBRANCH   6   4
BRANCH   7   2
ATOM      2  O   UNL     1      -3.338 -12.064  18.780  0.00  0.00    -0.388 OA
ATOM     20  H   UNL     1      -3.508 -12.990  19.024  0.00  0.00    +0.210 HD
ENDBRANCH   7   2
ENDBRANCH  10   8
BRANCH  10   5
ATOM      3  O   UNL     1      -2.220 -11.853  13.113  0.00  0.00    -0.270 OA
ATOM      5  N   UNL     1      -3.405 -10.446  14.528  0.00  0.00    -0.309 N 
ATOM     13  C   UNL     1      -2.996 -10.917  13.283  0.00  0.00    +0.244 C 
ATOM     21  H   UNL     1      -3.992  -9.623  14.599  0.00  0.00    +0.149 HD
BRANCH  13  14
ATOM     14  C   UNL     1      -3.535 -10.197  12.100  0.00  0.00    +0.037 A 
ATOM     15  C   UNL     1      -2.696  -9.889  11.029  0.00  0.00    +0.013 A 
ATOM     16  C   UNL     1      -4.880  -9.832  12.060  0.00  0.00    +0.013 A 
ATOM     17  C   UNL     1      -3.203  -9.215   9.918  0.00  0.00    +0.001 A 
ATOM     18  C   UNL     1      -5.387  -9.157  10.950  0.00  0.00    +0.001 A 
ATOM     19  C   UNL     1      -4.548  -8.849   9.879  0.00  0.00    +0.000 A 
ENDBRANCH  13  14
ENDBRANCH  10   5
TORSDOF 5
ENDMDL
