MODEL 1
REMARK VINA RESULT:      -7.3      0.000      0.000
REMARK  Name = 45784383
REMARK  10 active torsions:
REMARK  status: ('A' for Active; 'I' for Inactive)
REMARK    1  A    between atoms: O_1  and  C_11
REMARK    2  A    between atoms: N_4  and  C_15
REMARK    3  A    between atoms: N_5  and  C_25
REMARK    4  A    between atoms: C_8  and  C_18
REMARK    5  A    between atoms: C_10  and  C_20
REMARK    6  A    between atoms: C_14  and  C_19
REMARK    7  A    between atoms: C_19  and  C_21
REMARK    8  A    between atoms: C_19  and  C_22
REMARK    9  A    between atoms: C_23  and  C_24
REMARK   10  A    between atoms: C_25  and  C_27
REMARK                            x       y       z     vdW  Elec       q    Type
REMARK                         _______ _______ _______ _____ _____    ______ ____
ROOT
ATOM      8  C   UNL     1     -17.244   5.597  22.087  0.00  0.00    -0.027 C 
ATOM      9  C   UNL     1     -15.879   5.224  22.757  0.00  0.00    +0.028 C 
ATOM     10  C   UNL     1     -14.677   5.564  21.804  0.00  0.00    +0.012 C 
ATOM     11  C   UNL     1     -15.901   3.771  23.314  0.00  0.00    +0.122 C 
ATOM     12  C   UNL     1     -18.395   5.356  23.092  0.00  0.00    +0.007 C 
ATOM     13  C   UNL     1     -17.237   7.100  21.730  0.00  0.00    +0.009 C 
ATOM     14  C   UNL     1     -17.113   3.506  24.236  0.00  0.00    +0.029 C 
ATOM     15  C   UNL     1     -14.724   7.063  21.392  0.00  0.00    +0.076 C 
ATOM     16  C   UNL     1     -18.444   3.923  23.608  0.00  0.00    +0.007 C 
ATOM     17  C   UNL     1     -16.076   7.496  20.828  0.00  0.00    +0.023 C 
ATOM     18  C   UNL     1     -17.520   4.769  20.806  0.00  0.00    +0.011 C 
ATOM     20  C   UNL     1     -13.301   5.250  22.414  0.00  0.00    +0.010 C 
ENDROOT
BRANCH  15   4
ATOM      3  O   UNL     1     -12.668   9.048  21.665  0.00  0.00    -0.268 OA
ATOM      4  N   UNL     1     -13.698   7.384  20.422  0.00  0.00    -0.307 N 
ATOM     23  C   UNL     1     -12.746   8.364  20.649  0.00  0.00    +0.264 C 
ATOM     35  H   UNL     1     -13.718   6.909  19.524  0.00  0.00    +0.149 HD
BRANCH  23  24
ATOM      6  N   UNL     1     -11.013   9.697  19.630  0.00  0.00    -0.247 NA
ATOM      7  N   UNL     1     -10.804   7.909  17.479  0.00  0.00    -0.259 NA
ATOM     24  C   UNL     1     -11.779   8.591  19.545  0.00  0.00    +0.143 A 
ATOM     26  C   UNL     1     -11.676   7.713  18.488  0.00  0.00    +0.143 A 
ATOM     28  C   UNL     1     -10.142   9.894  18.621  0.00  0.00    +0.131 A 
ATOM     31  C   UNL     1     -10.039   9.015  17.564  0.00  0.00    +0.130 A 
ENDBRANCH  23  24
ENDBRANCH  15   4
BRANCH  11   1
ATOM      1  O   UNL     1     -14.732   3.544  24.101  0.00  0.00    -0.391 OA
ATOM     36  H   UNL     1     -14.021   4.109  23.757  0.00  0.00    +0.210 HD
ENDBRANCH  11   1
BRANCH  14  19
ATOM     19  C   UNL     1     -17.190   2.036  24.667  0.00  0.00    +0.077 C 
ATOM     21  C   UNL     1     -18.172   1.280  23.779  0.00  0.00    +0.017 C 
BRANCH  19  22
ATOM      2  O   UNL     1     -18.490   1.216  26.538  0.00  0.00    -0.276 OA
ATOM      5  N   UNL     1     -16.820   2.772  26.947  0.00  0.00    -0.311 N 
ATOM     22  C   UNL     1     -17.587   1.946  26.137  0.00  0.00    +0.216 C 
ATOM     37  H   UNL     1     -16.056   3.307  26.546  0.00  0.00    +0.149 HD
BRANCH   5  25
ATOM     25  C   UNL     1     -17.009   2.860  28.376  0.00  0.00    +0.139 C 
BRANCH  25  27
ATOM     27  C   UNL     1     -15.881   2.221  29.133  0.00  0.00    -0.030 A 
ATOM     29  C   UNL     1     -15.864   0.839  29.323  0.00  0.00    +0.005 A 
ATOM     30  C   UNL     1     -14.851   3.008  29.646  0.00  0.00    +0.005 A 
ATOM     32  C   UNL     1     -14.815   0.245  30.026  0.00  0.00    +0.000 A 
ATOM     33  C   UNL     1     -13.803   2.415  30.350  0.00  0.00    +0.000 A 
ATOM     34  C   UNL     1     -13.785   1.033  30.540  0.00  0.00    +0.000 A 
ENDBRANCH  25  27
ENDBRANCH   5  25
ENDBRANCH  19  22
ENDBRANCH  14  19
TORSDOF 7
ENDMDL
MODEL 2
REMARK VINA RESULT:      -7.2      2.589     11.065
REMARK  Name = 45784383
REMARK  10 active torsions:
REMARK  status: ('A' for Active; 'I' for Inactive)
REMARK    1  A    between atoms: O_1  and  C_11
REMARK    2  A    between atoms: N_4  and  C_15
REMARK    3  A    between atoms: N_5  and  C_25
REMARK    4  A    between atoms: C_8  and  C_18
REMARK    5  A    between atoms: C_10  and  C_20
REMARK    6  A    between atoms: C_14  and  C_19
REMARK    7  A    between atoms: C_19  and  C_21
REMARK    8  A    between atoms: C_19  and  C_22
REMARK    9  A    between atoms: C_23  and  C_24
REMARK   10  A    between atoms: C_25  and  C_27
REMARK                            x       y       z     vdW  Elec       q    Type
REMARK                         _______ _______ _______ _____ _____    ______ ____
ROOT
ATOM      8  C   UNL     1     -14.979   7.610  20.631  0.00  0.00    -0.027 C 
ATOM      9  C   UNL     1     -13.760   6.670  20.914  0.00  0.00    +0.028 C 
ATOM     10  C   UNL     1     -13.953   5.896  22.267  0.00  0.00    +0.012 C 
ATOM     11  C   UNL     1     -12.412   7.435  20.767  0.00  0.00    +0.122 C 
ATOM     12  C   UNL     1     -14.811   8.270  19.242  0.00  0.00    +0.007 C 
ATOM     13  C   UNL     1     -16.271   6.763  20.597  0.00  0.00    +0.009 C 
ATOM     14  C   UNL     1     -12.294   8.178  19.417  0.00  0.00    +0.029 C 
ATOM     15  C   UNL     1     -15.293   5.107  22.250  0.00  0.00    +0.076 C 
ATOM     16  C   UNL     1     -13.510   9.052  19.109  0.00  0.00    +0.007 C 
ATOM     17  C   UNL     1     -16.499   5.967  21.874  0.00  0.00    +0.023 C 
ATOM     18  C   UNL     1     -15.127   8.725  21.697  0.00  0.00    +0.011 C 
ATOM     20  C   UNL     1     -12.802   4.930  22.593  0.00  0.00    +0.010 C 
ENDROOT
BRANCH  15   4
ATOM      3  O   UNL     1     -16.470   2.523  22.668  0.00  0.00    -0.268 OA
ATOM      4  N   UNL     1     -15.559   4.475  23.524  0.00  0.00    -0.307 N 
ATOM     23  C   UNL     1     -16.134   3.219  23.622  0.00  0.00    +0.264 C 
ATOM     35  H   UNL     1     -15.368   5.000  24.373  0.00  0.00    +0.149 HD
BRANCH  23  24
ATOM      6  N   UNL     1     -16.609   1.402  25.136  0.00  0.00    -0.247 NA
ATOM      7  N   UNL     1     -16.546   3.131  27.343  0.00  0.00    -0.259 NA
ATOM     24  C   UNL     1     -16.366   2.721  25.002  0.00  0.00    +0.143 A 
ATOM     26  C   UNL     1     -16.335   3.570  26.086  0.00  0.00    +0.143 A 
ATOM     28  C   UNL     1     -16.821   0.963  26.392  0.00  0.00    +0.131 A 
ATOM     31  C   UNL     1     -16.790   1.813  27.477  0.00  0.00    +0.130 A 
ENDBRANCH  23  24
ENDBRANCH  15   4
BRANCH  11   1
ATOM      1  O   UNL     1     -11.329   6.506  20.817  0.00  0.00    -0.391 OA
ATOM     36  H   UNL     1     -11.597   5.758  21.377  0.00  0.00    +0.210 HD
ENDBRANCH  11   1
BRANCH  14  19
ATOM     19  C   UNL     1     -11.021   9.030  19.345  0.00  0.00    +0.077 C 
ATOM     21  C   UNL     1     -11.248  10.371  20.035  0.00  0.00    +0.017 C 
BRANCH  19  22
ATOM      2  O   UNL     1     -10.075  10.248  17.478  0.00  0.00    -0.276 OA
ATOM      5  N   UNL     1     -10.879   8.103  17.110  0.00  0.00    -0.311 N 
ATOM     22  C   UNL     1     -10.601   9.216  17.891  0.00  0.00    +0.216 C 
ATOM     37  H   UNL     1     -11.268   7.269  17.538  0.00  0.00    +0.149 HD
BRANCH   5  25
ATOM     25  C   UNL     1     -10.574   8.042  15.700  0.00  0.00    +0.139 C 
BRANCH  25  27
ATOM     27  C   UNL     1     -11.772   8.359  14.852  0.00  0.00    -0.030 A 
ATOM     29  C   UNL     1     -13.047   8.356  15.417  0.00  0.00    +0.005 A 
ATOM     30  C   UNL     1     -11.609   8.655  13.499  0.00  0.00    +0.005 A 
ATOM     32  C   UNL     1     -14.160   8.651  14.629  0.00  0.00    +0.000 A 
ATOM     33  C   UNL     1     -12.721   8.949  12.710  0.00  0.00    +0.000 A 
ATOM     34  C   UNL     1     -13.997   8.947  13.275  0.00  0.00    +0.000 A 
ENDBRANCH  25  27
ENDBRANCH   5  25
ENDBRANCH  19  22
ENDBRANCH  14  19
TORSDOF 7
ENDMDL
MODEL 3
REMARK VINA RESULT:      -7.1     28.360     33.487
REMARK  Name = 45784383
REMARK  10 active torsions:
REMARK  status: ('A' for Active; 'I' for Inactive)
REMARK    1  A    between atoms: O_1  and  C_11
REMARK    2  A    between atoms: N_4  and  C_15
REMARK    3  A    between atoms: N_5  and  C_25
REMARK    4  A    between atoms: C_8  and  C_18
REMARK    5  A    between atoms: C_10  and  C_20
REMARK    6  A    between atoms: C_14  and  C_19
REMARK    7  A    between atoms: C_19  and  C_21
REMARK    8  A    between atoms: C_19  and  C_22
REMARK    9  A    between atoms: C_23  and  C_24
REMARK   10  A    between atoms: C_25  and  C_27
REMARK                            x       y       z     vdW  Elec       q    Type
REMARK                         _______ _______ _______ _____ _____    ______ ____
ROOT
ATOM      8  C   UNL     1       9.431   6.296   6.331  0.00  0.00    -0.027 C 
ATOM      9  C   UNL     1      10.477   7.349   5.835  0.00  0.00    +0.028 C 
ATOM     10  C   UNL     1      10.047   8.802   6.251  0.00  0.00    +0.012 C 
ATOM     11  C   UNL     1      10.804   7.154   4.326  0.00  0.00    +0.122 C 
ATOM     12  C   UNL     1       9.939   4.871   6.006  0.00  0.00    +0.007 C 
ATOM     13  C   UNL     1       9.291   6.407   7.866  0.00  0.00    +0.009 C 
ATOM     14  C   UNL     1      11.211   5.701   3.989  0.00  0.00    +0.029 C 
ATOM     15  C   UNL     1       9.837   8.882   7.789  0.00  0.00    +0.076 C 
ATOM     16  C   UNL     1      10.221   4.665   4.523  0.00  0.00    +0.007 C 
ATOM     17  C   UNL     1       8.901   7.803   8.331  0.00  0.00    +0.023 C 
ATOM     18  C   UNL     1       8.039   6.489   5.676  0.00  0.00    +0.011 C 
ATOM     20  C   UNL     1      11.049   9.887   5.820  0.00  0.00    +0.010 C 
ENDROOT
BRANCH  15   4
ATOM      3  O   UNL     1      11.176  10.810   9.442  0.00  0.00    -0.268 OA
ATOM      4  N   UNL     1       9.328  10.176   8.194  0.00  0.00    -0.307 N 
ATOM     23  C   UNL     1      10.055  11.039   8.997  0.00  0.00    +0.264 C 
ATOM     35  H   UNL     1       8.382  10.429   7.922  0.00  0.00    +0.149 HD
BRANCH  23  24
ATOM      6  N   UNL     1       8.201  12.222   9.986  0.00  0.00    -0.247 NA
ATOM      7  N   UNL     1       9.341  14.699   9.330  0.00  0.00    -0.259 NA
ATOM     24  C   UNL     1       9.383  12.316   9.344  0.00  0.00    +0.143 A 
ATOM     26  C   UNL     1       9.942  13.533   9.022  0.00  0.00    +0.143 A 
ATOM     28  C   UNL     1       7.599  13.388  10.293  0.00  0.00    +0.131 A 
ATOM     31  C   UNL     1       8.159  14.606   9.971  0.00  0.00    +0.130 A 
ENDBRANCH  23  24
ENDBRANCH  15   4
BRANCH  11   1
ATOM      1  O   UNL     1      11.910   7.981   3.967  0.00  0.00    -0.391 OA
ATOM     36  H   UNL     1      12.308   8.327   4.784  0.00  0.00    +0.210 HD
ENDBRANCH  11   1
BRANCH  14  19
ATOM     19  C   UNL     1      11.401   5.498   2.481  0.00  0.00    +0.077 C 
ATOM     21  C   UNL     1      10.561   4.318   2.002  0.00  0.00    +0.017 C 
BRANCH  19  22
ATOM      2  O   UNL     1      13.696   6.212   2.188  0.00  0.00    -0.276 OA
ATOM      5  N   UNL     1      13.180   3.975   1.856  0.00  0.00    -0.311 N 
ATOM     22  C   UNL     1      12.879   5.294   2.166  0.00  0.00    +0.216 C 
ATOM     37  H   UNL     1      12.457   3.265   1.910  0.00  0.00    +0.149 HD
BRANCH   5  25
ATOM     25  C   UNL     1      14.514   3.536   1.521  0.00  0.00    +0.139 C 
BRANCH  25  27
ATOM     27  C   UNL     1      14.902   3.932   0.125  0.00  0.00    -0.030 A 
ATOM     29  C   UNL     1      16.214   4.315  -0.150  0.00  0.00    +0.005 A 
ATOM     30  C   UNL     1      13.951   3.917  -0.894  0.00  0.00    +0.005 A 
ATOM     32  C   UNL     1      16.576   4.683  -1.447  0.00  0.00    +0.000 A 
ATOM     33  C   UNL     1      14.311   4.285  -2.190  0.00  0.00    +0.000 A 
ATOM     34  C   UNL     1      15.624   4.668  -2.467  0.00  0.00    +0.000 A 
ENDBRANCH  25  27
ENDBRANCH   5  25
ENDBRANCH  19  22
ENDBRANCH  14  19
TORSDOF 7
ENDMDL
MODEL 4
REMARK VINA RESULT:      -7.1      2.585     11.443
REMARK  Name = 45784383
REMARK  10 active torsions:
REMARK  status: ('A' for Active; 'I' for Inactive)
REMARK    1  A    between atoms: O_1  and  C_11
REMARK    2  A    between atoms: N_4  and  C_15
REMARK    3  A    between atoms: N_5  and  C_25
REMARK    4  A    between atoms: C_8  and  C_18
REMARK    5  A    between atoms: C_10  and  C_20
REMARK    6  A    between atoms: C_14  and  C_19
REMARK    7  A    between atoms: C_19  and  C_21
REMARK    8  A    between atoms: C_19  and  C_22
REMARK    9  A    between atoms: C_23  and  C_24
REMARK   10  A    between atoms: C_25  and  C_27
REMARK                            x       y       z     vdW  Elec       q    Type
REMARK                         _______ _______ _______ _____ _____    ______ ____
ROOT
ATOM      8  C   UNL     1     -15.146   7.488  20.621  0.00  0.00    -0.027 C 
ATOM      9  C   UNL     1     -13.939   6.585  21.040  0.00  0.00    +0.028 C 
ATOM     10  C   UNL     1     -14.247   5.826  22.380  0.00  0.00    +0.012 C 
ATOM     11  C   UNL     1     -12.602   7.382  21.016  0.00  0.00    +0.122 C 
ATOM     12  C   UNL     1     -14.856   8.132  19.245  0.00  0.00    +0.007 C 
ATOM     13  C   UNL     1     -16.407   6.607  20.473  0.00  0.00    +0.009 C 
ATOM     14  C   UNL     1     -12.368   8.109  19.672  0.00  0.00    +0.029 C 
ATOM     15  C   UNL     1     -15.559   5.002  22.243  0.00  0.00    +0.076 C 
ATOM     16  C   UNL     1     -13.569   8.946  19.229  0.00  0.00    +0.007 C 
ATOM     17  C   UNL     1     -16.742   5.825  21.735  0.00  0.00    +0.023 C 
ATOM     18  C   UNL     1     -15.428   8.615  21.647  0.00  0.00    +0.011 C 
ATOM     20  C   UNL     1     -13.111   4.895  22.836  0.00  0.00    +0.010 C 
ENDROOT
BRANCH  15   4
ATOM      3  O   UNL     1     -16.621   2.358  22.594  0.00  0.00    -0.268 OA
ATOM      4  N   UNL     1     -15.936   4.382  23.495  0.00  0.00    -0.307 N 
ATOM     23  C   UNL     1     -16.442   3.094  23.561  0.00  0.00    +0.264 C 
ATOM     35  H   UNL     1     -15.878   4.936  24.345  0.00  0.00    +0.149 HD
BRANCH  23  24
ATOM      6  N   UNL     1     -16.520   1.324  25.198  0.00  0.00    -0.247 NA
ATOM      7  N   UNL     1     -17.741   3.017  27.072  0.00  0.00    -0.259 NA
ATOM     24  C   UNL     1     -16.805   2.612  24.917  0.00  0.00    +0.143 A 
ATOM     26  C   UNL     1     -17.405   3.443  25.838  0.00  0.00    +0.143 A 
ATOM     28  C   UNL     1     -16.858   0.898  26.431  0.00  0.00    +0.131 A 
ATOM     31  C   UNL     1     -17.457   1.730  27.352  0.00  0.00    +0.130 A 
ENDBRANCH  23  24
ENDBRANCH  15   4
BRANCH  11   1
ATOM      1  O   UNL     1     -11.507   6.483  21.189  0.00  0.00    -0.391 OA
ATOM     36  H   UNL     1     -10.689   6.955  20.961  0.00  0.00    +0.210 HD
ENDBRANCH  11   1
BRANCH  14  19
ATOM     19  C   UNL     1     -11.115   8.993  19.712  0.00  0.00    +0.077 C 
ATOM     21  C   UNL     1     -11.408  10.282  20.474  0.00  0.00    +0.017 C 
BRANCH  19  22
ATOM      2  O   UNL     1     -10.573   8.415  17.424  0.00  0.00    -0.276 OA
ATOM      5  N   UNL     1     -10.288  10.612  18.110  0.00  0.00    -0.311 N 
ATOM     22  C   UNL     1     -10.636   9.282  18.294  0.00  0.00    +0.216 C 
ATOM     37  H   UNL     1     -10.417  11.278  18.865  0.00  0.00    +0.149 HD
BRANCH   5  25
ATOM     25  C   UNL     1      -9.803  11.127  16.851  0.00  0.00    +0.139 C 
BRANCH  25  27
ATOM     27  C   UNL     1      -9.396  12.568  16.952  0.00  0.00    -0.030 A 
ATOM     29  C   UNL     1      -8.206  12.999  16.365  0.00  0.00    +0.005 A 
ATOM     30  C   UNL     1     -10.207  13.476  17.632  0.00  0.00    +0.005 A 
ATOM     32  C   UNL     1      -7.828  14.339  16.458  0.00  0.00    +0.000 A 
ATOM     33  C   UNL     1      -9.829  14.815  17.726  0.00  0.00    +0.000 A 
ATOM     34  C   UNL     1      -8.639  15.247  17.139  0.00  0.00    +0.000 A 
ENDBRANCH  25  27
ENDBRANCH   5  25
ENDBRANCH  19  22
ENDBRANCH  14  19
TORSDOF 7
ENDMDL
MODEL 5
REMARK VINA RESULT:      -7.1     18.768     21.793
REMARK  Name = 45784383
REMARK  10 active torsions:
REMARK  status: ('A' for Active; 'I' for Inactive)
REMARK    1  A    between atoms: O_1  and  C_11
REMARK    2  A    between atoms: N_4  and  C_15
REMARK    3  A    between atoms: N_5  and  C_25
REMARK    4  A    between atoms: C_8  and  C_18
REMARK    5  A    between atoms: C_10  and  C_20
REMARK    6  A    between atoms: C_14  and  C_19
REMARK    7  A    between atoms: C_19  and  C_21
REMARK    8  A    between atoms: C_19  and  C_22
REMARK    9  A    between atoms: C_23  and  C_24
REMARK   10  A    between atoms: C_25  and  C_27
REMARK                            x       y       z     vdW  Elec       q    Type
REMARK                         _______ _______ _______ _____ _____    ______ ____
ROOT
ATOM      8  C   UNL     1      -4.754 -11.026  16.897  0.00  0.00    -0.027 C 
ATOM      9  C   UNL     1      -5.521 -10.407  15.681  0.00  0.00    +0.028 C 
ATOM     10  C   UNL     1      -7.075 -10.513  15.888  0.00  0.00    +0.012 C 
ATOM     11  C   UNL     1      -4.986 -10.968  14.331  0.00  0.00    +0.122 C 
ATOM     12  C   UNL     1      -3.234 -10.805  16.715  0.00  0.00    +0.007 C 
ATOM     13  C   UNL     1      -5.185 -10.297  18.189  0.00  0.00    +0.009 C 
ATOM     14  C   UNL     1      -3.451 -10.838  14.200  0.00  0.00    +0.029 C 
ATOM     15  C   UNL     1      -7.486  -9.841  17.228  0.00  0.00    +0.076 C 
ATOM     16  C   UNL     1      -2.700 -11.388  15.412  0.00  0.00    +0.007 C 
ATOM     17  C   UNL     1      -6.687 -10.343  18.430  0.00  0.00    +0.023 C 
ATOM     18  C   UNL     1      -5.020 -12.545  17.054  0.00  0.00    +0.011 C 
ATOM     20  C   UNL     1      -7.892  -9.895  14.740  0.00  0.00    +0.010 C 
ENDROOT
BRANCH  15   4
ATOM      3  O   UNL     1      -9.472  -7.776  17.429  0.00  0.00    -0.268 OA
ATOM      4  N   UNL     1      -8.895 -10.021  17.507  0.00  0.00    -0.307 N 
ATOM     23  C   UNL     1      -9.777  -8.955  17.584  0.00  0.00    +0.264 C 
ATOM     35  H   UNL     1      -9.232 -10.959  17.708  0.00  0.00    +0.149 HD
BRANCH  23  24
ATOM      6  N   UNL     1     -12.123  -8.898  17.025  0.00  0.00    -0.247 NA
ATOM      7  N   UNL     1     -12.782 -10.328  19.346  0.00  0.00    -0.259 NA
ATOM     24  C   UNL     1     -11.184  -9.305  17.904  0.00  0.00    +0.143 A 
ATOM     26  C   UNL     1     -11.509 -10.007  19.044  0.00  0.00    +0.143 A 
ATOM     28  C   UNL     1     -13.396  -9.219  17.328  0.00  0.00    +0.131 A 
ATOM     31  C   UNL     1     -13.720  -9.922  18.468  0.00  0.00    +0.130 A 
ENDBRANCH  23  24
ENDBRANCH  15   4
BRANCH  11   1
ATOM      1  O   UNL     1      -5.552 -10.228  13.249  0.00  0.00    -0.391 OA
ATOM     36  H   UNL     1      -5.107  -9.365  13.207  0.00  0.00    +0.210 HD
ENDBRANCH  11   1
BRANCH  14  19
ATOM     19  C   UNL     1      -2.929 -11.513  12.925  0.00  0.00    +0.077 C 
ATOM     21  C   UNL     1      -1.750 -12.420  13.258  0.00  0.00    +0.017 C 
BRANCH  19  22
ATOM      2  O   UNL     1      -1.428  -9.944  11.854  0.00  0.00    -0.276 OA
ATOM      5  N   UNL     1      -3.588 -10.146  11.035  0.00  0.00    -0.311 N 
ATOM     22  C   UNL     1      -2.545 -10.455  11.897  0.00  0.00    +0.216 C 
ATOM     37  H   UNL     1      -4.466 -10.651  11.102  0.00  0.00    +0.149 HD
BRANCH   5  25
ATOM     25  C   UNL     1      -3.466  -9.172   9.977  0.00  0.00    +0.139 C 
BRANCH  25  27
ATOM     27  C   UNL     1      -4.731  -9.047   9.178  0.00  0.00    -0.030 A 
ATOM     29  C   UNL     1      -4.907  -9.814   8.027  0.00  0.00    +0.005 A 
ATOM     30  C   UNL     1      -5.730  -8.164   9.588  0.00  0.00    +0.005 A 
ATOM     32  C   UNL     1      -6.083  -9.698   7.285  0.00  0.00    +0.000 A 
ATOM     33  C   UNL     1      -6.906  -8.047   8.847  0.00  0.00    +0.000 A 
ATOM     34  C   UNL     1      -7.082  -8.815   7.694  0.00  0.00    +0.000 A 
ENDBRANCH  25  27
ENDBRANCH   5  25
ENDBRANCH  19  22
ENDBRANCH  14  19
TORSDOF 7
ENDMDL
MODEL 6
REMARK VINA RESULT:      -6.8     18.917     22.147
REMARK  Name = 45784383
REMARK  10 active torsions:
REMARK  status: ('A' for Active; 'I' for Inactive)
REMARK    1  A    between atoms: O_1  and  C_11
REMARK    2  A    between atoms: N_4  and  C_15
REMARK    3  A    between atoms: N_5  and  C_25
REMARK    4  A    between atoms: C_8  and  C_18
REMARK    5  A    between atoms: C_10  and  C_20
REMARK    6  A    between atoms: C_14  and  C_19
REMARK    7  A    between atoms: C_19  and  C_21
REMARK    8  A    between atoms: C_19  and  C_22
REMARK    9  A    between atoms: C_23  and  C_24
REMARK   10  A    between atoms: C_25  and  C_27
REMARK                            x       y       z     vdW  Elec       q    Type
REMARK                         _______ _______ _______ _____ _____    ______ ____
ROOT
ATOM      8  C   UNL     1      -4.656 -11.288  17.196  0.00  0.00    -0.027 C 
ATOM      9  C   UNL     1      -5.637 -10.511  16.256  0.00  0.00    +0.028 C 
ATOM     10  C   UNL     1      -7.104 -10.562  16.815  0.00  0.00    +0.012 C 
ATOM     11  C   UNL     1      -5.470 -10.957  14.774  0.00  0.00    +0.122 C 
ATOM     12  C   UNL     1      -3.207 -11.124  16.679  0.00  0.00    +0.007 C 
ATOM     13  C   UNL     1      -4.723 -10.674  18.613  0.00  0.00    +0.009 C 
ATOM     14  C   UNL     1      -4.002 -10.889  14.295  0.00  0.00    +0.029 C 
ATOM     15  C   UNL     1      -7.146 -10.011  18.269  0.00  0.00    +0.076 C 
ATOM     16  C   UNL     1      -3.032 -11.596  15.242  0.00  0.00    +0.007 C 
ATOM     17  C   UNL     1      -6.128 -10.671  19.198  0.00  0.00    +0.023 C 
ATOM     18  C   UNL     1      -4.986 -12.800  17.279  0.00  0.00    +0.011 C 
ATOM     20  C   UNL     1      -8.118  -9.791  15.953  0.00  0.00    +0.010 C 
ENDROOT
BRANCH  15   4
ATOM      3  O   UNL     1      -8.333 -12.429  19.261  0.00  0.00    -0.268 OA
ATOM      4  N   UNL     1      -8.461 -10.150  18.857  0.00  0.00    -0.307 N 
ATOM     23  C   UNL     1      -8.946 -11.367  19.308  0.00  0.00    +0.264 C 
ATOM     35  H   UNL     1      -9.067  -9.334  18.885  0.00  0.00    +0.149 HD
BRANCH  23  24
ATOM      6  N   UNL     1     -10.814 -12.522  20.305  0.00  0.00    -0.247 NA
ATOM      7  N   UNL     1     -12.312 -10.153  20.412  0.00  0.00    -0.259 NA
ATOM     24  C   UNL     1     -10.324 -11.347  19.862  0.00  0.00    +0.143 A 
ATOM     26  C   UNL     1     -11.060 -10.183  19.914  0.00  0.00    +0.143 A 
ATOM     28  C   UNL     1     -12.066 -12.491  20.803  0.00  0.00    +0.131 A 
ATOM     31  C   UNL     1     -12.802 -11.327  20.855  0.00  0.00    +0.130 A 
ENDBRANCH  23  24
ENDBRANCH  15   4
BRANCH  11   1
ATOM      1  O   UNL     1      -6.217 -10.083  13.927  0.00  0.00    -0.391 OA
ATOM     36  H   UNL     1      -6.191  -9.192  14.313  0.00  0.00    +0.210 HD
ENDBRANCH  11   1
BRANCH  14  19
ATOM     19  C   UNL     1      -3.839 -11.455  12.879  0.00  0.00    +0.077 C 
ATOM     21  C   UNL     1      -2.776 -12.549  12.871  0.00  0.00    +0.017 C 
BRANCH  19  22
ATOM      2  O   UNL     1      -2.331 -10.030  11.630  0.00  0.00    -0.276 OA
ATOM      5  N   UNL     1      -4.615  -9.708  11.388  0.00  0.00    -0.311 N 
ATOM     22  C   UNL     1      -3.490 -10.332  11.907  0.00  0.00    +0.216 C 
ATOM     37  H   UNL     1      -5.540 -10.051  11.628  0.00  0.00    +0.149 HD
BRANCH   5  25
ATOM     25  C   UNL     1      -4.539  -8.615  10.449  0.00  0.00    +0.139 C 
BRANCH  25  27
ATOM     27  C   UNL     1      -5.385  -8.859   9.233  0.00  0.00    -0.030 A 
ATOM     29  C   UNL     1      -6.646  -8.271   9.132  0.00  0.00    +0.005 A 
ATOM     30  C   UNL     1      -4.911  -9.672   8.204  0.00  0.00    +0.005 A 
ATOM     32  C   UNL     1      -7.433  -8.497   8.002  0.00  0.00    +0.000 A 
ATOM     33  C   UNL     1      -5.697  -9.899   7.074  0.00  0.00    +0.000 A 
ATOM     34  C   UNL     1      -6.959  -9.311   6.974  0.00  0.00    +0.000 A 
ENDBRANCH  25  27
ENDBRANCH   5  25
ENDBRANCH  19  22
ENDBRANCH  14  19
TORSDOF 7
ENDMDL
MODEL 7
REMARK VINA RESULT:      -6.7     19.898     21.484
REMARK  Name = 45784383
REMARK  10 active torsions:
REMARK  status: ('A' for Active; 'I' for Inactive)
REMARK    1  A    between atoms: O_1  and  C_11
REMARK    2  A    between atoms: N_4  and  C_15
REMARK    3  A    between atoms: N_5  and  C_25
REMARK    4  A    between atoms: C_8  and  C_18
REMARK    5  A    between atoms: C_10  and  C_20
REMARK    6  A    between atoms: C_14  and  C_19
REMARK    7  A    between atoms: C_19  and  C_21
REMARK    8  A    between atoms: C_19  and  C_22
REMARK    9  A    between atoms: C_23  and  C_24
REMARK   10  A    between atoms: C_25  and  C_27
REMARK                            x       y       z     vdW  Elec       q    Type
REMARK                         _______ _______ _______ _____ _____    ______ ____
ROOT
ATOM      8  C   UNL     1      -3.346 -11.632  11.841  0.00  0.00    -0.027 C 
ATOM      9  C   UNL     1      -4.651 -10.977  12.405  0.00  0.00    +0.028 C 
ATOM     10  C   UNL     1      -5.323 -10.053  11.326  0.00  0.00    +0.012 C 
ATOM     11  C   UNL     1      -4.396 -10.313  13.789  0.00  0.00    +0.122 C 
ATOM     12  C   UNL     1      -2.771 -12.620  12.883  0.00  0.00    +0.007 C 
ATOM     13  C   UNL     1      -3.695 -12.439  10.570  0.00  0.00    +0.009 C 
ATOM     14  C   UNL     1      -3.726 -11.276  14.796  0.00  0.00    +0.029 C 
ATOM     15  C   UNL     1      -5.602 -10.858  10.026  0.00  0.00    +0.076 C 
ATOM     16  C   UNL     1      -2.484 -11.964  14.228  0.00  0.00    +0.007 C 
ATOM     17  C   UNL     1      -4.375 -11.600   9.496  0.00  0.00    +0.023 C 
ATOM     18  C   UNL     1      -2.257 -10.583  11.497  0.00  0.00    +0.011 C 
ATOM     20  C   UNL     1      -6.630  -9.399  11.806  0.00  0.00    +0.010 C 
ENDROOT
BRANCH  15   4
ATOM      3  O   UNL     1      -7.916 -11.354   8.401  0.00  0.00    -0.268 OA
ATOM      4  N   UNL     1      -6.115 -10.010   8.970  0.00  0.00    -0.307 N 
ATOM     23  C   UNL     1      -7.245 -10.339   8.240  0.00  0.00    +0.264 C 
ATOM     35  H   UNL     1      -5.591  -9.175   8.724  0.00  0.00    +0.149 HD
BRANCH  23  24
ATOM      6  N   UNL     1      -7.948  -8.130   7.574  0.00  0.00    -0.247 NA
ATOM      7  N   UNL     1      -7.998  -8.884   4.873  0.00  0.00    -0.259 NA
ATOM     24  C   UNL     1      -7.627  -9.377   7.175  0.00  0.00    +0.143 A 
ATOM     26  C   UNL     1      -7.652  -9.748   5.848  0.00  0.00    +0.143 A 
ATOM     28  C   UNL     1      -8.296  -7.267   6.598  0.00  0.00    +0.131 A 
ATOM     31  C   UNL     1      -8.320  -7.638   5.271  0.00  0.00    +0.130 A 
ENDBRANCH  23  24
ENDBRANCH  15   4
BRANCH  11   1
ATOM      1  O   UNL     1      -5.642  -9.921  14.366  0.00  0.00    -0.391 OA
ATOM     36  H   UNL     1      -5.559  -9.978  15.333  0.00  0.00    +0.210 HD
ENDBRANCH  11   1
BRANCH  14  19
ATOM     19  C   UNL     1      -3.365 -10.568  16.107  0.00  0.00    +0.077 C 
ATOM     21  C   UNL     1      -1.874 -10.721  16.392  0.00  0.00    +0.017 C 
BRANCH  19  22
ATOM      2  O   UNL     1      -3.761 -11.902  18.090  0.00  0.00    -0.276 OA
ATOM      5  N   UNL     1      -5.516 -10.659  17.221  0.00  0.00    -0.311 N 
ATOM     22  C   UNL     1      -4.209 -11.125  17.249  0.00  0.00    +0.216 C 
ATOM     37  H   UNL     1      -5.795  -9.977  16.523  0.00  0.00    +0.149 HD
BRANCH   5  25
ATOM     25  C   UNL     1      -6.505 -11.047  18.199  0.00  0.00    +0.139 C 
BRANCH  25  27
ATOM     27  C   UNL     1      -7.797 -10.304  18.016  0.00  0.00    -0.030 A 
ATOM     29  C   UNL     1      -8.942 -10.722  18.694  0.00  0.00    +0.005 A 
ATOM     30  C   UNL     1      -7.852  -9.198  17.169  0.00  0.00    +0.005 A 
ATOM     32  C   UNL     1     -10.143 -10.032  18.524  0.00  0.00    +0.000 A 
ATOM     33  C   UNL     1      -9.052  -8.508  16.999  0.00  0.00    +0.000 A 
ATOM     34  C   UNL     1     -10.198  -8.925  17.676  0.00  0.00    +0.000 A 
ENDBRANCH  25  27
ENDBRANCH   5  25
ENDBRANCH  19  22
ENDBRANCH  14  19
TORSDOF 7
ENDMDL
MODEL 8
REMARK VINA RESULT:      -6.7     20.159     21.610
REMARK  Name = 45784383
REMARK  10 active torsions:
REMARK  status: ('A' for Active; 'I' for Inactive)
REMARK    1  A    between atoms: O_1  and  C_11
REMARK    2  A    between atoms: N_4  and  C_15
REMARK    3  A    between atoms: N_5  and  C_25
REMARK    4  A    between atoms: C_8  and  C_18
REMARK    5  A    between atoms: C_10  and  C_20
REMARK    6  A    between atoms: C_14  and  C_19
REMARK    7  A    between atoms: C_19  and  C_21
REMARK    8  A    between atoms: C_19  and  C_22
REMARK    9  A    between atoms: C_23  and  C_24
REMARK   10  A    between atoms: C_25  and  C_27
REMARK                            x       y       z     vdW  Elec       q    Type
REMARK                         _______ _______ _______ _____ _____    ______ ____
ROOT
ATOM      8  C   UNL     1      -6.417 -10.156  11.940  0.00  0.00    -0.027 C 
ATOM      9  C   UNL     1      -5.184  -9.552  11.189  0.00  0.00    +0.028 C 
ATOM     10  C   UNL     1      -5.463  -9.452   9.646  0.00  0.00    +0.012 C 
ATOM     11  C   UNL     1      -3.869 -10.284  11.584  0.00  0.00    +0.122 C 
ATOM     12  C   UNL     1      -6.154 -10.136  13.464  0.00  0.00    +0.007 C 
ATOM     13  C   UNL     1      -7.657  -9.274  11.664  0.00  0.00    +0.009 C 
ATOM     14  C   UNL     1      -3.663 -10.351  13.115  0.00  0.00    +0.029 C 
ATOM     15  C   UNL     1      -6.754  -8.626   9.385  0.00  0.00    +0.076 C 
ATOM     16  C   UNL     1      -4.888 -10.885  13.859  0.00  0.00    +0.007 C 
ATOM     17  C   UNL     1      -7.962  -9.119  10.181  0.00  0.00    +0.023 C 
ATOM     18  C   UNL     1      -6.720 -11.613  11.507  0.00  0.00    +0.011 C 
ATOM     20  C   UNL     1      -4.300  -8.838   8.849  0.00  0.00    +0.010 C 
ENDROOT
BRANCH  15   4
ATOM      3  O   UNL     1      -8.103  -6.518   7.978  0.00  0.00    -0.268 OA
ATOM      4  N   UNL     1      -7.106  -8.611   7.981  0.00  0.00    -0.307 N 
ATOM     23  C   UNL     1      -7.760  -7.541   7.393  0.00  0.00    +0.264 C 
ATOM     35  H   UNL     1      -6.915  -9.441   7.426  0.00  0.00    +0.149 HD
BRANCH  23  24
ATOM      6  N   UNL     1      -7.160  -8.337   5.196  0.00  0.00    -0.247 NA
ATOM      7  N   UNL     1      -9.532  -7.319   4.102  0.00  0.00    -0.259 NA
ATOM     24  C   UNL     1      -8.073  -7.691   5.949  0.00  0.00    +0.143 A 
ATOM     26  C   UNL     1      -9.238  -7.191   5.411  0.00  0.00    +0.143 A 
ATOM     28  C   UNL     1      -7.454  -8.465   3.887  0.00  0.00    +0.131 A 
ATOM     31  C   UNL     1      -8.620  -7.965   3.350  0.00  0.00    +0.130 A 
ENDBRANCH  23  24
ENDBRANCH  15   4
BRANCH  11   1
ATOM      1  O   UNL     1      -2.750  -9.573  11.054  0.00  0.00    -0.391 OA
ATOM     36  H   UNL     1      -2.658  -9.810  10.116  0.00  0.00    +0.210 HD
ENDBRANCH  11   1
BRANCH  14  19
ATOM     19  C   UNL     1      -2.433 -11.188  13.489  0.00  0.00    +0.077 C 
ATOM     21  C   UNL     1      -2.706 -12.665  13.229  0.00  0.00    +0.017 C 
BRANCH  19  22
ATOM      2  O   UNL     1      -1.090 -10.256  15.275  0.00  0.00    -0.276 OA
ATOM      5  N   UNL     1      -2.922 -11.564  15.832  0.00  0.00    -0.311 N 
ATOM     22  C   UNL     1      -2.058 -10.939  14.945  0.00  0.00    +0.216 C 
ATOM     37  H   UNL     1      -3.730 -12.069  15.481  0.00  0.00    +0.149 HD
BRANCH   5  25
ATOM     25  C   UNL     1      -2.770 -11.476  17.265  0.00  0.00    +0.139 C 
BRANCH  25  27
ATOM     27  C   UNL     1      -4.084 -11.249  17.957  0.00  0.00    -0.030 A 
ATOM     29  C   UNL     1      -4.323 -11.826  19.204  0.00  0.00    +0.005 A 
ATOM     30  C   UNL     1      -5.064 -10.463  17.353  0.00  0.00    +0.005 A 
ATOM     32  C   UNL     1      -5.543 -11.615  19.847  0.00  0.00    +0.000 A 
ATOM     33  C   UNL     1      -6.284 -10.252  17.994  0.00  0.00    +0.000 A 
ATOM     34  C   UNL     1      -6.524 -10.829  19.242  0.00  0.00    +0.000 A 
ENDBRANCH  25  27
ENDBRANCH   5  25
ENDBRANCH  19  22
ENDBRANCH  14  19
TORSDOF 7
ENDMDL
MODEL 9
REMARK VINA RESULT:      -6.7     15.606     18.312
REMARK  Name = 45784383
REMARK  10 active torsions:
REMARK  status: ('A' for Active; 'I' for Inactive)
REMARK    1  A    between atoms: O_1  and  C_11
REMARK    2  A    between atoms: N_4  and  C_15
REMARK    3  A    between atoms: N_5  and  C_25
REMARK    4  A    between atoms: C_8  and  C_18
REMARK    5  A    between atoms: C_10  and  C_20
REMARK    6  A    between atoms: C_14  and  C_19
REMARK    7  A    between atoms: C_19  and  C_21
REMARK    8  A    between atoms: C_19  and  C_22
REMARK    9  A    between atoms: C_23  and  C_24
REMARK   10  A    between atoms: C_25  and  C_27
REMARK                            x       y       z     vdW  Elec       q    Type
REMARK                         _______ _______ _______ _____ _____    ______ ____
ROOT
ATOM      8  C   UNL     1     -11.343  -9.224  13.725  0.00  0.00    -0.027 C 
ATOM      9  C   UNL     1     -11.194  -8.174  14.876  0.00  0.00    +0.028 C 
ATOM     10  C   UNL     1     -10.378  -8.774  16.078  0.00  0.00    +0.012 C 
ATOM     11  C   UNL     1     -12.567  -7.544  15.248  0.00  0.00    +0.122 C 
ATOM     12  C   UNL     1     -12.050  -8.567  12.516  0.00  0.00    +0.007 C 
ATOM     13  C   UNL     1      -9.937  -9.670  13.264  0.00  0.00    +0.009 C 
ATOM     14  C   UNL     1     -13.316  -6.982  14.018  0.00  0.00    +0.029 C 
ATOM     15  C   UNL     1      -8.996  -9.288  15.587  0.00  0.00    +0.076 C 
ATOM     16  C   UNL     1     -13.413  -7.985  12.868  0.00  0.00    +0.007 C 
ATOM     17  C   UNL     1      -9.089 -10.237  14.393  0.00  0.00    +0.023 C 
ATOM     18  C   UNL     1     -12.157 -10.469  14.161  0.00  0.00    +0.011 C 
ATOM     20  C   UNL     1     -10.168  -7.783  17.235  0.00  0.00    +0.010 C 
ENDROOT
BRANCH  15   4
ATOM      3  O   UNL     1      -6.157  -9.218  16.014  0.00  0.00    -0.268 OA
ATOM      4  N   UNL     1      -8.264  -9.952  16.645  0.00  0.00    -0.307 N 
ATOM     23  C   UNL     1      -6.888  -9.857  16.767  0.00  0.00    +0.264 C 
ATOM     35  H   UNL     1      -8.778 -10.553  17.284  0.00  0.00    +0.149 HD
BRANCH  23  24
ATOM      6  N   UNL     1      -5.388 -11.570  17.563  0.00  0.00    -0.247 NA
ATOM      7  N   UNL     1      -6.094 -11.049  20.227  0.00  0.00    -0.259 NA
ATOM     24  C   UNL     1      -6.286 -10.618  17.890  0.00  0.00    +0.143 A 
ATOM     26  C   UNL     1      -6.632 -10.363  19.199  0.00  0.00    +0.143 A 
ATOM     28  C   UNL     1      -4.851 -12.256  18.591  0.00  0.00    +0.131 A 
ATOM     31  C   UNL     1      -5.197 -11.999  19.900  0.00  0.00    +0.130 A 
ENDBRANCH  23  24
ENDBRANCH  15   4
BRANCH  11   1
ATOM      1  O   UNL     1     -12.364  -6.447  16.139  0.00  0.00    -0.391 OA
ATOM     36  H   UNL     1     -11.623  -5.917  15.802  0.00  0.00    +0.210 HD
ENDBRANCH  11   1
BRANCH  14  19
ATOM     19  C   UNL     1     -14.721  -6.486  14.384  0.00  0.00    +0.077 C 
ATOM     21  C   UNL     1     -15.674  -7.668  14.523  0.00  0.00    +0.017 C 
BRANCH  19  22
ATOM      2  O   UNL     1     -16.179  -5.720  12.609  0.00  0.00    -0.276 OA
ATOM      5  N   UNL     1     -14.450  -4.336  13.298  0.00  0.00    -0.311 N 
ATOM     22  C   UNL     1     -15.212  -5.495  13.334  0.00  0.00    +0.216 C 
ATOM     37  H   UNL     1     -13.697  -4.204  13.966  0.00  0.00    +0.149 HD
BRANCH   5  25
ATOM     25  C   UNL     1     -14.720  -3.251  12.384  0.00  0.00    +0.139 C 
BRANCH  25  27
ATOM     27  C   UNL     1     -13.839  -3.306  11.169  0.00  0.00    -0.030 A 
ATOM     29  C   UNL     1     -12.474  -3.554  11.309  0.00  0.00    +0.005 A 
ATOM     30  C   UNL     1     -14.387  -3.110   9.902  0.00  0.00    +0.005 A 
ATOM     32  C   UNL     1     -11.656  -3.606  10.180  0.00  0.00    +0.000 A 
ATOM     33  C   UNL     1     -13.569  -3.160   8.773  0.00  0.00    +0.000 A 
ATOM     34  C   UNL     1     -12.203  -3.409   8.912  0.00  0.00    +0.000 A 
ENDBRANCH  25  27
ENDBRANCH   5  25
ENDBRANCH  19  22
ENDBRANCH  14  19
TORSDOF 7
ENDMDL
MODEL 10
REMARK VINA RESULT:      -6.6     19.454     22.425
REMARK  Name = 45784383
REMARK  10 active torsions:
REMARK  status: ('A' for Active; 'I' for Inactive)
REMARK    1  A    between atoms: O_1  and  C_11
REMARK    2  A    between atoms: N_4  and  C_15
REMARK    3  A    between atoms: N_5  and  C_25
REMARK    4  A    between atoms: C_8  and  C_18
REMARK    5  A    between atoms: C_10  and  C_20
REMARK    6  A    between atoms: C_14  and  C_19
REMARK    7  A    between atoms: C_19  and  C_21
REMARK    8  A    between atoms: C_19  and  C_22
REMARK    9  A    between atoms: C_23  and  C_24
REMARK   10  A    between atoms: C_25  and  C_27
REMARK                            x       y       z     vdW  Elec       q    Type
REMARK                         _______ _______ _______ _____ _____    ______ ____
ROOT
ATOM      8  C   UNL     1      -4.214 -10.721  11.372  0.00  0.00    -0.027 C 
ATOM      9  C   UNL     1      -5.682 -10.220  11.582  0.00  0.00    +0.028 C 
ATOM     10  C   UNL     1      -6.286 -10.802  12.911  0.00  0.00    +0.012 C 
ATOM     11  C   UNL     1      -6.543 -10.440  10.304  0.00  0.00    +0.122 C 
ATOM     12  C   UNL     1      -3.612 -10.042  10.118  0.00  0.00    +0.007 C 
ATOM     13  C   UNL     1      -3.360 -10.304  12.590  0.00  0.00    +0.009 C 
ATOM     14  C   UNL     1      -5.885  -9.849   9.036  0.00  0.00    +0.029 C 
ATOM     15  C   UNL     1      -5.378 -10.440  14.119  0.00  0.00    +0.076 C 
ATOM     16  C   UNL     1      -4.431 -10.289   8.858  0.00  0.00    +0.007 C 
ATOM     17  C   UNL     1      -3.911 -10.818  13.912  0.00  0.00    +0.023 C 
ATOM     18  C   UNL     1      -4.132 -12.258  11.192  0.00  0.00    +0.011 C 
ATOM     20  C   UNL     1      -7.720 -10.326  13.195  0.00  0.00    +0.010 C 
ENDROOT
BRANCH  15   4
ATOM      3  O   UNL     1      -6.418  -9.094  16.432  0.00  0.00    -0.268 OA
ATOM      4  N   UNL     1      -5.842 -11.058  15.343  0.00  0.00    -0.307 N 
ATOM     23  C   UNL     1      -6.328 -10.318  16.408  0.00  0.00    +0.264 C 
ATOM     35  H   UNL     1      -5.752 -12.066  15.439  0.00  0.00    +0.149 HD
BRANCH  23  24
ATOM      6  N   UNL     1      -7.367 -12.271  17.370  0.00  0.00    -0.247 NA
ATOM      7  N   UNL     1      -6.865 -11.345  19.969  0.00  0.00    -0.259 NA
ATOM     24  C   UNL     1      -6.740 -11.100  17.601  0.00  0.00    +0.143 A 
ATOM     26  C   UNL     1      -6.494 -10.645  18.878  0.00  0.00    +0.143 A 
ATOM     28  C   UNL     1      -7.739 -12.970  18.461  0.00  0.00    +0.131 A 
ATOM     31  C   UNL     1      -7.492 -12.514  19.738  0.00  0.00    +0.130 A 
ENDBRANCH  23  24
ENDBRANCH  15   4
BRANCH  11   1
ATOM      1  O   UNL     1      -7.800  -9.781  10.456  0.00  0.00    -0.391 OA
ATOM     36  H   UNL     1      -8.277  -9.840   9.612  0.00  0.00    +0.210 HD
ENDBRANCH  11   1
BRANCH  14  19
ATOM     19  C   UNL     1      -6.681 -10.190   7.770  0.00  0.00    +0.077 C 
ATOM     21  C   UNL     1      -5.856 -11.092   6.859  0.00  0.00    +0.017 C 
BRANCH  19  22
ATOM      2  O   UNL     1      -6.856  -8.700   5.869  0.00  0.00    -0.276 OA
ATOM      5  N   UNL     1      -7.762  -8.024   7.893  0.00  0.00    -0.311 N 
ATOM     22  C   UNL     1      -7.096  -8.908   7.056  0.00  0.00    +0.216 C 
ATOM     37  H   UNL     1      -7.968  -8.291   8.851  0.00  0.00    +0.149 HD
BRANCH   5  25
ATOM     25  C   UNL     1      -8.252  -6.742   7.446  0.00  0.00    +0.139 C 
BRANCH  25  27
ATOM     27  C   UNL     1      -9.395  -6.251   8.287  0.00  0.00    -0.030 A 
ATOM     29  C   UNL     1      -9.526  -4.890   8.559  0.00  0.00    +0.005 A 
ATOM     30  C   UNL     1     -10.325  -7.157   8.796  0.00  0.00    +0.005 A 
ATOM     32  C   UNL     1     -10.588  -4.434   9.340  0.00  0.00    +0.000 A 
ATOM     33  C   UNL     1     -11.387  -6.702   9.578  0.00  0.00    +0.000 A 
ATOM     34  C   UNL     1     -11.518  -5.340   9.850  0.00  0.00    +0.000 A 
ENDBRANCH  25  27
ENDBRANCH   5  25
ENDBRANCH  19  22
ENDBRANCH  14  19
TORSDOF 7
ENDMDL
