MODEL 1
REMARK VINA RESULT:      -6.7      0.000      0.000
REMARK  Name = 25389993
REMARK  10 active torsions:
REMARK  status: ('A' for Active; 'I' for Inactive)
REMARK    1  A    between atoms: O_1  and  C_20
REMARK    2  A    between atoms: O_1  and  C_32
REMARK    3  A    between atoms: O_3  and  C_27
REMARK    4  A    between atoms: O_3  and  C_33
REMARK    5  A    between atoms: O_4  and  C_26
REMARK    6  A    between atoms: N_7  and  C_11
REMARK    7  A    between atoms: N_7  and  C_21
REMARK    8  A    between atoms: C_9  and  C_17
REMARK    9  A    between atoms: C_13  and  C_20
REMARK   10  A    between atoms: C_21  and  C_26
REMARK                            x       y       z     vdW  Elec       q    Type
REMARK                         _______ _______ _______ _____ _____    ______ ____
ROOT
ATOM      5  N   UNL     1      13.343   7.646   4.880  0.00  0.00    -0.274 NA
ATOM      6  N   UNL     1      16.776   7.810   3.367  0.00  0.00    -0.356 N 
ATOM      8  C   UNL     1      14.237   7.753   3.686  0.00  0.00    +0.106 C 
ATOM      9  C   UNL     1      11.917   7.489   4.494  0.00  0.00    +0.090 C 
ATOM     10  C   UNL     1      14.093   6.517   2.786  0.00  0.00    +0.044 C 
ATOM     11  C   UNL     1      12.643   6.353   2.331  0.00  0.00    +0.057 C 
ATOM     12  C   UNL     1      11.728   6.276   3.551  0.00  0.00    +0.042 C 
ATOM     13  C   UNL     1      13.601   8.705   5.894  0.00  0.00    +0.172 C 
ATOM     14  C   UNL     1      15.655   7.950   4.135  0.00  0.00    +0.038 A 
ATOM     15  C   UNL     1      15.045   8.649   6.457  0.00  0.00    +0.068 C 
ATOM     16  C   UNL     1      16.041   8.374   5.387  0.00  0.00    -0.016 A 
ATOM     18  C   UNL     1      17.460   8.464   5.395  0.00  0.00    +0.003 A 
ATOM     19  C   UNL     1      17.896   8.103   4.116  0.00  0.00    +0.047 A 
ATOM     24  C   UNL     1      18.421   8.820   6.363  0.00  0.00    +0.010 A 
ATOM     25  C   UNL     1      19.249   8.081   3.760  0.00  0.00    +0.026 A 
ATOM     28  C   UNL     1      19.778   8.801   6.019  0.00  0.00    +0.001 A 
ATOM     30  C   UNL     1      20.183   8.436   4.737  0.00  0.00    +0.002 A 
ATOM     34  H   UNL     1      16.793   7.531   2.396  0.00  0.00    +0.166 HD
ENDROOT
BRANCH   9  17
ATOM     17  C   UNL     1      10.967   7.309   5.675  0.00  0.00    -0.027 A 
ATOM     22  C   UNL     1      11.236   6.345   6.646  0.00  0.00    +0.050 A 
ATOM     23  C   UNL     1       9.831   8.111   5.783  0.00  0.00    +0.005 A 
ATOM     27  C   UNL     1      10.368   6.182   7.726  0.00  0.00    +0.120 A 
ATOM     29  C   UNL     1       8.963   7.947   6.863  0.00  0.00    +0.004 A 
ATOM     31  C   UNL     1       9.232   6.983   7.834  0.00  0.00    +0.045 A 
BRANCH  27   3
ATOM      3  O   UNL     1      10.632   5.242   8.674  0.00  0.00    -0.495 OA
ATOM     33  C   UNL     1       9.549   4.402   9.075  0.00  0.00    +0.277 C 
ENDBRANCH  27   3
ENDBRANCH   9  17
BRANCH  13  20
ATOM      2  O   UNL     1      13.971  10.610   4.463  0.00  0.00    -0.249 OA
ATOM     20  C   UNL     1      13.299  10.063   5.327  0.00  0.00    +0.325 C 
BRANCH  20   1
ATOM      1  O   UNL     1      12.180  10.567   5.922  0.00  0.00    -0.467 OA
ATOM     32  C   UNL     1      12.175  10.533   7.352  0.00  0.00    +0.280 C 
ENDBRANCH  20   1
ENDBRANCH  13  20
BRANCH  11   7
ATOM      7  N   UNL     1      12.508   5.156   1.501  0.00  0.00    -0.311 NA
ATOM     35  H   UNL     1      12.053   4.415   2.034  0.00  0.00    +0.122 HD
BRANCH   7  21
ATOM     21  C   UNL     1      13.811   4.683   1.062  0.00  0.00    +0.109 C 
BRANCH  21  26
ATOM     26  C   UNL     1      14.061   3.265   1.551  0.00  0.00    +0.171 C 
BRANCH  26   4
ATOM      4  O   UNL     1      15.329   3.220   2.192  0.00  0.00    -0.394 OA
ATOM     36  H   UNL     1      15.665   4.133   2.223  0.00  0.00    +0.209 HD
ENDBRANCH  26   4
ENDBRANCH  21  26
ENDBRANCH   7  21
ENDBRANCH  11   7
TORSDOF 8
ENDMDL
MODEL 2
REMARK VINA RESULT:      -6.6     17.706     20.650
REMARK  Name = 25389993
REMARK  10 active torsions:
REMARK  status: ('A' for Active; 'I' for Inactive)
REMARK    1  A    between atoms: O_1  and  C_20
REMARK    2  A    between atoms: O_1  and  C_32
REMARK    3  A    between atoms: O_3  and  C_27
REMARK    4  A    between atoms: O_3  and  C_33
REMARK    5  A    between atoms: O_4  and  C_26
REMARK    6  A    between atoms: N_7  and  C_11
REMARK    7  A    between atoms: N_7  and  C_21
REMARK    8  A    between atoms: C_9  and  C_17
REMARK    9  A    between atoms: C_13  and  C_20
REMARK   10  A    between atoms: C_21  and  C_26
REMARK                            x       y       z     vdW  Elec       q    Type
REMARK                         _______ _______ _______ _____ _____    ______ ____
ROOT
ATOM      5  N   UNL     1      21.536   5.280  22.682  0.00  0.00    -0.274 NA
ATOM      6  N   UNL     1      18.694   7.634  21.982  0.00  0.00    -0.356 N 
ATOM      8  C   UNL     1      20.901   6.628  22.803  0.00  0.00    +0.106 C 
ATOM      9  C   UNL     1      22.773   5.173  23.497  0.00  0.00    +0.090 C 
ATOM     10  C   UNL     1      20.567   6.943  24.269  0.00  0.00    +0.044 C 
ATOM     11  C   UNL     1      21.829   6.890  25.128  0.00  0.00    +0.057 C 
ATOM     12  C   UNL     1      22.493   5.522  24.979  0.00  0.00    +0.042 C 
ATOM     13  C   UNL     1      21.678   4.831  21.270  0.00  0.00    +0.172 C 
ATOM     14  C   UNL     1      19.682   6.691  21.931  0.00  0.00    +0.038 A 
ATOM     15  C   UNL     1      20.313   4.707  20.545  0.00  0.00    +0.068 C 
ATOM     16  C   UNL     1      19.406   5.837  20.886  0.00  0.00    -0.016 A 
ATOM     18  C   UNL     1      18.181   6.253  20.297  0.00  0.00    +0.003 A 
ATOM     19  C   UNL     1      17.755   7.382  21.004  0.00  0.00    +0.047 A 
ATOM     24  C   UNL     1      17.391   5.785  19.228  0.00  0.00    +0.010 A 
ATOM     25  C   UNL     1      16.574   8.065  20.693  0.00  0.00    +0.026 A 
ATOM     28  C   UNL     1      16.207   6.459  18.907  0.00  0.00    +0.001 A 
ATOM     30  C   UNL     1      15.806   7.581  19.631  0.00  0.00    +0.002 A 
ATOM     34  H   UNL     1      18.649   8.403  22.636  0.00  0.00    +0.166 HD
ENDROOT
BRANCH   9  17
ATOM     17  C   UNL     1      23.426   3.794  23.462  0.00  0.00    -0.027 A 
ATOM     22  C   UNL     1      24.744   3.658  23.026  0.00  0.00    +0.050 A 
ATOM     23  C   UNL     1      22.706   2.671  23.868  0.00  0.00    +0.005 A 
ATOM     27  C   UNL     1      25.341   2.397  22.995  0.00  0.00    +0.120 A 
ATOM     29  C   UNL     1      23.303   1.412  23.837  0.00  0.00    +0.004 A 
ATOM     31  C   UNL     1      24.621   1.274  23.400  0.00  0.00    +0.045 A 
BRANCH  27   3
ATOM      3  O   UNL     1      26.627   2.265  22.570  0.00  0.00    -0.495 OA
ATOM     33  C   UNL     1      26.932   2.746  21.261  0.00  0.00    +0.277 C 
ENDBRANCH  27   3
ENDBRANCH   9  17
BRANCH  13  20
ATOM      2  O   UNL     1      22.359   6.916  20.270  0.00  0.00    -0.249 OA
ATOM     20  C   UNL     1      22.605   5.743  20.518  0.00  0.00    +0.325 C 
BRANCH  20   1
ATOM      1  O   UNL     1      23.733   5.061  20.170  0.00  0.00    -0.467 OA
ATOM     32  C   UNL     1      24.944   5.824  20.191  0.00  0.00    +0.280 C 
ENDBRANCH  20   1
ENDBRANCH  13  20
BRANCH  11   7
ATOM      7  N   UNL     1      21.497   7.158  26.527  0.00  0.00    -0.311 NA
ATOM     35  H   UNL     1      21.940   8.027  26.828  0.00  0.00    +0.122 HD
BRANCH   7  21
ATOM     21  C   UNL     1      21.958   6.077  27.383  0.00  0.00    +0.109 C 
BRANCH  21  26
ATOM     26  C   UNL     1      20.864   5.652  28.349  0.00  0.00    +0.171 C 
BRANCH  26   4
ATOM      4  O   UNL     1      19.749   5.187  27.600  0.00  0.00    -0.394 OA
ATOM     36  H   UNL     1      19.772   4.215  27.629  0.00  0.00    +0.209 HD
ENDBRANCH  26   4
ENDBRANCH  21  26
ENDBRANCH   7  21
ENDBRANCH  11   7
TORSDOF 8
ENDMDL
MODEL 3
REMARK VINA RESULT:      -6.4     25.670     29.489
REMARK  Name = 25389993
REMARK  10 active torsions:
REMARK  status: ('A' for Active; 'I' for Inactive)
REMARK    1  A    between atoms: O_1  and  C_20
REMARK    2  A    between atoms: O_1  and  C_32
REMARK    3  A    between atoms: O_3  and  C_27
REMARK    4  A    between atoms: O_3  and  C_33
REMARK    5  A    between atoms: O_4  and  C_26
REMARK    6  A    between atoms: N_7  and  C_11
REMARK    7  A    between atoms: N_7  and  C_21
REMARK    8  A    between atoms: C_9  and  C_17
REMARK    9  A    between atoms: C_13  and  C_20
REMARK   10  A    between atoms: C_21  and  C_26
REMARK                            x       y       z     vdW  Elec       q    Type
REMARK                         _______ _______ _______ _____ _____    ______ ____
ROOT
ATOM      5  N   UNL     1      -7.673  -9.868  15.174  0.00  0.00    -0.274 NA
ATOM      6  N   UNL     1      -4.302 -10.575  13.676  0.00  0.00    -0.356 N 
ATOM      8  C   UNL     1      -6.387 -10.630  15.162  0.00  0.00    +0.106 C 
ATOM      9  C   UNL     1      -8.492 -10.182  16.373  0.00  0.00    +0.090 C 
ATOM     10  C   UNL     1      -5.565 -10.332  16.425  0.00  0.00    +0.044 C 
ATOM     11  C   UNL     1      -6.363 -10.690  17.678  0.00  0.00    +0.057 C 
ATOM     12  C   UNL     1      -7.691  -9.935  17.674  0.00  0.00    +0.042 C 
ATOM     13  C   UNL     1      -8.405  -9.945  13.881  0.00  0.00    +0.172 C 
ATOM     14  C   UNL     1      -5.621 -10.305  13.914  0.00  0.00    +0.038 A 
ATOM     15  C   UNL     1      -7.590  -9.354  12.700  0.00  0.00    +0.068 C 
ATOM     16  C   UNL     1      -6.155  -9.741  12.777  0.00  0.00    -0.016 A 
ATOM     18  C   UNL     1      -5.113  -9.629  11.816  0.00  0.00    +0.003 A 
ATOM     19  C   UNL     1      -3.961 -10.158  12.407  0.00  0.00    +0.047 A 
ATOM     24  C   UNL     1      -5.032  -9.132  10.500  0.00  0.00    +0.010 A 
ATOM     25  C   UNL     1      -2.730 -10.213  11.742  0.00  0.00    +0.026 A 
ATOM     28  C   UNL     1      -3.807  -9.181   9.824  0.00  0.00    +0.001 A 
ATOM     30  C   UNL     1      -2.675  -9.713  10.438  0.00  0.00    +0.002 A 
ATOM     34  H   UNL     1      -3.665 -11.011  14.327  0.00  0.00    +0.166 HD
ENDROOT
BRANCH   9  17
ATOM     17  C   UNL     1      -9.789  -9.381  16.469  0.00  0.00    -0.027 A 
ATOM     22  C   UNL     1      -9.803  -8.032  16.115  0.00  0.00    +0.050 A 
ATOM     23  C   UNL     1     -10.958  -9.999  16.910  0.00  0.00    +0.005 A 
ATOM     27  C   UNL     1     -10.988  -7.300  16.202  0.00  0.00    +0.120 A 
ATOM     29  C   UNL     1     -12.143  -9.268  16.997  0.00  0.00    +0.004 A 
ATOM     31  C   UNL     1     -12.158  -7.918  16.643  0.00  0.00    +0.045 A 
BRANCH  27   3
ATOM      3  O   UNL     1     -11.002  -5.985  15.856  0.00  0.00    -0.495 OA
ATOM     33  C   UNL     1     -11.864  -5.604  14.784  0.00  0.00    +0.277 C 
ENDBRANCH  27   3
ENDBRANCH   9  17
BRANCH  13  20
ATOM      2  O   UNL     1      -8.054 -12.228  13.189  0.00  0.00    -0.249 OA
ATOM     20  C   UNL     1      -8.817 -11.360  13.592  0.00  0.00    +0.325 C 
BRANCH  20   1
ATOM      1  O   UNL     1     -10.148 -11.509  13.849  0.00  0.00    -0.467 OA
ATOM     32  C   UNL     1     -11.013 -10.601  13.160  0.00  0.00    +0.280 C 
ENDBRANCH  20   1
ENDBRANCH  13  20
BRANCH  11   7
ATOM      7  N   UNL     1      -5.588 -10.373  18.877  0.00  0.00    -0.311 NA
ATOM     35  H   UNL     1      -4.722  -9.901  18.615  0.00  0.00    +0.122 HD
BRANCH   7  21
ATOM     21  C   UNL     1      -5.256 -11.583  19.612  0.00  0.00    +0.109 C 
BRANCH  21  26
ATOM     26  C   UNL     1      -4.073 -12.293  18.972  0.00  0.00    +0.171 C 
BRANCH  26   4
ATOM      4  O   UNL     1      -2.989 -12.294  19.892  0.00  0.00    -0.394 OA
ATOM     36  H   UNL     1      -2.546 -13.156  19.809  0.00  0.00    +0.209 HD
ENDBRANCH  26   4
ENDBRANCH  21  26
ENDBRANCH   7  21
ENDBRANCH  11   7
TORSDOF 8
ENDMDL
MODEL 4
REMARK VINA RESULT:      -6.4      3.647      8.442
REMARK  Name = 25389993
REMARK  10 active torsions:
REMARK  status: ('A' for Active; 'I' for Inactive)
REMARK    1  A    between atoms: O_1  and  C_20
REMARK    2  A    between atoms: O_1  and  C_32
REMARK    3  A    between atoms: O_3  and  C_27
REMARK    4  A    between atoms: O_3  and  C_33
REMARK    5  A    between atoms: O_4  and  C_26
REMARK    6  A    between atoms: N_7  and  C_11
REMARK    7  A    between atoms: N_7  and  C_21
REMARK    8  A    between atoms: C_9  and  C_17
REMARK    9  A    between atoms: C_13  and  C_20
REMARK   10  A    between atoms: C_21  and  C_26
REMARK                            x       y       z     vdW  Elec       q    Type
REMARK                         _______ _______ _______ _____ _____    ______ ____
ROOT
ATOM      5  N   UNL     1       9.929   7.029   3.522  0.00  0.00    -0.274 NA
ATOM      6  N   UNL     1       7.084   9.232   4.599  0.00  0.00    -0.356 N 
ATOM      8  C   UNL     1       9.223   7.826   4.573  0.00  0.00    +0.106 C 
ATOM      9  C   UNL     1      11.066   6.255   4.082  0.00  0.00    +0.090 C 
ATOM     10  C   UNL     1       8.706   6.911   5.692  0.00  0.00    +0.044 C 
ATOM     11  C   UNL     1       9.859   6.133   6.324  0.00  0.00    +0.057 C 
ATOM     12  C   UNL     1      10.599   5.345   5.245  0.00  0.00    +0.042 C 
ATOM     13  C   UNL     1      10.256   7.830   2.311  0.00  0.00    +0.172 C 
ATOM     14  C   UNL     1       8.113   8.616   3.945  0.00  0.00    +0.038 A 
ATOM     15  C   UNL     1       8.993   8.398   1.614  0.00  0.00    +0.068 C 
ATOM     16  C   UNL     1       8.001   8.902   2.603  0.00  0.00    -0.016 A 
ATOM     18  C   UNL     1       6.836   9.697   2.424  0.00  0.00    +0.003 A 
ATOM     19  C   UNL     1       6.279   9.888   3.693  0.00  0.00    +0.047 A 
ATOM     24  C   UNL     1       6.199  10.278   1.310  0.00  0.00    +0.010 A 
ATOM     25  C   UNL     1       5.112  10.633   3.899  0.00  0.00    +0.026 A 
ATOM     28  C   UNL     1       5.031  11.025   1.503  0.00  0.00    +0.001 A 
ATOM     30  C   UNL     1       4.497  11.197   2.778  0.00  0.00    +0.002 A 
ATOM     34  H   UNL     1       6.927   9.213   5.598  0.00  0.00    +0.166 HD
ENDROOT
BRANCH   9  17
ATOM     17  C   UNL     1      11.781   5.372   3.063  0.00  0.00    -0.027 A 
ATOM     22  C   UNL     1      13.058   5.715   2.618  0.00  0.00    +0.050 A 
ATOM     23  C   UNL     1      11.159   4.221   2.579  0.00  0.00    +0.005 A 
ATOM     27  C   UNL     1      13.712   4.907   1.687  0.00  0.00    +0.120 A 
ATOM     29  C   UNL     1      11.814   3.414   1.649  0.00  0.00    +0.004 A 
ATOM     31  C   UNL     1      13.090   3.757   1.203  0.00  0.00    +0.045 A 
BRANCH  27   3
ATOM      3  O   UNL     1      14.958   5.242   1.254  0.00  0.00    -0.495 OA
ATOM     33  C   UNL     1      15.279   6.632   1.210  0.00  0.00    +0.277 C 
ENDBRANCH  27   3
ENDBRANCH   9  17
BRANCH  13  20
ATOM      2  O   UNL     1      12.152   8.806   3.438  0.00  0.00    -0.249 OA
ATOM     20  C   UNL     1      11.222   8.929   2.651  0.00  0.00    +0.325 C 
BRANCH  20   1
ATOM      1  O   UNL     1      10.896  10.055   1.953  0.00  0.00    -0.467 OA
ATOM     32  C   UNL     1      11.016  11.283   2.677  0.00  0.00    +0.280 C 
ENDBRANCH  20   1
ENDBRANCH  13  20
BRANCH  11   7
ATOM      7  N   UNL     1       9.354   5.241   7.367  0.00  0.00    -0.311 NA
ATOM     35  H   UNL     1       8.334   5.251   7.368  0.00  0.00    +0.122 HD
BRANCH   7  21
ATOM     21  C   UNL     1       9.827   5.659   8.677  0.00  0.00    +0.109 C 
BRANCH  21  26
ATOM     26  C   UNL     1       9.116   4.886   9.776  0.00  0.00    +0.171 C 
BRANCH  26   4
ATOM      4  O   UNL     1      10.061   4.551  10.784  0.00  0.00    -0.394 OA
ATOM     36  H   UNL     1      10.851   4.209  10.332  0.00  0.00    +0.209 HD
ENDBRANCH  26   4
ENDBRANCH  21  26
ENDBRANCH   7  21
ENDBRANCH  11   7
TORSDOF 8
ENDMDL
MODEL 5
REMARK VINA RESULT:      -6.3      4.378      6.539
REMARK  Name = 25389993
REMARK  10 active torsions:
REMARK  status: ('A' for Active; 'I' for Inactive)
REMARK    1  A    between atoms: O_1  and  C_20
REMARK    2  A    between atoms: O_1  and  C_32
REMARK    3  A    between atoms: O_3  and  C_27
REMARK    4  A    between atoms: O_3  and  C_33
REMARK    5  A    between atoms: O_4  and  C_26
REMARK    6  A    between atoms: N_7  and  C_11
REMARK    7  A    between atoms: N_7  and  C_21
REMARK    8  A    between atoms: C_9  and  C_17
REMARK    9  A    between atoms: C_13  and  C_20
REMARK   10  A    between atoms: C_21  and  C_26
REMARK                            x       y       z     vdW  Elec       q    Type
REMARK                         _______ _______ _______ _____ _____    ______ ____
ROOT
ATOM      5  N   UNL     1      10.409   7.379   4.643  0.00  0.00    -0.274 NA
ATOM      6  N   UNL     1      11.594   4.266   2.906  0.00  0.00    -0.356 N 
ATOM      8  C   UNL     1      10.261   5.924   4.332  0.00  0.00    +0.106 C 
ATOM      9  C   UNL     1       9.442   7.827   5.676  0.00  0.00    +0.090 C 
ATOM     10  C   UNL     1      10.448   5.075   5.598  0.00  0.00    +0.044 C 
ATOM     11  C   UNL     1       9.433   5.478   6.667  0.00  0.00    +0.057 C 
ATOM     12  C   UNL     1       9.564   6.972   6.961  0.00  0.00    +0.042 C 
ATOM     13  C   UNL     1      10.458   8.230   3.423  0.00  0.00    +0.172 C 
ATOM     14  C   UNL     1      11.233   5.537   3.257  0.00  0.00    +0.038 A 
ATOM     15  C   UNL     1      11.658   7.884   2.503  0.00  0.00    +0.068 C 
ATOM     16  C   UNL     1      11.865   6.413   2.403  0.00  0.00    -0.016 A 
ATOM     18  C   UNL     1      12.672   5.650   1.516  0.00  0.00    +0.003 A 
ATOM     19  C   UNL     1      12.485   4.306   1.855  0.00  0.00    +0.047 A 
ATOM     24  C   UNL     1      13.544   5.965   0.455  0.00  0.00    +0.010 A 
ATOM     25  C   UNL     1      13.129   3.262   1.181  0.00  0.00    +0.026 A 
ATOM     28  C   UNL     1      14.195   4.930  -0.227  0.00  0.00    +0.001 A 
ATOM     30  C   UNL     1      13.989   3.600   0.134  0.00  0.00    +0.002 A 
ATOM     34  H   UNL     1      11.264   3.419   3.347  0.00  0.00    +0.166 HD
ENDROOT
BRANCH   9  17
ATOM     17  C   UNL     1       9.593   9.292   6.080  0.00  0.00    -0.027 A 
ATOM     22  C   UNL     1       8.598  10.212   5.752  0.00  0.00    +0.050 A 
ATOM     23  C   UNL     1      10.726   9.709   6.777  0.00  0.00    +0.005 A 
ATOM     27  C   UNL     1       8.736  11.550   6.121  0.00  0.00    +0.120 A 
ATOM     29  C   UNL     1      10.864  11.046   7.147  0.00  0.00    +0.004 A 
ATOM     31  C   UNL     1       9.869  11.967   6.819  0.00  0.00    +0.045 A 
BRANCH  27   3
ATOM      3  O   UNL     1       7.764  12.447   5.802  0.00  0.00    -0.495 OA
ATOM     33  C   UNL     1       7.067  12.241   4.574  0.00  0.00    +0.277 C 
ENDBRANCH  27   3
ENDBRANCH   9  17
BRANCH  13  20
ATOM      2  O   UNL     1       8.074   7.951   3.195  0.00  0.00    -0.249 OA
ATOM     20  C   UNL     1       9.162   8.145   2.668  0.00  0.00    +0.325 C 
BRANCH  20   1
ATOM      1  O   UNL     1       9.397   8.315   1.336  0.00  0.00    -0.467 OA
ATOM     32  C   UNL     1       8.545   9.256   0.676  0.00  0.00    +0.280 C 
ENDBRANCH  20   1
ENDBRANCH  13  20
BRANCH  11   7
ATOM      7  N   UNL     1       9.639   4.689   7.880  0.00  0.00    -0.311 NA
ATOM     35  H   UNL     1       8.991   3.901   7.896  0.00  0.00    +0.122 HD
BRANCH   7  21
ATOM     21  C   UNL     1       9.419   5.499   9.067  0.00  0.00    +0.109 C 
BRANCH  21  26
ATOM     26  C   UNL     1       8.993   4.630  10.240  0.00  0.00    +0.171 C 
BRANCH  26   4
ATOM      4  O   UNL     1      10.154   4.226  10.954  0.00  0.00    -0.394 OA
ATOM     36  H   UNL     1       9.963   3.352  11.335  0.00  0.00    +0.209 HD
ENDBRANCH  26   4
ENDBRANCH  21  26
ENDBRANCH   7  21
ENDBRANCH  11   7
TORSDOF 8
ENDMDL
MODEL 6
REMARK VINA RESULT:      -6.1     25.739     29.705
REMARK  Name = 25389993
REMARK  10 active torsions:
REMARK  status: ('A' for Active; 'I' for Inactive)
REMARK    1  A    between atoms: O_1  and  C_20
REMARK    2  A    between atoms: O_1  and  C_32
REMARK    3  A    between atoms: O_3  and  C_27
REMARK    4  A    between atoms: O_3  and  C_33
REMARK    5  A    between atoms: O_4  and  C_26
REMARK    6  A    between atoms: N_7  and  C_11
REMARK    7  A    between atoms: N_7  and  C_21
REMARK    8  A    between atoms: C_9  and  C_17
REMARK    9  A    between atoms: C_13  and  C_20
REMARK   10  A    between atoms: C_21  and  C_26
REMARK                            x       y       z     vdW  Elec       q    Type
REMARK                         _______ _______ _______ _____ _____    ______ ____
ROOT
ATOM      5  N   UNL     1      -7.624  -9.887  15.220  0.00  0.00    -0.274 NA
ATOM      6  N   UNL     1      -4.242 -10.597  13.748  0.00  0.00    -0.356 N 
ATOM      8  C   UNL     1      -6.341 -10.655  15.213  0.00  0.00    +0.106 C 
ATOM      9  C   UNL     1      -8.456 -10.205  16.407  0.00  0.00    +0.090 C 
ATOM     10  C   UNL     1      -5.531 -10.370  16.487  0.00  0.00    +0.044 C 
ATOM     11  C   UNL     1      -6.342 -10.733  17.729  0.00  0.00    +0.057 C 
ATOM     12  C   UNL     1      -7.666  -9.972  17.718  0.00  0.00    +0.042 C 
ATOM     13  C   UNL     1      -8.344  -9.950  13.918  0.00  0.00    +0.172 C 
ATOM     14  C   UNL     1      -5.562 -10.324  13.975  0.00  0.00    +0.038 A 
ATOM     15  C   UNL     1      -7.516  -9.355  12.750  0.00  0.00    +0.068 C 
ATOM     16  C   UNL     1      -6.083  -9.748  12.837  0.00  0.00    -0.016 A 
ATOM     18  C   UNL     1      -5.031  -9.634  11.888  0.00  0.00    +0.003 A 
ATOM     19  C   UNL     1      -3.887 -10.173  12.485  0.00  0.00    +0.047 A 
ATOM     24  C   UNL     1      -4.936  -9.128  10.576  0.00  0.00    +0.010 A 
ATOM     25  C   UNL     1      -2.651 -10.229  11.832  0.00  0.00    +0.026 A 
ATOM     28  C   UNL     1      -3.705  -9.178   9.912  0.00  0.00    +0.001 A 
ATOM     30  C   UNL     1      -2.581  -9.720  10.532  0.00  0.00    +0.002 A 
ATOM     34  H   UNL     1      -3.613 -11.042  14.402  0.00  0.00    +0.166 HD
ENDROOT
BRANCH   9  17
ATOM     17  C   UNL     1      -9.750  -9.399  16.498  0.00  0.00    -0.027 A 
ATOM     22  C   UNL     1     -10.982 -10.041  16.371  0.00  0.00    +0.050 A 
ATOM     23  C   UNL     1      -9.699  -8.022  16.708  0.00  0.00    +0.005 A 
ATOM     27  C   UNL     1     -12.164  -9.305  16.454  0.00  0.00    +0.120 A 
ATOM     29  C   UNL     1     -10.881  -7.286  16.792  0.00  0.00    +0.004 A 
ATOM     31  C   UNL     1     -12.113  -7.927  16.665  0.00  0.00    +0.045 A 
BRANCH  27   3
ATOM      3  O   UNL     1     -13.365  -9.931  16.331  0.00  0.00    -0.495 OA
ATOM     33  C   UNL     1     -14.353  -9.289  15.526  0.00  0.00    +0.277 C 
ENDBRANCH  27   3
ENDBRANCH   9  17
BRANCH  13  20
ATOM      2  O   UNL     1      -8.993 -12.206  14.470  0.00  0.00    -0.249 OA
ATOM     20  C   UNL     1      -8.760 -11.362  13.615  0.00  0.00    +0.325 C 
BRANCH  20   1
ATOM      1  O   UNL     1      -8.832 -11.537  12.265  0.00  0.00    -0.467 OA
ATOM     32  C   UNL     1      -8.735 -12.891  11.814  0.00  0.00    +0.280 C 
ENDBRANCH  20   1
ENDBRANCH  13  20
BRANCH  11   7
ATOM      7  N   UNL     1      -5.576 -10.429  18.937  0.00  0.00    -0.311 NA
ATOM     35  H   UNL     1      -4.695  -9.980  18.686  0.00  0.00    +0.122 HD
BRANCH   7  21
ATOM     21  C   UNL     1      -5.286 -11.642  19.684  0.00  0.00    +0.109 C 
BRANCH  21  26
ATOM     26  C   UNL     1      -3.952 -12.232  19.255  0.00  0.00    +0.171 C 
BRANCH  26   4
ATOM      4  O   UNL     1      -4.188 -13.478  18.614  0.00  0.00    -0.394 OA
ATOM     36  H   UNL     1      -3.327 -13.803  18.298  0.00  0.00    +0.209 HD
ENDBRANCH  26   4
ENDBRANCH  21  26
ENDBRANCH   7  21
ENDBRANCH  11   7
TORSDOF 8
ENDMDL
MODEL 7
REMARK VINA RESULT:      -6.0     29.261     32.346
REMARK  Name = 25389993
REMARK  10 active torsions:
REMARK  status: ('A' for Active; 'I' for Inactive)
REMARK    1  A    between atoms: O_1  and  C_20
REMARK    2  A    between atoms: O_1  and  C_32
REMARK    3  A    between atoms: O_3  and  C_27
REMARK    4  A    between atoms: O_3  and  C_33
REMARK    5  A    between atoms: O_4  and  C_26
REMARK    6  A    between atoms: N_7  and  C_11
REMARK    7  A    between atoms: N_7  and  C_21
REMARK    8  A    between atoms: C_9  and  C_17
REMARK    9  A    between atoms: C_13  and  C_20
REMARK   10  A    between atoms: C_21  and  C_26
REMARK                            x       y       z     vdW  Elec       q    Type
REMARK                         _______ _______ _______ _____ _____    ______ ____
ROOT
ATOM      5  N   UNL     1      -9.910  -9.668  17.448  0.00  0.00    -0.274 NA
ATOM      6  N   UNL     1      -7.279 -11.736  19.153  0.00  0.00    -0.356 N 
ATOM      8  C   UNL     1      -9.516 -10.841  18.287  0.00  0.00    +0.106 C 
ATOM      9  C   UNL     1     -11.385  -9.508  17.375  0.00  0.00    +0.090 C 
ATOM     10  C   UNL     1     -10.078 -10.705  19.710  0.00  0.00    +0.044 C 
ATOM     11  C   UNL     1     -11.601 -10.586  19.675  0.00  0.00    +0.057 C 
ATOM     12  C   UNL     1     -12.003  -9.407  18.791  0.00  0.00    +0.042 C 
ATOM     13  C   UNL     1      -9.214  -9.637  16.133  0.00  0.00    +0.172 C 
ATOM     14  C   UNL     1      -8.022 -10.978  18.293  0.00  0.00    +0.038 A 
ATOM     15  C   UNL     1      -7.673  -9.538  16.278  0.00  0.00    +0.068 C 
ATOM     16  C   UNL     1      -7.168 -10.407  17.376  0.00  0.00    -0.016 A 
ATOM     18  C   UNL     1      -5.844 -10.804  17.709  0.00  0.00    +0.003 A 
ATOM     19  C   UNL     1      -5.943 -11.636  18.829  0.00  0.00    +0.047 A 
ATOM     24  C   UNL     1      -4.569 -10.542  17.169  0.00  0.00    +0.010 A 
ATOM     25  C   UNL     1      -4.823 -12.220  19.435  0.00  0.00    +0.026 A 
ATOM     28  C   UNL     1      -3.442 -11.118  17.767  0.00  0.00    +0.001 A 
ATOM     30  C   UNL     1      -3.570 -11.943  18.882  0.00  0.00    +0.002 A 
ATOM     34  H   UNL     1      -7.644 -12.289  19.916  0.00  0.00    +0.166 HD
ENDROOT
BRANCH   9  17
ATOM     17  C   UNL     1     -11.841  -8.285  16.583  0.00  0.00    -0.027 A 
ATOM     22  C   UNL     1     -12.958  -8.370  15.752  0.00  0.00    +0.050 A 
ATOM     23  C   UNL     1     -11.142  -7.084  16.692  0.00  0.00    +0.005 A 
ATOM     27  C   UNL     1     -13.375  -7.252  15.028  0.00  0.00    +0.120 A 
ATOM     29  C   UNL     1     -11.560  -5.966  15.969  0.00  0.00    +0.004 A 
ATOM     31  C   UNL     1     -12.676  -6.051  15.137  0.00  0.00    +0.045 A 
BRANCH  27   3
ATOM      3  O   UNL     1     -14.465  -7.335  14.218  0.00  0.00    -0.495 OA
ATOM     33  C   UNL     1     -15.265  -6.161  14.083  0.00  0.00    +0.277 C 
ENDBRANCH  27   3
ENDBRANCH   9  17
BRANCH  13  20
ATOM      2  O   UNL     1     -10.026 -11.878  15.769  0.00  0.00    -0.249 OA
ATOM     20  C   UNL     1      -9.598 -10.830  15.304  0.00  0.00    +0.325 C 
BRANCH  20   1
ATOM      1  O   UNL     1      -9.396 -10.553  13.984  0.00  0.00    -0.467 OA
ATOM     32  C   UNL     1     -10.349  -9.667  13.389  0.00  0.00    +0.280 C 
ENDBRANCH  20   1
ENDBRANCH  13  20
BRANCH  11   7
ATOM      7  N   UNL     1     -12.126 -10.424  21.030  0.00  0.00    -0.311 NA
ATOM     35  H   UNL     1     -11.625 -11.039  21.671  0.00  0.00    +0.122 HD
BRANCH   7  21
ATOM     21  C   UNL     1     -13.542 -10.752  21.078  0.00  0.00    +0.109 C 
BRANCH  21  26
ATOM     26  C   UNL     1     -13.747 -12.181  21.553  0.00  0.00    +0.171 C 
BRANCH  26   4
ATOM      4  O   UNL     1     -12.732 -12.500  22.496  0.00  0.00    -0.394 OA
ATOM     36  H   UNL     1     -13.051 -12.206  23.367  0.00  0.00    +0.209 HD
ENDBRANCH  26   4
ENDBRANCH  21  26
ENDBRANCH   7  21
ENDBRANCH  11   7
TORSDOF 8
ENDMDL
MODEL 8
REMARK VINA RESULT:      -6.0     12.257     15.253
REMARK  Name = 25389993
REMARK  10 active torsions:
REMARK  status: ('A' for Active; 'I' for Inactive)
REMARK    1  A    between atoms: O_1  and  C_20
REMARK    2  A    between atoms: O_1  and  C_32
REMARK    3  A    between atoms: O_3  and  C_27
REMARK    4  A    between atoms: O_3  and  C_33
REMARK    5  A    between atoms: O_4  and  C_26
REMARK    6  A    between atoms: N_7  and  C_11
REMARK    7  A    between atoms: N_7  and  C_21
REMARK    8  A    between atoms: C_9  and  C_17
REMARK    9  A    between atoms: C_13  and  C_20
REMARK   10  A    between atoms: C_21  and  C_26
REMARK                            x       y       z     vdW  Elec       q    Type
REMARK                         _______ _______ _______ _____ _____    ______ ____
ROOT
ATOM      5  N   UNL     1      -0.874  10.863   4.832  0.00  0.00    -0.274 NA
ATOM      6  N   UNL     1       2.236  12.872   5.464  0.00  0.00    -0.356 N 
ATOM      8  C   UNL     1       0.166  11.834   4.372  0.00  0.00    +0.106 C 
ATOM      9  C   UNL     1      -1.784  10.459   3.729  0.00  0.00    +0.090 C 
ATOM     10  C   UNL     1       0.997  11.238   3.226  0.00  0.00    +0.044 C 
ATOM     11  C   UNL     1       0.096  10.855   2.054  0.00  0.00    +0.057 C 
ATOM     12  C   UNL     1      -0.986   9.888   2.532  0.00  0.00    +0.042 C 
ATOM     13  C   UNL     1      -1.561  11.297   6.079  0.00  0.00    +0.172 C 
ATOM     14  C   UNL     1       1.028  12.236   5.532  0.00  0.00    +0.038 A 
ATOM     15  C   UNL     1      -0.584  11.448   7.274  0.00  0.00    +0.068 C 
ATOM     16  C   UNL     1       0.696  12.084   6.860  0.00  0.00    -0.016 A 
ATOM     18  C   UNL     1       1.760  12.618   7.637  0.00  0.00    +0.003 A 
ATOM     19  C   UNL     1       2.713  13.104   6.737  0.00  0.00    +0.047 A 
ATOM     24  C   UNL     1       2.008  12.741   9.019  0.00  0.00    +0.010 A 
ATOM     25  C   UNL     1       3.905  13.708   7.154  0.00  0.00    +0.026 A 
ATOM     28  C   UNL     1       3.197  13.342   9.449  0.00  0.00    +0.001 A 
ATOM     30  C   UNL     1       4.130  13.816   8.529  0.00  0.00    +0.002 A 
ATOM     34  H   UNL     1       2.715  13.134   4.615  0.00  0.00    +0.166 HD
ENDROOT
BRANCH   9  17
ATOM     17  C   UNL     1      -2.826   9.418   4.130  0.00  0.00    -0.027 A 
ATOM     22  C   UNL     1      -4.132   9.519   3.652  0.00  0.00    +0.050 A 
ATOM     23  C   UNL     1      -2.470   8.364   4.971  0.00  0.00    +0.005 A 
ATOM     27  C   UNL     1      -5.084   8.567   4.017  0.00  0.00    +0.120 A 
ATOM     29  C   UNL     1      -3.421   7.412   5.335  0.00  0.00    +0.004 A 
ATOM     31  C   UNL     1      -4.729   7.513   4.859  0.00  0.00    +0.045 A 
BRANCH  27   3
ATOM      3  O   UNL     1      -6.358   8.666   3.551  0.00  0.00    -0.495 OA
ATOM     33  C   UNL     1      -6.608   9.647   2.545  0.00  0.00    +0.277 C 
ENDBRANCH  27   3
ENDBRANCH   9  17
BRANCH  13  20
ATOM      2  O   UNL     1      -1.798  13.669   5.712  0.00  0.00    -0.249 OA
ATOM     20  C   UNL     1      -2.322  12.570   5.846  0.00  0.00    +0.325 C 
BRANCH  20   1
ATOM      1  O   UNL     1      -3.659  12.303   5.808  0.00  0.00    -0.467 OA
ATOM     32  C   UNL     1      -4.151  11.478   6.869  0.00  0.00    +0.280 C 
ENDBRANCH  20   1
ENDBRANCH  13  20
BRANCH  11   7
ATOM      7  N   UNL     1       0.890  10.259   0.981  0.00  0.00    -0.311 NA
ATOM     35  H   UNL     1       0.818   9.242   1.020  0.00  0.00    +0.122 HD
BRANCH   7  21
ATOM     21  C   UNL     1       2.290  10.633   1.106  0.00  0.00    +0.109 C 
BRANCH  21  26
ATOM     26  C   UNL     1       3.100  10.082  -0.057  0.00  0.00    +0.171 C 
BRANCH  26   4
ATOM      4  O   UNL     1       3.864   8.975   0.402  0.00  0.00    -0.394 OA
ATOM     36  H   UNL     1       3.477   8.694   1.249  0.00  0.00    +0.209 HD
ENDBRANCH  26   4
ENDBRANCH  21  26
ENDBRANCH   7  21
ENDBRANCH  11   7
TORSDOF 8
ENDMDL
MODEL 9
REMARK VINA RESULT:      -6.0     28.695     33.511
REMARK  Name = 25389993
REMARK  10 active torsions:
REMARK  status: ('A' for Active; 'I' for Inactive)
REMARK    1  A    between atoms: O_1  and  C_20
REMARK    2  A    between atoms: O_1  and  C_32
REMARK    3  A    between atoms: O_3  and  C_27
REMARK    4  A    between atoms: O_3  and  C_33
REMARK    5  A    between atoms: O_4  and  C_26
REMARK    6  A    between atoms: N_7  and  C_11
REMARK    7  A    between atoms: N_7  and  C_21
REMARK    8  A    between atoms: C_9  and  C_17
REMARK    9  A    between atoms: C_13  and  C_20
REMARK   10  A    between atoms: C_21  and  C_26
REMARK                            x       y       z     vdW  Elec       q    Type
REMARK                         _______ _______ _______ _____ _____    ______ ____
ROOT
ATOM      5  N   UNL     1      -9.791 -10.453  18.309  0.00  0.00    -0.274 NA
ATOM      6  N   UNL     1     -13.399  -9.645  18.972  0.00  0.00    -0.356 N 
ATOM      8  C   UNL     1     -11.121  -9.952  17.844  0.00  0.00    +0.106 C 
ATOM      9  C   UNL     1      -8.736 -10.267  17.281  0.00  0.00    +0.090 C 
ATOM     10  C   UNL     1     -11.041  -8.465  17.468  0.00  0.00    +0.044 C 
ATOM     11  C   UNL     1      -9.997  -8.245  16.374  0.00  0.00    +0.057 C 
ATOM     12  C   UNL     1      -8.646  -8.786  16.839  0.00  0.00    +0.042 C 
ATOM     13  C   UNL     1      -9.859 -11.820  18.894  0.00  0.00    +0.172 C 
ATOM     14  C   UNL     1     -12.152 -10.201  18.905  0.00  0.00    +0.038 A 
ATOM     15  C   UNL     1     -10.781 -11.891  20.138  0.00  0.00    +0.068 C 
ATOM     16  C   UNL     1     -12.023 -11.093  19.946  0.00  0.00    -0.016 A 
ATOM     18  C   UNL     1     -13.226 -11.055  20.702  0.00  0.00    +0.003 A 
ATOM     19  C   UNL     1     -14.072 -10.137  20.070  0.00  0.00    +0.047 A 
ATOM     24  C   UNL     1     -13.685 -11.712  21.861  0.00  0.00    +0.010 A 
ATOM     25  C   UNL     1     -15.356  -9.846  20.544  0.00  0.00    +0.026 A 
ATOM     28  C   UNL     1     -14.967 -11.428  22.346  0.00  0.00    +0.001 A 
ATOM     30  C   UNL     1     -15.788 -10.508  21.696  0.00  0.00    +0.002 A 
ATOM     34  H   UNL     1     -13.778  -8.972  18.321  0.00  0.00    +0.166 HD
ENDROOT
BRANCH   9  17
ATOM     17  C   UNL     1      -7.343 -10.702  17.729  0.00  0.00    -0.027 A 
ATOM     22  C   UNL     1      -6.542 -11.462  16.877  0.00  0.00    +0.050 A 
ATOM     23  C   UNL     1      -6.872 -10.338  18.990  0.00  0.00    +0.005 A 
ATOM     27  C   UNL     1      -5.269 -11.859  17.287  0.00  0.00    +0.120 A 
ATOM     29  C   UNL     1      -5.599 -10.734  19.399  0.00  0.00    +0.004 A 
ATOM     31  C   UNL     1      -4.797 -11.495  18.548  0.00  0.00    +0.045 A 
BRANCH  27   3
ATOM      3  O   UNL     1      -4.487 -12.600  16.455  0.00  0.00    -0.495 OA
ATOM     33  C   UNL     1      -3.685 -11.889  15.513  0.00  0.00    +0.277 C 
ENDBRANCH  27   3
ENDBRANCH   9  17
BRANCH  13  20
ATOM      2  O   UNL     1     -11.403 -12.854  17.356  0.00  0.00    -0.249 OA
ATOM     20  C   UNL     1     -10.284 -12.817  17.853  0.00  0.00    +0.325 C 
BRANCH  20   1
ATOM      1  O   UNL     1      -9.243 -13.649  17.565  0.00  0.00    -0.467 OA
ATOM     32  C   UNL     1      -9.208 -14.149  16.225  0.00  0.00    +0.280 C 
ENDBRANCH  20   1
ENDBRANCH  13  20
BRANCH  11   7
ATOM      7  N   UNL     1      -9.904  -6.824  16.045  0.00  0.00    -0.311 NA
ATOM     35  H   UNL     1      -9.258  -6.361  16.685  0.00  0.00    +0.122 HD
BRANCH   7  21
ATOM     21  C   UNL     1     -11.205  -6.183  16.151  0.00  0.00    +0.109 C 
BRANCH  21  26
ATOM     26  C   UNL     1     -11.911  -6.175  14.804  0.00  0.00    +0.171 C 
BRANCH  26   4
ATOM      4  O   UNL     1     -11.564  -4.981  14.114  0.00  0.00    -0.394 OA
ATOM     36  H   UNL     1     -11.584  -5.186  13.163  0.00  0.00    +0.209 HD
ENDBRANCH  26   4
ENDBRANCH  21  26
ENDBRANCH   7  21
ENDBRANCH  11   7
TORSDOF 8
ENDMDL
MODEL 10
REMARK VINA RESULT:      -6.0      1.418      1.779
REMARK  Name = 25389993
REMARK  10 active torsions:
REMARK  status: ('A' for Active; 'I' for Inactive)
REMARK    1  A    between atoms: O_1  and  C_20
REMARK    2  A    between atoms: O_1  and  C_32
REMARK    3  A    between atoms: O_3  and  C_27
REMARK    4  A    between atoms: O_3  and  C_33
REMARK    5  A    between atoms: O_4  and  C_26
REMARK    6  A    between atoms: N_7  and  C_11
REMARK    7  A    between atoms: N_7  and  C_21
REMARK    8  A    between atoms: C_9  and  C_17
REMARK    9  A    between atoms: C_13  and  C_20
REMARK   10  A    between atoms: C_21  and  C_26
REMARK                            x       y       z     vdW  Elec       q    Type
REMARK                         _______ _______ _______ _____ _____    ______ ____
ROOT
ATOM      5  N   UNL     1      14.426   8.527   4.497  0.00  0.00    -0.274 NA
ATOM      6  N   UNL     1      17.983   7.679   3.635  0.00  0.00    -0.356 N 
ATOM      8  C   UNL     1      15.491   8.247   3.484  0.00  0.00    +0.106 C 
ATOM      9  C   UNL     1      13.083   8.639   3.874  0.00  0.00    +0.090 C 
ATOM     10  C   UNL     1      15.183   6.953   2.715  0.00  0.00    +0.044 C 
ATOM     11  C   UNL     1      13.826   7.054   2.021  0.00  0.00    +0.057 C 
ATOM     12  C   UNL     1      12.744   7.372   3.052  0.00  0.00    +0.042 C 
ATOM     13  C   UNL     1      14.782   9.640   5.418  0.00  0.00    +0.172 C 
ATOM     14  C   UNL     1      16.827   8.183   4.163  0.00  0.00    +0.038 A 
ATOM     15  C   UNL     1      16.063   9.346   6.241  0.00  0.00    +0.068 C 
ATOM     16  C   UNL     1      17.111   8.694   5.410  0.00  0.00    -0.016 A 
ATOM     18  C   UNL     1      18.489   8.461   5.670  0.00  0.00    +0.003 A 
ATOM     19  C   UNL     1      19.012   7.822   4.542  0.00  0.00    +0.047 A 
ATOM     24  C   UNL     1      19.349   8.733   6.753  0.00  0.00    +0.010 A 
ATOM     25  C   UNL     1      20.355   7.440   4.445  0.00  0.00    +0.026 A 
ATOM     28  C   UNL     1      20.694   8.356   6.670  0.00  0.00    +0.001 A 
ATOM     30  C   UNL     1      21.187   7.719   5.533  0.00  0.00    +0.002 A 
ATOM     34  H   UNL     1      18.078   7.260   2.721  0.00  0.00    +0.166 HD
ENDROOT
BRANCH   9  17
ATOM     17  C   UNL     1      11.949   8.860   4.872  0.00  0.00    -0.027 A 
ATOM     22  C   UNL     1      11.723   7.931   5.888  0.00  0.00    +0.050 A 
ATOM     23  C   UNL     1      11.140   9.991   4.768  0.00  0.00    +0.005 A 
ATOM     27  C   UNL     1      10.688   8.133   6.800  0.00  0.00    +0.120 A 
ATOM     29  C   UNL     1      10.105  10.193   5.681  0.00  0.00    +0.004 A 
ATOM     31  C   UNL     1       9.878   9.264   6.697  0.00  0.00    +0.045 A 
BRANCH  27   3
ATOM      3  O   UNL     1      10.468   7.227   7.792  0.00  0.00    -0.495 OA
ATOM     33  C   UNL     1      10.505   5.847   7.431  0.00  0.00    +0.277 C 
ENDBRANCH  27   3
ENDBRANCH   9  17
BRANCH  13  20
ATOM      2  O   UNL     1      15.672  11.089   3.708  0.00  0.00    -0.249 OA
ATOM     20  C   UNL     1      14.917  10.929   4.659  0.00  0.00    +0.325 C 
BRANCH  20   1
ATOM      1  O   UNL     1      14.080  11.864   5.194  0.00  0.00    -0.467 OA
ATOM     32  C   UNL     1      14.720  12.928   5.905  0.00  0.00    +0.280 C 
ENDBRANCH  20   1
ENDBRANCH  13  20
BRANCH  11   7
ATOM      7  N   UNL     1      13.525   5.808   1.318  0.00  0.00    -0.311 NA
ATOM     35  H   UNL     1      12.842   5.267   1.848  0.00  0.00    +0.122 HD
BRANCH   7  21
ATOM     21  C   UNL     1      14.727   5.007   1.152  0.00  0.00    +0.109 C 
BRANCH  21  26
ATOM     26  C   UNL     1      14.475   3.566   1.567  0.00  0.00    +0.171 C 
BRANCH  26   4
ATOM      4  O   UNL     1      15.562   3.124   2.368  0.00  0.00    -0.394 OA
ATOM     36  H   UNL     1      15.835   3.878   2.919  0.00  0.00    +0.209 HD
ENDBRANCH  26   4
ENDBRANCH  21  26
ENDBRANCH   7  21
ENDBRANCH  11   7
TORSDOF 8
ENDMDL
