REMARK  Name = 75366936
REMARK  11 active torsions:
REMARK  status: ('A' for Active; 'I' for Inactive)
REMARK    1  A    between atoms: O_2  and  C_8
REMARK    2  A    between atoms: N_4  and  C_12
REMARK    3  A    between atoms: N_4  and  C_17
REMARK    4  A    between atoms: N_4  and  C_18
REMARK    5  A    between atoms: C_6  and  C_12
REMARK    6  A    between atoms: C_7  and  C_11
REMARK    7  A    between atoms: C_11  and  C_13
REMARK    8  A    between atoms: C_14  and  C_15
REMARK    9  A    between atoms: C_14  and  C_19
REMARK   10  A    between atoms: C_14  and  C_20
REMARK   11  A    between atoms: C_14  and  C_21
REMARK                            x       y       z     vdW  Elec       q    Type
REMARK                         _______ _______ _______ _____ _____    ______ ____
ROOT
ATOM      1  O   UNL     1       1.725  -0.240   0.749  0.00  0.00    -0.369 OA
ATOM      6  C   UNL     1       2.748   0.730   0.489  0.00  0.00    +0.161 C 
ATOM      7  C   UNL     1       1.580  -1.253  -0.249  0.00  0.00    +0.125 C 
ATOM      8  C   UNL     1       4.109   0.060   0.261  0.00  0.00    +0.145 C 
ATOM      9  C   UNL     1       2.885  -2.027  -0.426  0.00  0.00    +0.034 C 
ATOM     10  C   UNL     1       4.033  -1.077  -0.754  0.00  0.00    +0.036 C 
ENDROOT
BRANCH   8   2
ATOM      2  O   UNL     1       4.565  -0.491   1.499  0.00  0.00    -0.389 OA
ATOM     22  H   UNL     1       5.448  -0.868   1.346  0.00  0.00    +0.210 HD
ENDBRANCH   8   2
BRANCH   7  11
ATOM     11  C   UNL     1       0.456  -2.179   0.198  0.00  0.00    +0.090 C 
BRANCH  11  13
ATOM      3  O   UNL     1      -2.720  -1.110  -1.127  0.00  0.00    -0.359 OA
ATOM      5  N   UNL     1      -1.516  -1.796  -1.222  0.00  0.00    -0.083 NA
ATOM     13  C   UNL     1      -0.899  -1.576  -0.058  0.00  0.00    +0.086 A 
ATOM     15  C   UNL     1      -2.794  -0.501   0.084  0.00  0.00    +0.143 A 
ATOM     16  C   UNL     1      -1.659  -0.766   0.804  0.00  0.00    +0.071 A 
BRANCH  15  14
ATOM     14  C   UNL     1      -4.011   0.274   0.355  0.00  0.00    +0.023 C 
ATOM     19  C   UNL     1      -5.087   0.304  -0.795  0.00  0.00    +0.019 C 
ATOM     20  C   UNL     1      -4.788  -0.267   1.606  0.00  0.00    +0.019 C 
ATOM     21  C   UNL     1      -3.697   1.785   0.639  0.00  0.00    +0.019 C 
ENDBRANCH  15  14
ENDBRANCH  11  13
ENDBRANCH   7  11
BRANCH   6  12
ATOM     12  C   UNL     1       2.344   1.663  -0.651  0.00  0.00    +0.118 C 
BRANCH  12   4
ATOM      4  N   UNL     1       1.061   2.292  -0.377  0.00  0.00    -0.306 NA
ATOM     17  C   UNL     1       0.453   2.790  -1.613  0.00  0.00    +0.104 C 
ATOM     18  C   UNL     1       1.214   3.385   0.587  0.00  0.00    +0.104 C 
ENDBRANCH  12   4
ENDBRANCH   6  12
TORSDOF 6
