REMARK  Name = 11885232
REMARK  6 active torsions:
REMARK  status: ('A' for Active; 'I' for Inactive)
REMARK    1  A    between atoms: N_6  and  C_25
REMARK    2  A    between atoms: N_6  and  C_32
REMARK    3  A    between atoms: N_6  and  C_33
REMARK    4  A    between atoms: C_16  and  C_19
REMARK    5  A    between atoms: C_17  and  C_20
REMARK    6  A    between atoms: C_21  and  C_25
REMARK                            x       y       z     vdW  Elec       q    Type
REMARK                         _______ _______ _______ _____ _____    ______ ____
ROOT
ATOM      2  O   UNL     1      -1.744   1.024  -1.583  0.00  0.00    -0.267 OA
ATOM      3  O   UNL     1       3.255   0.534  -2.493  0.00  0.00    -0.270 OA
ATOM      4  N   UNL     1       3.053   1.675  -0.460  0.00  0.00    -0.297 N 
ATOM      5  N   UNL     1      -0.082   1.665  -0.079  0.00  0.00    -0.311 N 
ATOM      7  C   UNL     1       1.509   3.622  -0.534  0.00  0.00    +0.027 C 
ATOM      8  C   UNL     1       1.732   2.317   1.542  0.00  0.00    +0.054 C 
ATOM      9  C   UNL     1       1.583   3.732   0.985  0.00  0.00    +0.018 C 
ATOM     10  C   UNL     1       2.789   2.970  -1.088  0.00  0.00    +0.113 C 
ATOM     11  C   UNL     1       0.248   2.832  -0.910  0.00  0.00    +0.130 C 
ATOM     12  C   UNL     1       3.038   1.688   1.012  0.00  0.00    +0.117 C 
ATOM     13  C   UNL     1       0.554   1.448   1.146  0.00  0.00    +0.027 A 
ATOM     14  C   UNL     1       0.153   0.447   1.947  0.00  0.00    +0.022 A 
ATOM     15  C   UNL     1      -1.136   0.846  -0.526  0.00  0.00    +0.259 A 
ATOM     16  C   UNL     1       3.242   0.547  -1.263  0.00  0.00    +0.247 C 
ATOM     17  C   UNL     1      -1.531  -0.296   0.371  0.00  0.00    +0.047 A 
ATOM     18  C   UNL     1      -0.902  -0.439   1.547  0.00  0.00    +0.015 A 
ENDROOT
BRANCH  16  19
ATOM      1  F   UNL     1       3.908  -4.397   1.262  0.00  0.00    -0.205 F 
ATOM     19  C   UNL     1       3.416  -0.749  -0.600  0.00  0.00    +0.037 A 
ATOM     22  C   UNL     1       2.304  -1.539  -0.318  0.00  0.00    +0.016 A 
ATOM     23  C   UNL     1       4.693  -1.185  -0.256  0.00  0.00    +0.016 A 
ATOM     28  C   UNL     1       2.470  -2.772   0.311  0.00  0.00    +0.039 A 
ATOM     29  C   UNL     1       4.859  -2.419   0.373  0.00  0.00    +0.039 A 
ATOM     31  C   UNL     1       3.748  -3.213   0.657  0.00  0.00    +0.123 A 
ENDBRANCH  16  19
BRANCH  17  20
ATOM     20  C   UNL     1      -2.574  -1.255  -0.030  0.00  0.00    -0.008 A 
ATOM     21  C   UNL     1      -3.917  -1.049   0.296  0.00  0.00    -0.026 A 
ATOM     24  C   UNL     1      -2.202  -2.391  -0.752  0.00  0.00    +0.009 A 
ATOM     26  C   UNL     1      -4.882  -1.975  -0.098  0.00  0.00    +0.005 A 
ATOM     27  C   UNL     1      -3.168  -3.317  -1.145  0.00  0.00    +0.001 A 
ATOM     30  C   UNL     1      -4.508  -3.110  -0.819  0.00  0.00    +0.000 A 
BRANCH  21  25
ATOM     25  C   UNL     1      -4.354   0.154   1.067  0.00  0.00    +0.119 C 
BRANCH  25   6
ATOM      6  N   UNL     1      -4.694   1.278   0.195  0.00  0.00    -0.304 NA
ATOM     32  C   UNL     1      -5.116   2.432   0.989  0.00  0.00    +0.104 C 
ATOM     33  C   UNL     1      -5.745   0.894  -0.747  0.00  0.00    +0.104 C 
ENDBRANCH  25   6
ENDBRANCH  21  25
ENDBRANCH  17  20
TORSDOF 4
