MODEL 1
REMARK VINA RESULT:      -7.2      0.000      0.000
REMARK  Name = 11912967
REMARK  3 active torsions:
REMARK  status: ('A' for Active; 'I' for Inactive)
REMARK    1  A    between atoms: N_6  and  C_13
REMARK    2  A    between atoms: N_7  and  C_14
REMARK    3  A    between atoms: C_23  and  C_26
REMARK                            x       y       z     vdW  Elec       q    Type
REMARK                         _______ _______ _______ _____ _____    ______ ____
ROOT
ATOM      1  O   UNL     1      13.412   8.563  21.800  0.00  0.00    -0.370 OA
ATOM      2  O   UNL     1      10.481   8.224  20.849  0.00  0.00    -0.370 OA
ATOM     11  C   UNL     1      11.538   9.114  20.449  0.00  0.00    +0.171 C 
ATOM     12  C   UNL     1      12.311   9.483  21.701  0.00  0.00    +0.171 C 
ATOM     13  C   UNL     1      12.546   8.381  19.593  0.00  0.00    +0.131 C 
ATOM     14  C   UNL     1      11.329   9.241  22.823  0.00  0.00    +0.130 C 
ATOM     15  C   UNL     1      13.421   7.714  20.642  0.00  0.00    +0.185 C 
ATOM     16  C   UNL     1      10.474   8.111  22.280  0.00  0.00    +0.185 C 
ENDROOT
BRANCH  13   6
ATOM      3  O   UNL     1      12.797   8.399  16.789  0.00  0.00    -0.253 OA
ATOM      4  O   UNL     1      15.285  12.422  15.398  0.00  0.00    -0.377 OA
ATOM      6  N   UNL     1      13.334   9.317  18.822  0.00  0.00    -0.292 N 
ATOM      8  N   UNL     1      14.219  10.231  16.830  0.00  0.00    -0.281 N 
ATOM     17  C   UNL     1      13.407   9.258  17.435  0.00  0.00    +0.303 C 
ATOM     19  C   UNL     1      14.491  10.141  15.393  0.00  0.00    +0.137 C 
ATOM     20  C   UNL     1      14.975  11.284  17.524  0.00  0.00    +0.137 C 
ATOM     21  C   UNL     1      14.408  11.509  14.736  0.00  0.00    +0.179 C 
ATOM     22  C   UNL     1      14.894  12.600  16.760  0.00  0.00    +0.179 C 
ATOM     30  H   UNL     1      13.966   9.912  19.341  0.00  0.00    +0.151 HD
ENDBRANCH  13   6
BRANCH  14   7
ATOM      7  N   UNL     1      10.521  10.423  23.035  0.00  0.00    -0.306 N 
ATOM      9  N   UNL     1      12.077  11.354  24.526  0.00  0.00    -0.211 NA
ATOM     10  N   UNL     1      10.038  12.515  23.981  0.00  0.00    -0.223 NA
ATOM     18  C   UNL     1      10.890  11.461  23.873  0.00  0.00    +0.216 A 
ATOM     23  C   UNL     1      12.405  12.384  25.332  0.00  0.00    +0.111 A 
ATOM     24  C   UNL     1      10.428  13.510  24.805  0.00  0.00    +0.116 A 
ATOM     25  C   UNL     1      11.612  13.499  25.512  0.00  0.00    +0.051 A 
ATOM     31  H   UNL     1       9.660  10.538  22.515  0.00  0.00    +0.149 HD
BRANCH  23  26
ATOM      5  O   UNL     1      13.770  12.911  27.187  0.00  0.00    -0.461 OA
ATOM     26  C   UNL     1      13.666  12.241  26.011  0.00  0.00    +0.153 A 
ATOM     27  C   UNL     1      14.826  11.562  25.732  0.00  0.00    +0.051 A 
ATOM     28  C   UNL     1      15.705  11.832  26.808  0.00  0.00    +0.042 A 
ATOM     29  C   UNL     1      15.015  12.657  27.667  0.00  0.00    +0.196 A 
ENDBRANCH  23  26
ENDBRANCH  14   7
TORSDOF 3
ENDMDL
MODEL 2
REMARK VINA RESULT:      -6.9     27.283     29.948
REMARK  Name = 11912967
REMARK  3 active torsions:
REMARK  status: ('A' for Active; 'I' for Inactive)
REMARK    1  A    between atoms: N_6  and  C_13
REMARK    2  A    between atoms: N_7  and  C_14
REMARK    3  A    between atoms: C_23  and  C_26
REMARK                            x       y       z     vdW  Elec       q    Type
REMARK                         _______ _______ _______ _____ _____    ______ ____
ROOT
ATOM      1  O   UNL     1      -5.953 -11.712  10.108  0.00  0.00    -0.370 OA
ATOM      2  O   UNL     1      -4.592  -8.926  10.128  0.00  0.00    -0.370 OA
ATOM     11  C   UNL     1      -4.270 -10.163   9.467  0.00  0.00    +0.171 C 
ATOM     12  C   UNL     1      -4.616 -11.287  10.425  0.00  0.00    +0.171 C 
ATOM     13  C   UNL     1      -5.192 -10.383   8.288  0.00  0.00    +0.131 C 
ATOM     14  C   UNL     1      -4.587 -10.631  11.786  0.00  0.00    +0.130 C 
ATOM     15  C   UNL     1      -6.416 -10.988   8.958  0.00  0.00    +0.185 C 
ATOM     16  C   UNL     1      -5.001  -9.204  11.476  0.00  0.00    +0.185 C 
ENDROOT
BRANCH  13   6
ATOM      3  O   UNL     1      -5.679 -10.486   5.518  0.00  0.00    -0.253 OA
ATOM      4  O   UNL     1      -2.682 -13.814   3.456  0.00  0.00    -0.377 OA
ATOM      6  N   UNL     1      -4.618 -11.337   7.366  0.00  0.00    -0.292 N 
ATOM      8  N   UNL     1      -4.281 -12.316   5.241  0.00  0.00    -0.281 N 
ATOM     17  C   UNL     1      -4.911 -11.321   6.007  0.00  0.00    +0.303 C 
ATOM     19  C   UNL     1      -4.662 -12.482   3.836  0.00  0.00    +0.137 C 
ATOM     20  C   UNL     1      -3.357 -13.343   5.743  0.00  0.00    +0.137 C 
ATOM     21  C   UNL     1      -3.438 -12.706   2.962  0.00  0.00    +0.179 C 
ATOM     22  C   UNL     1      -2.200 -13.550   4.774  0.00  0.00    +0.179 C 
ATOM     30  H   UNL     1      -4.127 -12.122   7.772  0.00  0.00    +0.151 HD
ENDBRANCH  13   6
BRANCH  14   7
ATOM      7  N   UNL     1      -3.243 -10.658  12.319  0.00  0.00    -0.306 N 
ATOM      9  N   UNL     1      -4.002 -10.571  14.538  0.00  0.00    -0.211 NA
ATOM     10  N   UNL     1      -1.647 -10.661  14.039  0.00  0.00    -0.223 NA
ATOM     18  C   UNL     1      -2.955 -10.629  13.672  0.00  0.00    +0.216 A 
ATOM     23  C   UNL     1      -3.686 -10.545  15.849  0.00  0.00    +0.111 A 
ATOM     24  C   UNL     1      -1.402 -10.632  15.365  0.00  0.00    +0.116 A 
ATOM     25  C   UNL     1      -2.390 -10.574  16.326  0.00  0.00    +0.051 A 
ATOM     31  H   UNL     1      -2.457 -10.753  11.686  0.00  0.00    +0.149 HD
BRANCH  23  26
ATOM      5  O   UNL     1      -5.886  -9.798  16.270  0.00  0.00    -0.461 OA
ATOM     26  C   UNL     1      -4.813 -10.483  16.740  0.00  0.00    +0.153 A 
ATOM     27  C   UNL     1      -5.061 -10.973  17.999  0.00  0.00    +0.051 A 
ATOM     28  C   UNL     1      -6.375 -10.562  18.326  0.00  0.00    +0.042 A 
ATOM     29  C   UNL     1      -6.835  -9.850  17.242  0.00  0.00    +0.196 A 
ENDBRANCH  23  26
ENDBRANCH  14   7
TORSDOF 3
ENDMDL
MODEL 3
REMARK VINA RESULT:      -6.8      2.736      9.674
REMARK  Name = 11912967
REMARK  3 active torsions:
REMARK  status: ('A' for Active; 'I' for Inactive)
REMARK    1  A    between atoms: N_6  and  C_13
REMARK    2  A    between atoms: N_7  and  C_14
REMARK    3  A    between atoms: C_23  and  C_26
REMARK                            x       y       z     vdW  Elec       q    Type
REMARK                         _______ _______ _______ _____ _____    ______ ____
ROOT
ATOM      1  O   UNL     1      11.598   9.163  17.501  0.00  0.00    -0.370 OA
ATOM      2  O   UNL     1      14.543   8.356  18.040  0.00  0.00    -0.370 OA
ATOM     11  C   UNL     1      13.709   9.406  18.562  0.00  0.00    +0.171 C 
ATOM     12  C   UNL     1      12.835   9.893  17.422  0.00  0.00    +0.171 C 
ATOM     13  C   UNL     1      12.729   8.846  19.569  0.00  0.00    +0.131 C 
ATOM     14  C   UNL     1      13.596   9.495  16.180  0.00  0.00    +0.130 C 
ATOM     15  C   UNL     1      11.618   8.327  18.668  0.00  0.00    +0.185 C 
ATOM     16  C   UNL     1      14.328   8.242  16.625  0.00  0.00    +0.185 C 
ENDROOT
BRANCH  13   6
ATOM      3  O   UNL     1      12.004   8.564  22.274  0.00  0.00    -0.253 OA
ATOM      4  O   UNL     1      10.972  13.002  24.159  0.00  0.00    -0.377 OA
ATOM      6  N   UNL     1      12.218   9.898  20.419  0.00  0.00    -0.292 N 
ATOM      8  N   UNL     1      11.392  10.794  22.444  0.00  0.00    -0.281 N 
ATOM     17  C   UNL     1      11.881   9.676  21.750  0.00  0.00    +0.303 C 
ATOM     19  C   UNL     1      10.853  10.616  23.795  0.00  0.00    +0.137 C 
ATOM     20  C   UNL     1      11.215  12.147  21.896  0.00  0.00    +0.137 C 
ATOM     21  C   UNL     1      11.316  11.732  24.718  0.00  0.00    +0.179 C 
ATOM     22  C   UNL     1      11.638  13.202  22.912  0.00  0.00    +0.179 C 
ATOM     30  H   UNL     1      11.955  10.761  19.964  0.00  0.00    +0.151 HD
ENDBRANCH  13   6
BRANCH  14   7
ATOM      7  N   UNL     1      14.543  10.531  15.828  0.00  0.00    -0.306 N 
ATOM      9  N   UNL     1      13.167  11.363  14.119  0.00  0.00    -0.211 NA
ATOM     10  N   UNL     1      15.304  12.372  14.588  0.00  0.00    -0.223 NA
ATOM     18  C   UNL     1      14.332  11.449  14.815  0.00  0.00    +0.216 A 
ATOM     23  C   UNL     1      12.994  12.274  13.139  0.00  0.00    +0.111 A 
ATOM     24  C   UNL     1      15.066  13.252  13.594  0.00  0.00    +0.116 A 
ATOM     25  C   UNL     1      13.918  13.251  12.829  0.00  0.00    +0.051 A 
ATOM     31  H   UNL     1      15.391  10.637  16.373  0.00  0.00    +0.149 HD
BRANCH  23  26
ATOM      5  O   UNL     1      11.874  11.835  11.107  0.00  0.00    -0.461 OA
ATOM     26  C   UNL     1      11.753  12.157  12.420  0.00  0.00    +0.153 A 
ATOM     27  C   UNL     1      10.433  12.303  12.767  0.00  0.00    +0.051 A 
ATOM     28  C   UNL     1       9.690  12.054  11.589  0.00  0.00    +0.042 A 
ATOM     29  C   UNL     1      10.612  11.774  10.607  0.00  0.00    +0.196 A 
ENDBRANCH  23  26
ENDBRANCH  14   7
TORSDOF 3
ENDMDL
MODEL 4
REMARK VINA RESULT:      -6.6     27.856     30.827
REMARK  Name = 11912967
REMARK  3 active torsions:
REMARK  status: ('A' for Active; 'I' for Inactive)
REMARK    1  A    between atoms: N_6  and  C_13
REMARK    2  A    between atoms: N_7  and  C_14
REMARK    3  A    between atoms: C_23  and  C_26
REMARK                            x       y       z     vdW  Elec       q    Type
REMARK                         _______ _______ _______ _____ _____    ______ ____
ROOT
ATOM      1  O   UNL     1      -2.714 -12.917  12.639  0.00  0.00    -0.370 OA
ATOM      2  O   UNL     1      -1.837  -9.979  13.105  0.00  0.00    -0.370 OA
ATOM     11  C   UNL     1      -2.869 -10.793  13.692  0.00  0.00    +0.171 C 
ATOM     12  C   UNL     1      -3.429 -11.670  12.588  0.00  0.00    +0.171 C 
ATOM     13  C   UNL     1      -2.270 -11.772  14.676  0.00  0.00    +0.131 C 
ATOM     14  C   UNL     1      -3.088 -10.925  11.318  0.00  0.00    +0.130 C 
ATOM     15  C   UNL     1      -1.816 -12.898  13.760  0.00  0.00    +0.185 C 
ATOM     16  C   UNL     1      -1.802 -10.208  11.689  0.00  0.00    +0.185 C 
ENDROOT
BRANCH  13   6
ATOM      3  O   UNL     1      -3.414 -10.314  16.794  0.00  0.00    -0.253 OA
ATOM      4  O   UNL     1      -7.123 -12.910  18.748  0.00  0.00    -0.377 OA
ATOM      6  N   UNL     1      -3.281 -12.260  15.587  0.00  0.00    -0.292 N 
ATOM      8  N   UNL     1      -4.768 -12.091  17.417  0.00  0.00    -0.281 N 
ATOM     17  C   UNL     1      -3.797 -11.474  16.611  0.00  0.00    +0.303 C 
ATOM     19  C   UNL     1      -5.240 -11.402  18.620  0.00  0.00    +0.137 C 
ATOM     20  C   UNL     1      -5.276 -13.462  17.266  0.00  0.00    +0.137 C 
ATOM     21  C   UNL     1      -6.747 -11.531  18.767  0.00  0.00    +0.179 C 
ATOM     22  C   UNL     1      -6.782 -13.510  17.497  0.00  0.00    +0.179 C 
ATOM     30  H   UNL     1      -3.479 -13.251  15.556  0.00  0.00    +0.151 HD
ENDBRANCH  13   6
BRANCH  14   7
ATOM      7  N   UNL     1      -4.127  -9.966  11.014  0.00  0.00    -0.306 N 
ATOM      9  N   UNL     1      -4.384 -10.773   8.825  0.00  0.00    -0.211 NA
ATOM     10  N   UNL     1      -5.726  -8.943   9.634  0.00  0.00    -0.223 NA
ATOM     18  C   UNL     1      -4.764  -9.892   9.788  0.00  0.00    +0.216 A 
ATOM     23  C   UNL     1      -5.026 -10.672   7.643  0.00  0.00    +0.111 A 
ATOM     24  C   UNL     1      -6.327  -8.898   8.428  0.00  0.00    +0.116 A 
ATOM     25  C   UNL     1      -6.016  -9.745   7.385  0.00  0.00    +0.051 A 
ATOM     31  H   UNL     1      -4.455  -9.339  11.740  0.00  0.00    +0.149 HD
BRANCH  23  26
ATOM      5  O   UNL     1      -3.904 -12.682   7.114  0.00  0.00    -0.461 OA
ATOM     26  C   UNL     1      -4.602 -11.617   6.644  0.00  0.00    +0.153 A 
ATOM     27  C   UNL     1      -4.743 -11.689   5.280  0.00  0.00    +0.051 A 
ATOM     28  C   UNL     1      -4.089 -12.880   4.883  0.00  0.00    +0.042 A 
ATOM     29  C   UNL     1      -3.596 -13.448   6.035  0.00  0.00    +0.196 A 
ENDBRANCH  23  26
ENDBRANCH  14   7
TORSDOF 3
ENDMDL
MODEL 5
REMARK VINA RESULT:      -6.5     13.974     20.608
REMARK  Name = 11912967
REMARK  3 active torsions:
REMARK  status: ('A' for Active; 'I' for Inactive)
REMARK    1  A    between atoms: N_6  and  C_13
REMARK    2  A    between atoms: N_7  and  C_14
REMARK    3  A    between atoms: C_23  and  C_26
REMARK                            x       y       z     vdW  Elec       q    Type
REMARK                         _______ _______ _______ _____ _____    ______ ____
ROOT
ATOM      1  O   UNL     1       9.501   7.166   3.523  0.00  0.00    -0.370 OA
ATOM      2  O   UNL     1      10.543   4.716   5.113  0.00  0.00    -0.370 OA
ATOM     11  C   UNL     1      10.814   6.126   5.208  0.00  0.00    +0.171 C 
ATOM     12  C   UNL     1      10.826   6.676   3.794  0.00  0.00    +0.171 C 
ATOM     13  C   UNL     1       9.659   6.839   5.874  0.00  0.00    +0.131 C 
ATOM     14  C   UNL     1      11.121   5.470   2.934  0.00  0.00    +0.130 C 
ATOM     15  C   UNL     1       8.701   7.038   4.709  0.00  0.00    +0.185 C 
ATOM     16  C   UNL     1      10.505   4.334   3.730  0.00  0.00    +0.185 C 
ENDROOT
BRANCH  13   6
ATOM      3  O   UNL     1       8.668   8.091   8.191  0.00  0.00    -0.253 OA
ATOM      4  O   UNL     1      11.334  12.131   9.132  0.00  0.00    -0.377 OA
ATOM      6  N   UNL     1      10.081   8.124   6.385  0.00  0.00    -0.292 N 
ATOM      8  N   UNL     1      10.047   9.933   7.905  0.00  0.00    -0.281 N 
ATOM     17  C   UNL     1       9.540   8.675   7.541  0.00  0.00    +0.303 C 
ATOM     19  C   UNL     1       9.418  10.665   9.007  0.00  0.00    +0.137 C 
ATOM     20  C   UNL     1      11.082  10.693   7.188  0.00  0.00    +0.137 C 
ATOM     21  C   UNL     1      10.464  11.303   9.907  0.00  0.00    +0.179 C 
ATOM     22  C   UNL     1      12.045  11.354   8.167  0.00  0.00    +0.179 C 
ATOM     30  H   UNL     1      10.665   8.684   5.778  0.00  0.00    +0.151 HD
ENDBRANCH  13   6
BRANCH  14   7
ATOM      7  N   UNL     1      12.551   5.283   2.819  0.00  0.00    -0.306 N 
ATOM      9  N   UNL     1      12.366   4.321   0.686  0.00  0.00    -0.211 NA
ATOM     10  N   UNL     1      14.517   4.602   1.734  0.00  0.00    -0.223 NA
ATOM     18  C   UNL     1      13.163   4.719   1.713  0.00  0.00    +0.216 A 
ATOM     23  C   UNL     1      12.996   3.776  -0.375  0.00  0.00    +0.111 A 
ATOM     24  C   UNL     1      15.081   4.049   0.641  0.00  0.00    +0.116 A 
ATOM     25  C   UNL     1      14.364   3.613  -0.454  0.00  0.00    +0.051 A 
ATOM     31  H   UNL     1      13.159   5.623   3.555  0.00  0.00    +0.149 HD
BRANCH  23  26
ATOM      5  O   UNL     1      11.166   4.261  -1.788  0.00  0.00    -0.461 OA
ATOM     26  C   UNL     1      12.127   3.365  -1.446  0.00  0.00    +0.153 A 
ATOM     27  C   UNL     1      12.042   2.237  -2.225  0.00  0.00    +0.051 A 
ATOM     28  C   UNL     1      10.957   2.453  -3.107  0.00  0.00    +0.042 A 
ATOM     29  C   UNL     1      10.457   3.698  -2.802  0.00  0.00    +0.196 A 
ENDBRANCH  23  26
ENDBRANCH  14   7
TORSDOF 3
ENDMDL
MODEL 6
REMARK VINA RESULT:      -6.2     28.342     30.940
REMARK  Name = 11912967
REMARK  3 active torsions:
REMARK  status: ('A' for Active; 'I' for Inactive)
REMARK    1  A    between atoms: N_6  and  C_13
REMARK    2  A    between atoms: N_7  and  C_14
REMARK    3  A    between atoms: C_23  and  C_26
REMARK                            x       y       z     vdW  Elec       q    Type
REMARK                         _______ _______ _______ _____ _____    ______ ____
ROOT
ATOM      1  O   UNL     1      -7.060 -10.399  16.492  0.00  0.00    -0.370 OA
ATOM      2  O   UNL     1      -5.258 -10.584  19.008  0.00  0.00    -0.370 OA
ATOM     11  C   UNL     1      -5.315 -11.351  17.792  0.00  0.00    +0.171 C 
ATOM     12  C   UNL     1      -6.777 -11.472  17.407  0.00  0.00    +0.171 C 
ATOM     13  C   UNL     1      -4.694 -10.576  16.652  0.00  0.00    +0.131 C 
ATOM     14  C   UNL     1      -7.518 -11.257  18.706  0.00  0.00    +0.130 C 
ATOM     15  C   UNL     1      -5.846  -9.683  16.216  0.00  0.00    +0.185 C 
ATOM     16  C   UNL     1      -6.593 -10.324  19.466  0.00  0.00    +0.185 C 
ENDROOT
BRANCH  13   6
ATOM      3  O   UNL     1      -2.068 -11.250  15.896  0.00  0.00    -0.253 OA
ATOM      4  O   UNL     1      -2.214 -14.793  12.471  0.00  0.00    -0.377 OA
ATOM      6  N   UNL     1      -4.329 -11.465  15.572  0.00  0.00    -0.292 N 
ATOM      8  N   UNL     1      -2.809 -12.623  14.181  0.00  0.00    -0.281 N 
ATOM     17  C   UNL     1      -3.003 -11.747  15.261  0.00  0.00    +0.303 C 
ATOM     19  C   UNL     1      -1.452 -12.842  13.674  0.00  0.00    +0.137 C 
ATOM     20  C   UNL     1      -3.865 -13.255  13.375  0.00  0.00    +0.137 C 
ATOM     21  C   UNL     1      -1.214 -14.313  13.371  0.00  0.00    +0.179 C 
ATOM     22  C   UNL     1      -3.511 -14.704  13.061  0.00  0.00    +0.179 C 
ATOM     30  H   UNL     1      -5.070 -11.742  14.943  0.00  0.00    +0.151 HD
ENDBRANCH  13   6
BRANCH  14   7
ATOM      7  N   UNL     1      -7.653 -12.513  19.411  0.00  0.00    -0.306 N 
ATOM      9  N   UNL     1      -9.883 -12.073  19.996  0.00  0.00    -0.211 NA
ATOM     10  N   UNL     1      -8.807 -14.121  20.671  0.00  0.00    -0.223 NA
ATOM     18  C   UNL     1      -8.815 -12.914  20.045  0.00  0.00    +0.216 A 
ATOM     23  C   UNL     1     -10.999 -12.496  20.624  0.00  0.00    +0.111 A 
ATOM     24  C   UNL     1      -9.957 -14.481  21.279  0.00  0.00    +0.116 A 
ATOM     25  C   UNL     1     -11.095 -13.702  21.287  0.00  0.00    +0.051 A 
ATOM     31  H   UNL     1      -6.881 -13.170  19.410  0.00  0.00    +0.149 HD
BRANCH  23  26
ATOM      5  O   UNL     1     -11.896 -10.464  19.820  0.00  0.00    -0.461 OA
ATOM     26  C   UNL     1     -12.111 -11.585  20.555  0.00  0.00    +0.153 A 
ATOM     27  C   UNL     1     -13.379 -11.588  21.081  0.00  0.00    +0.051 A 
ATOM     28  C   UNL     1     -13.987 -10.389  20.640  0.00  0.00    +0.042 A 
ATOM     29  C   UNL     1     -13.045  -9.740  19.876  0.00  0.00    +0.196 A 
ENDBRANCH  23  26
ENDBRANCH  14   7
TORSDOF 3
ENDMDL
MODEL 7
REMARK VINA RESULT:      -6.2      9.586     12.093
REMARK  Name = 11912967
REMARK  3 active torsions:
REMARK  status: ('A' for Active; 'I' for Inactive)
REMARK    1  A    between atoms: N_6  and  C_13
REMARK    2  A    between atoms: N_7  and  C_14
REMARK    3  A    between atoms: C_23  and  C_26
REMARK                            x       y       z     vdW  Elec       q    Type
REMARK                         _______ _______ _______ _____ _____    ______ ____
ROOT
ATOM      1  O   UNL     1      20.855   6.237  24.093  0.00  0.00    -0.370 OA
ATOM      2  O   UNL     1      22.549   8.193  22.385  0.00  0.00    -0.370 OA
ATOM     11  C   UNL     1      21.329   7.477  22.123  0.00  0.00    +0.171 C 
ATOM     12  C   UNL     1      21.454   6.121  22.790  0.00  0.00    +0.171 C 
ATOM     13  C   UNL     1      20.171   8.137  22.836  0.00  0.00    +0.131 C 
ATOM     14  C   UNL     1      22.944   5.910  22.919  0.00  0.00    +0.130 C 
ATOM     15  C   UNL     1      20.288   7.549  24.234  0.00  0.00    +0.185 C 
ATOM     16  C   UNL     1      23.469   7.327  23.067  0.00  0.00    +0.185 C 
ENDROOT
BRANCH  13   6
ATOM      3  O   UNL     1      18.240   9.875  21.753  0.00  0.00    -0.253 OA
ATOM      4  O   UNL     1      14.715   7.227  19.544  0.00  0.00    -0.377 OA
ATOM      6  N   UNL     1      18.914   7.737  22.242  0.00  0.00    -0.292 N 
ATOM      8  N   UNL     1      16.832   8.120  21.190  0.00  0.00    -0.281 N 
ATOM     17  C   UNL     1      18.011   8.661  21.728  0.00  0.00    +0.303 C 
ATOM     19  C   UNL     1      15.753   9.022  20.783  0.00  0.00    +0.137 C 
ATOM     20  C   UNL     1      16.485   6.692  21.123  0.00  0.00    +0.137 C 
ATOM     21  C   UNL     1      15.147   8.586  19.459  0.00  0.00    +0.179 C 
ATOM     22  C   UNL     1      15.822   6.359  19.791  0.00  0.00    +0.179 C 
ATOM     30  H   UNL     1      18.641   6.772  22.367  0.00  0.00    +0.151 HD
ENDBRANCH  13   6
BRANCH  14   7
ATOM      7  N   UNL     1      23.464   5.307  21.711  0.00  0.00    -0.306 N 
ATOM      9  N   UNL     1      23.645   3.192  22.712  0.00  0.00    -0.211 NA
ATOM     10  N   UNL     1      24.284   3.532  20.414  0.00  0.00    -0.223 NA
ATOM     18  C   UNL     1      23.808   3.971  21.609  0.00  0.00    +0.216 A 
ATOM     23  C   UNL     1      23.989   1.895  22.577  0.00  0.00    +0.111 A 
ATOM     24  C   UNL     1      24.610   2.224  20.349  0.00  0.00    +0.116 A 
ATOM     25  C   UNL     1      24.481   1.350  21.408  0.00  0.00    +0.051 A 
ATOM     31  H   UNL     1      23.541   5.866  20.868  0.00  0.00    +0.149 HD
BRANCH  23  26
ATOM      5  O   UNL     1      24.806   0.217  24.025  0.00  0.00    -0.461 OA
ATOM     26  C   UNL     1      23.806   1.097  23.760  0.00  0.00    +0.153 A 
ATOM     27  C   UNL     1      22.820   1.016  24.712  0.00  0.00    +0.051 A 
ATOM     28  C   UNL     1      23.240   0.020  25.625  0.00  0.00    +0.042 A 
ATOM     29  C   UNL     1      24.454  -0.435  25.164  0.00  0.00    +0.196 A 
ENDBRANCH  23  26
ENDBRANCH  14   7
TORSDOF 3
ENDMDL
MODEL 8
REMARK VINA RESULT:      -6.1     28.181     31.304
REMARK  Name = 11912967
REMARK  3 active torsions:
REMARK  status: ('A' for Active; 'I' for Inactive)
REMARK    1  A    between atoms: N_6  and  C_13
REMARK    2  A    between atoms: N_7  and  C_14
REMARK    3  A    between atoms: C_23  and  C_26
REMARK                            x       y       z     vdW  Elec       q    Type
REMARK                         _______ _______ _______ _____ _____    ______ ____
ROOT
ATOM      1  O   UNL     1      -5.170 -11.590  10.573  0.00  0.00    -0.370 OA
ATOM      2  O   UNL     1      -3.658  -8.885  10.505  0.00  0.00    -0.370 OA
ATOM     11  C   UNL     1      -4.548  -9.479  11.467  0.00  0.00    +0.171 C 
ATOM     12  C   UNL     1      -5.613 -10.227  10.688  0.00  0.00    +0.171 C 
ATOM     13  C   UNL     1      -3.832 -10.559  12.246  0.00  0.00    +0.131 C 
ATOM     14  C   UNL     1      -5.611  -9.562   9.331  0.00  0.00    +0.130 C 
ATOM     15  C   UNL     1      -3.948 -11.751  11.309  0.00  0.00    +0.185 C 
ATOM     16  C   UNL     1      -4.169  -9.113   9.183  0.00  0.00    +0.185 C 
ENDROOT
BRANCH  13   6
ATOM      3  O   UNL     1      -2.658 -10.677  14.802  0.00  0.00    -0.253 OA
ATOM      4  O   UNL     1      -6.197 -11.140  18.204  0.00  0.00    -0.377 OA
ATOM      6  N   UNL     1      -4.528 -10.840  13.482  0.00  0.00    -0.292 N 
ATOM      8  N   UNL     1      -4.683 -11.173  15.817  0.00  0.00    -0.281 N 
ATOM     17  C   UNL     1      -3.873 -10.880  14.708  0.00  0.00    +0.303 C 
ATOM     19  C   UNL     1      -4.055 -11.404  17.120  0.00  0.00    +0.137 C 
ATOM     20  C   UNL     1      -6.132 -11.427  15.791  0.00  0.00    +0.137 C 
ATOM     21  C   UNL     1      -4.832 -10.717  18.231  0.00  0.00    +0.179 C 
ATOM     22  C   UNL     1      -6.820 -10.760  16.976  0.00  0.00    +0.179 C 
ATOM     30  H   UNL     1      -5.479 -11.172  13.401  0.00  0.00    +0.151 HD
ENDBRANCH  13   6
BRANCH  14   7
ATOM      7  N   UNL     1      -6.494  -8.416   9.342  0.00  0.00    -0.306 N 
ATOM      9  N   UNL     1      -7.189  -8.792   7.131  0.00  0.00    -0.211 NA
ATOM     10  N   UNL     1      -8.058  -6.940   8.404  0.00  0.00    -0.223 NA
ATOM     18  C   UNL     1      -7.270  -8.038   8.260  0.00  0.00    +0.216 A 
ATOM     23  C   UNL     1      -7.958  -8.395   6.098  0.00  0.00    +0.111 A 
ATOM     24  C   UNL     1      -8.801  -6.599   7.331  0.00  0.00    +0.116 A 
ATOM     25  C   UNL     1      -8.793  -7.296   6.140  0.00  0.00    +0.051 A 
ATOM     31  H   UNL     1      -6.602  -7.878  10.194  0.00  0.00    +0.149 HD
BRANCH  23  26
ATOM      5  O   UNL     1      -8.676  -8.865   3.897  0.00  0.00    -0.461 OA
ATOM     26  C   UNL     1      -7.851  -9.211   4.918  0.00  0.00    +0.153 A 
ATOM     27  C   UNL     1      -7.082 -10.296   4.576  0.00  0.00    +0.051 A 
ATOM     28  C   UNL     1      -7.457 -10.642   3.256  0.00  0.00    +0.042 A 
ATOM     29  C   UNL     1      -8.430  -9.741   2.887  0.00  0.00    +0.196 A 
ENDBRANCH  23  26
ENDBRANCH  14   7
TORSDOF 3
ENDMDL
MODEL 9
REMARK VINA RESULT:      -6.0     13.394     17.077
REMARK  Name = 11912967
REMARK  3 active torsions:
REMARK  status: ('A' for Active; 'I' for Inactive)
REMARK    1  A    between atoms: N_6  and  C_13
REMARK    2  A    between atoms: N_7  and  C_14
REMARK    3  A    between atoms: C_23  and  C_26
REMARK                            x       y       z     vdW  Elec       q    Type
REMARK                         _______ _______ _______ _____ _____    ______ ____
ROOT
ATOM      1  O   UNL     1      16.433  -2.068  30.146  0.00  0.00    -0.370 OA
ATOM      2  O   UNL     1      18.848  -2.990  31.857  0.00  0.00    -0.370 OA
ATOM     11  C   UNL     1      18.359  -1.690  31.484  0.00  0.00    +0.171 C 
ATOM     12  C   UNL     1      17.843  -1.797  30.061  0.00  0.00    +0.171 C 
ATOM     13  C   UNL     1      17.135  -1.336  32.297  0.00  0.00    +0.131 C 
ATOM     14  C   UNL     1      18.570  -2.995  29.496  0.00  0.00    +0.130 C 
ATOM     15  C   UNL     1      16.031  -2.041  31.524  0.00  0.00    +0.185 C 
ATOM     16  C   UNL     1      18.779  -3.866  30.721  0.00  0.00    +0.185 C 
ENDROOT
BRANCH  13   6
ATOM      3  O   UNL     1      17.102   0.351  34.550  0.00  0.00    -0.253 OA
ATOM      4  O   UNL     1      16.805   5.045  33.072  0.00  0.00    -0.377 OA
ATOM      6  N   UNL     1      16.908   0.092  32.279  0.00  0.00    -0.292 N 
ATOM      8  N   UNL     1      16.666   2.228  33.261  0.00  0.00    -0.281 N 
ATOM     17  C   UNL     1      16.908   0.857  33.440  0.00  0.00    +0.303 C 
ATOM     19  C   UNL     1      16.478   3.080  34.438  0.00  0.00    +0.137 C 
ATOM     20  C   UNL     1      16.426   2.907  31.979  0.00  0.00    +0.137 C 
ATOM     21  C   UNL     1      17.214   4.400  34.280  0.00  0.00    +0.179 C 
ATOM     22  C   UNL     1      17.144   4.251  31.935  0.00  0.00    +0.179 C 
ATOM     30  H   UNL     1      16.583   0.489  31.408  0.00  0.00    +0.151 HD
ENDBRANCH  13   6
BRANCH  14   7
ATOM      7  N   UNL     1      19.844  -2.586  28.948  0.00  0.00    -0.306 N 
ATOM      9  N   UNL     1      18.977  -2.403  26.775  0.00  0.00    -0.211 NA
ATOM     10  N   UNL     1      21.294  -1.920  27.227  0.00  0.00    -0.223 NA
ATOM     18  C   UNL     1      20.045  -2.294  27.610  0.00  0.00    +0.216 A 
ATOM     23  C   UNL     1      19.208  -2.111  25.479  0.00  0.00    +0.111 A 
ATOM     24  C   UNL     1      21.454  -1.643  25.917  0.00  0.00    +0.116 A 
ATOM     25  C   UNL     1      20.438  -1.721  24.988  0.00  0.00    +0.051 A 
ATOM     31  H   UNL     1      20.634  -2.452  29.569  0.00  0.00    +0.149 HD
BRANCH  23  26
ATOM      5  O   UNL     1      16.969  -2.805  25.190  0.00  0.00    -0.461 OA
ATOM     26  C   UNL     1      18.061  -2.235  24.619  0.00  0.00    +0.153 A 
ATOM     27  C   UNL     1      17.809  -1.900  23.312  0.00  0.00    +0.051 A 
ATOM     28  C   UNL     1      16.472  -2.289  23.060  0.00  0.00    +0.042 A 
ATOM     29  C   UNL     1      16.004  -2.834  24.234  0.00  0.00    +0.196 A 
ENDBRANCH  23  26
ENDBRANCH  14   7
TORSDOF 3
ENDMDL
MODEL 10
REMARK VINA RESULT:      -6.0     30.346     32.802
REMARK  Name = 11912967
REMARK  3 active torsions:
REMARK  status: ('A' for Active; 'I' for Inactive)
REMARK    1  A    between atoms: N_6  and  C_13
REMARK    2  A    between atoms: N_7  and  C_14
REMARK    3  A    between atoms: C_23  and  C_26
REMARK                            x       y       z     vdW  Elec       q    Type
REMARK                         _______ _______ _______ _____ _____    ______ ____
ROOT
ATOM      1  O   UNL     1     -10.284  -9.556  15.461  0.00  0.00    -0.370 OA
ATOM      2  O   UNL     1     -10.634  -6.987  17.162  0.00  0.00    -0.370 OA
ATOM     11  C   UNL     1     -11.213  -8.301  17.252  0.00  0.00    +0.171 C 
ATOM     12  C   UNL     1     -11.442  -8.787  15.833  0.00  0.00    +0.171 C 
ATOM     13  C   UNL     1     -10.210  -9.279  17.822  0.00  0.00    +0.131 C 
ATOM     14  C   UNL     1     -11.509  -7.518  15.016  0.00  0.00    +0.130 C 
ATOM     15  C   UNL     1      -9.401  -9.652  16.590  0.00  0.00    +0.185 C 
ATOM     16  C   UNL     1     -10.599  -6.578  15.786  0.00  0.00    +0.185 C 
ENDROOT
BRANCH  13   6
ATOM      3  O   UNL     1      -9.387 -10.794  20.047  0.00  0.00    -0.253 OA
ATOM      4  O   UNL     1     -12.837 -14.155  21.100  0.00  0.00    -0.377 OA
ATOM      6  N   UNL     1     -10.881 -10.450  18.340  0.00  0.00    -0.292 N 
ATOM      8  N   UNL     1     -11.164 -12.267  19.825  0.00  0.00    -0.281 N 
ATOM     17  C   UNL     1     -10.409 -11.145  19.447  0.00  0.00    +0.303 C 
ATOM     19  C   UNL     1     -10.650 -13.155  20.870  0.00  0.00    +0.137 C 
ATOM     20  C   UNL     1     -12.387 -12.751  19.167  0.00  0.00    +0.137 C 
ATOM     21  C   UNL     1     -11.756 -13.569  21.828  0.00  0.00    +0.179 C 
ATOM     22  C   UNL     1     -13.412 -13.208  20.198  0.00  0.00    +0.179 C 
ATOM     30  H   UNL     1     -11.613 -10.845  17.765  0.00  0.00    +0.151 HD
ENDBRANCH  13   6
BRANCH  14   7
ATOM      7  N   UNL     1     -12.863  -7.009  15.006  0.00  0.00    -0.306 N 
ATOM      9  N   UNL     1     -12.547  -5.896  12.964  0.00  0.00    -0.211 NA
ATOM     10  N   UNL     1     -14.664  -5.801  14.110  0.00  0.00    -0.223 NA
ATOM     18  C   UNL     1     -13.373  -6.211  13.997  0.00  0.00    +0.216 A 
ATOM     23  C   UNL     1     -13.077  -5.118  11.998  0.00  0.00    +0.111 A 
ATOM     24  C   UNL     1     -15.130  -5.026  13.109  0.00  0.00    +0.116 A 
ATOM     25  C   UNL     1     -14.375  -4.649  12.017  0.00  0.00    +0.051 A 
ATOM     31  H   UNL     1     -13.503  -7.280  15.743  0.00  0.00    +0.149 HD
BRANCH  23  26
ATOM      5  O   UNL     1     -11.619  -5.870  10.298  0.00  0.00    -0.461 OA
ATOM     26  C   UNL     1     -12.179  -4.800  10.919  0.00  0.00    +0.153 A 
ATOM     27  C   UNL     1     -11.743  -3.626  10.357  0.00  0.00    +0.051 A 
ATOM     28  C   UNL     1     -10.855  -3.997   9.319  0.00  0.00    +0.042 A 
ATOM     29  C   UNL     1     -10.814  -5.372   9.323  0.00  0.00    +0.196 A 
ENDBRANCH  23  26
ENDBRANCH  14   7
TORSDOF 3
ENDMDL
