MODEL 1
REMARK VINA RESULT:      -7.6      0.000      0.000
REMARK  Name = 51137976
REMARK  5 active torsions:
REMARK  status: ('A' for Active; 'I' for Inactive)
REMARK    1  A    between atoms: C_8  and  C_12
REMARK    2  A    between atoms: C_9  and  C_15
REMARK    3  A    between atoms: C_12  and  C_16
REMARK    4  A    between atoms: C_16  and  C_25
REMARK    5  A    between atoms: C_16  and  C_26
REMARK                            x       y       z     vdW  Elec       q    Type
REMARK                         _______ _______ _______ _____ _____    ______ ____
ROOT
ATOM      2  N   UNL     1      14.916   9.071  20.049  0.00  0.00    -0.299 NA
ATOM      5  N   UNL     1      10.522   9.931  22.385  0.00  0.00    -0.360 N 
ATOM      8  C   UNL     1      14.153   7.821  19.935  0.00  0.00    +0.085 C 
ATOM      9  C   UNL     1      14.240  10.246  19.517  0.00  0.00    +0.145 C 
ATOM     10  C   UNL     1      13.536  11.035  20.620  0.00  0.00    +0.065 C 
ATOM     11  C   UNL     1      12.844   7.761  20.729  0.00  0.00    -0.021 A 
ATOM     13  C   UNL     1      12.159   8.888  21.268  0.00  0.00    +0.008 A 
ATOM     14  C   UNL     1      12.401  10.305  21.256  0.00  0.00    -0.020 A 
ATOM     17  C   UNL     1      10.959   8.697  21.963  0.00  0.00    +0.047 A 
ATOM     20  C   UNL     1      11.377  10.904  21.961  0.00  0.00    +0.087 A 
ATOM     23  C   UNL     1      12.204   6.505  20.887  0.00  0.00    +0.006 A 
ATOM     24  C   UNL     1      10.368   7.447  22.149  0.00  0.00    +0.026 A 
ATOM     27  C   UNL     1      11.007   6.350  21.586  0.00  0.00    +0.002 A 
ATOM     32  H   UNL     1      15.222   9.224  21.009  0.00  0.00    +0.123 HD
ATOM     33  H   UNL     1       9.678  10.093  22.917  0.00  0.00    +0.165 HD
ENDROOT
BRANCH   9  15
ATOM      1  O   UNL     1      16.267  11.459  19.636  0.00  0.00    -0.274 OA
ATOM      3  N   UNL     1      15.193  11.413  17.576  0.00  0.00    -0.297 N 
ATOM      4  N   UNL     1      15.126  11.958  14.733  0.00  0.00    -0.297 N 
ATOM      6  N   UNL     1      13.894  12.306  12.787  0.00  0.00    -0.223 NA
ATOM      7  N   UNL     1      16.303  12.264  12.746  0.00  0.00    -0.223 NA
ATOM     15  C   UNL     1      15.328  11.090  18.927  0.00  0.00    +0.233 C 
ATOM     18  C   UNL     1      16.215  12.228  16.925  0.00  0.00    +0.127 C 
ATOM     19  C   UNL     1      14.077  10.974  16.734  0.00  0.00    +0.127 C 
ATOM     21  C   UNL     1      16.396  11.851  15.456  0.00  0.00    +0.127 C 
ATOM     22  C   UNL     1      13.882  11.857  15.501  0.00  0.00    +0.127 C 
ATOM     28  C   UNL     1      15.106  12.186  13.359  0.00  0.00    +0.218 A 
ATOM     29  C   UNL     1      13.911  12.526  11.456  0.00  0.00    +0.116 A 
ATOM     30  C   UNL     1      16.245  12.485  11.416  0.00  0.00    +0.116 A 
ATOM     31  C   UNL     1      15.068  12.626  10.711  0.00  0.00    +0.039 A 
ENDBRANCH   9  15
BRANCH   8  12
ATOM     12  C   UNL     1      15.145   6.720  20.350  0.00  0.00    +0.026 C 
BRANCH  12  16
ATOM     16  C   UNL     1      16.575   6.991  19.870  0.00  0.00    -0.015 C 
ATOM     25  C   UNL     1      16.995   5.894  18.889  0.00  0.00    +0.007 C 
ATOM     26  C   UNL     1      17.578   7.066  21.022  0.00  0.00    +0.007 C 
ENDBRANCH  12  16
ENDBRANCH   8  12
TORSDOF 3
ENDMDL
MODEL 2
REMARK VINA RESULT:      -7.4      3.607      7.224
REMARK  Name = 51137976
REMARK  5 active torsions:
REMARK  status: ('A' for Active; 'I' for Inactive)
REMARK    1  A    between atoms: C_8  and  C_12
REMARK    2  A    between atoms: C_9  and  C_15
REMARK    3  A    between atoms: C_12  and  C_16
REMARK    4  A    between atoms: C_16  and  C_25
REMARK    5  A    between atoms: C_16  and  C_26
REMARK                            x       y       z     vdW  Elec       q    Type
REMARK                         _______ _______ _______ _____ _____    ______ ____
ROOT
ATOM      2  N   UNL     1      13.649   9.309  19.627  0.00  0.00    -0.299 NA
ATOM      5  N   UNL     1      10.710  11.717  22.953  0.00  0.00    -0.360 N 
ATOM      8  C   UNL     1      13.745  10.734  19.284  0.00  0.00    +0.085 C 
ATOM      9  C   UNL     1      14.010   8.988  21.001  0.00  0.00    +0.145 C 
ATOM     10  C   UNL     1      12.776   8.883  21.895  0.00  0.00    +0.065 C 
ATOM     11  C   UNL     1      12.794  11.669  20.038  0.00  0.00    -0.021 A 
ATOM     13  C   UNL     1      12.097  11.339  21.236  0.00  0.00    +0.008 A 
ATOM     14  C   UNL     1      12.047  10.172  22.074  0.00  0.00    -0.020 A 
ATOM     17  C   UNL     1      11.265  12.293  21.835  0.00  0.00    +0.047 A 
ATOM     20  C   UNL     1      11.177  10.446  23.110  0.00  0.00    +0.087 A 
ATOM     23  C   UNL     1      12.636  12.998  19.568  0.00  0.00    +0.006 A 
ATOM     24  C   UNL     1      11.087  13.582  21.331  0.00  0.00    +0.026 A 
ATOM     27  C   UNL     1      11.800  13.925  20.189  0.00  0.00    +0.002 A 
ATOM     32  H   UNL     1      12.730   8.939  19.391  0.00  0.00    +0.123 HD
ATOM     33  H   UNL     1      10.063  12.179  23.578  0.00  0.00    +0.165 HD
ENDROOT
BRANCH   9  15
ATOM      1  O   UNL     1      14.001   6.637  20.753  0.00  0.00    -0.274 OA
ATOM      3  N   UNL     1      16.067   7.647  21.075  0.00  0.00    -0.297 N 
ATOM      4  N   UNL     1      18.960   7.548  21.150  0.00  0.00    -0.297 N 
ATOM      6  N   UNL     1      20.979   8.442  21.894  0.00  0.00    -0.223 NA
ATOM      7  N   UNL     1      20.929   6.547  20.406  0.00  0.00    -0.223 NA
ATOM     15  C   UNL     1      14.680   7.650  20.929  0.00  0.00    +0.233 C 
ATOM     18  C   UNL     1      16.796   6.383  21.012  0.00  0.00    +0.127 C 
ATOM     19  C   UNL     1      16.874   8.853  21.285  0.00  0.00    +0.127 C 
ATOM     21  C   UNL     1      18.186   6.554  20.402  0.00  0.00    +0.127 C 
ATOM     22  C   UNL     1      18.230   8.554  21.925  0.00  0.00    +0.127 C 
ATOM     28  C   UNL     1      20.353   7.511  21.150  0.00  0.00    +0.218 A 
ATOM     29  C   UNL     1      22.326   8.378  21.872  0.00  0.00    +0.116 A 
ATOM     30  C   UNL     1      22.278   6.542  20.429  0.00  0.00    +0.116 A 
ATOM     31  C   UNL     1      23.037   7.440  21.151  0.00  0.00    +0.039 A 
ENDBRANCH   9  15
BRANCH   8  12
ATOM     12  C   UNL     1      13.536  10.783  17.761  0.00  0.00    +0.026 C 
BRANCH  12  16
ATOM     16  C   UNL     1      13.254   9.406  17.151  0.00  0.00    -0.015 C 
ATOM     25  C   UNL     1      14.273   9.125  16.044  0.00  0.00    +0.007 C 
ATOM     26  C   UNL     1      11.836   9.290  16.590  0.00  0.00    +0.007 C 
ENDBRANCH  12  16
ENDBRANCH   8  12
TORSDOF 3
ENDMDL
MODEL 3
REMARK VINA RESULT:      -7.1     28.919     31.881
REMARK  Name = 51137976
REMARK  5 active torsions:
REMARK  status: ('A' for Active; 'I' for Inactive)
REMARK    1  A    between atoms: C_8  and  C_12
REMARK    2  A    between atoms: C_9  and  C_15
REMARK    3  A    between atoms: C_12  and  C_16
REMARK    4  A    between atoms: C_16  and  C_25
REMARK    5  A    between atoms: C_16  and  C_26
REMARK                            x       y       z     vdW  Elec       q    Type
REMARK                         _______ _______ _______ _____ _____    ______ ____
ROOT
ATOM      2  N   UNL     1     -12.878   9.274  32.315  0.00  0.00    -0.299 NA
ATOM      5  N   UNL     1     -11.182   9.024  37.065  0.00  0.00    -0.360 N 
ATOM      8  C   UNL     1     -11.422   9.443  32.227  0.00  0.00    +0.085 C 
ATOM      9  C   UNL     1     -13.309   8.053  32.981  0.00  0.00    +0.145 C 
ATOM     10  C   UNL     1     -13.644   8.303  34.450  0.00  0.00    +0.065 C 
ATOM     11  C   UNL     1     -10.683   9.589  33.561  0.00  0.00    -0.021 A 
ATOM     13  C   UNL     1     -11.216   9.243  34.836  0.00  0.00    +0.008 A 
ATOM     14  C   UNL     1     -12.468   8.693  35.281  0.00  0.00    -0.020 A 
ATOM     17  C   UNL     1     -10.429   9.412  35.982  0.00  0.00    +0.047 A 
ATOM     20  C   UNL     1     -12.405   8.584  36.655  0.00  0.00    +0.087 A 
ATOM     23  C   UNL     1      -9.334  10.028  33.545  0.00  0.00    +0.006 A 
ATOM     24  C   UNL     1      -9.119   9.890  35.950  0.00  0.00    +0.026 A 
ATOM     27  C   UNL     1      -8.577  10.184  34.705  0.00  0.00    +0.002 A 
ATOM     32  H   UNL     1     -13.316  10.095  32.731  0.00  0.00    +0.123 HD
ATOM     33  H   UNL     1     -10.864   9.044  38.025  0.00  0.00    +0.165 HD
ENDROOT
BRANCH   9  15
ATOM      1  O   UNL     1     -15.346   8.484  31.860  0.00  0.00    -0.274 OA
ATOM      3  N   UNL     1     -14.728   6.256  32.089  0.00  0.00    -0.297 N 
ATOM      4  N   UNL     1     -15.087   3.446  31.490  0.00  0.00    -0.297 N 
ATOM      6  N   UNL     1     -14.742   1.214  32.064  0.00  0.00    -0.223 NA
ATOM      7  N   UNL     1     -15.855   1.816  30.013  0.00  0.00    -0.223 NA
ATOM     15  C   UNL     1     -14.552   7.629  32.259  0.00  0.00    +0.233 C 
ATOM     18  C   UNL     1     -15.912   5.763  31.389  0.00  0.00    +0.127 C 
ATOM     19  C   UNL     1     -13.783   5.241  32.563  0.00  0.00    +0.127 C 
ATOM     21  C   UNL     1     -15.622   4.484  30.606  0.00  0.00    +0.127 C 
ATOM     22  C   UNL     1     -14.427   3.865  32.730  0.00  0.00    +0.127 C 
ATOM     28  C   UNL     1     -15.234   2.097  31.175  0.00  0.00    +0.218 A 
ATOM     29  C   UNL     1     -14.902  -0.083  31.728  0.00  0.00    +0.116 A 
ATOM     30  C   UNL     1     -15.980   0.501  29.739  0.00  0.00    +0.116 A 
ATOM     31  C   UNL     1     -15.519  -0.503  30.566  0.00  0.00    +0.039 A 
ENDBRANCH   9  15
BRANCH   8  12
ATOM     12  C   UNL     1     -11.227  10.662  31.309  0.00  0.00    +0.026 C 
BRANCH  12  16
ATOM     16  C   UNL     1     -12.240  10.715  30.161  0.00  0.00    -0.015 C 
ATOM     25  C   UNL     1     -11.566  10.249  28.868  0.00  0.00    +0.007 C 
ATOM     26  C   UNL     1     -12.830  12.112  29.961  0.00  0.00    +0.007 C 
ENDBRANCH  12  16
ENDBRANCH   8  12
TORSDOF 3
ENDMDL
MODEL 4
REMARK VINA RESULT:      -7.0      4.806      8.029
REMARK  Name = 51137976
REMARK  5 active torsions:
REMARK  status: ('A' for Active; 'I' for Inactive)
REMARK    1  A    between atoms: C_8  and  C_12
REMARK    2  A    between atoms: C_9  and  C_15
REMARK    3  A    between atoms: C_12  and  C_16
REMARK    4  A    between atoms: C_16  and  C_25
REMARK    5  A    between atoms: C_16  and  C_26
REMARK                            x       y       z     vdW  Elec       q    Type
REMARK                         _______ _______ _______ _____ _____    ______ ____
ROOT
ATOM      2  N   UNL     1      15.243  10.201  21.733  0.00  0.00    -0.299 NA
ATOM      5  N   UNL     1      12.309   7.097  19.038  0.00  0.00    -0.360 N 
ATOM      8  C   UNL     1      14.074   9.925  22.578  0.00  0.00    +0.085 C 
ATOM      9  C   UNL     1      15.968   9.018  21.291  0.00  0.00    +0.145 C 
ATOM     10  C   UNL     1      15.544   8.592  19.887  0.00  0.00    +0.065 C 
ATOM     11  C   UNL     1      12.935   9.145  21.911  0.00  0.00    -0.021 A 
ATOM     13  C   UNL     1      13.050   8.397  20.704  0.00  0.00    +0.008 A 
ATOM     14  C   UNL     1      14.131   8.123  19.796  0.00  0.00    -0.020 A 
ATOM     17  C   UNL     1      11.933   7.715  20.207  0.00  0.00    +0.047 A 
ATOM     20  C   UNL     1      13.628   7.330  18.785  0.00  0.00    +0.087 A 
ATOM     23  C   UNL     1      11.679   9.085  22.568  0.00  0.00    +0.006 A 
ATOM     24  C   UNL     1      10.691   7.706  20.844  0.00  0.00    +0.026 A 
ATOM     27  C   UNL     1      10.586   8.395  22.046  0.00  0.00    +0.002 A 
ATOM     32  H   UNL     1      14.990  10.794  20.944  0.00  0.00    +0.123 HD
ATOM     33  H   UNL     1      11.698   6.535  18.461  0.00  0.00    +0.165 HD
ENDROOT
BRANCH   9  15
ATOM      1  O   UNL     1      17.704  10.623  21.277  0.00  0.00    -0.274 OA
ATOM      3  N   UNL     1      18.342   8.390  21.232  0.00  0.00    -0.297 N 
ATOM      4  N   UNL     1      20.364   6.322  21.376  0.00  0.00    -0.297 N 
ATOM      6  N   UNL     1      21.043   4.146  20.896  0.00  0.00    -0.223 NA
ATOM      7  N   UNL     1      22.450   5.641  22.158  0.00  0.00    -0.223 NA
ATOM     15  C   UNL     1      17.408   9.425  21.268  0.00  0.00    +0.233 C 
ATOM     18  C   UNL     1      19.768   8.705  21.214  0.00  0.00    +0.127 C 
ATOM     19  C   UNL     1      17.990   6.967  21.222  0.00  0.00    +0.127 C 
ATOM     21  C   UNL     1      20.596   7.651  21.946  0.00  0.00    +0.127 C 
ATOM     22  C   UNL     1      19.107   6.085  20.661  0.00  0.00    +0.127 C 
ATOM     28  C   UNL     1      21.330   5.324  21.482  0.00  0.00    +0.218 A 
ATOM     29  C   UNL     1      22.000   3.202  21.018  0.00  0.00    +0.116 A 
ATOM     30  C   UNL     1      23.363   4.651  22.241  0.00  0.00    +0.116 A 
ATOM     31  C   UNL     1      23.192   3.400  21.685  0.00  0.00    +0.039 A 
ENDBRANCH   9  15
BRANCH   8  12
ATOM     12  C   UNL     1      13.624  11.307  23.084  0.00  0.00    +0.026 C 
BRANCH  12  16
ATOM     16  C   UNL     1      13.579  12.364  21.976  0.00  0.00    -0.015 C 
ATOM     25  C   UNL     1      14.150  13.681  22.511  0.00  0.00    +0.007 C 
ATOM     26  C   UNL     1      12.166  12.594  21.439  0.00  0.00    +0.007 C 
ENDBRANCH  12  16
ENDBRANCH   8  12
TORSDOF 3
ENDMDL
MODEL 5
REMARK VINA RESULT:      -7.0     27.255     31.251
REMARK  Name = 51137976
REMARK  5 active torsions:
REMARK  status: ('A' for Active; 'I' for Inactive)
REMARK    1  A    between atoms: C_8  and  C_12
REMARK    2  A    between atoms: C_9  and  C_15
REMARK    3  A    between atoms: C_12  and  C_16
REMARK    4  A    between atoms: C_16  and  C_25
REMARK    5  A    between atoms: C_16  and  C_26
REMARK                            x       y       z     vdW  Elec       q    Type
REMARK                         _______ _______ _______ _____ _____    ______ ____
ROOT
ATOM      2  N   UNL     1      -6.368  -9.534  14.833  0.00  0.00    -0.299 NA
ATOM      5  N   UNL     1      -1.707 -11.352  15.523  0.00  0.00    -0.360 N 
ATOM      8  C   UNL     1      -6.024 -10.233  13.587  0.00  0.00    +0.085 C 
ATOM      9  C   UNL     1      -6.277 -10.353  16.034  0.00  0.00    +0.145 C 
ATOM     10  C   UNL     1      -4.943 -10.152  16.750  0.00  0.00    +0.065 C 
ATOM     11  C   UNL     1      -4.577 -10.722  13.471  0.00  0.00    -0.021 A 
ATOM     13  C   UNL     1      -3.667 -10.859  14.559  0.00  0.00    +0.008 A 
ATOM     14  C   UNL     1      -3.762 -10.633  15.976  0.00  0.00    -0.020 A 
ATOM     17  C   UNL     1      -2.372 -11.333  14.319  0.00  0.00    +0.047 A 
ATOM     20  C   UNL     1      -2.534 -10.939  16.525  0.00  0.00    +0.087 A 
ATOM     23  C   UNL     1      -4.105 -11.151  12.204  0.00  0.00    +0.006 A 
ATOM     24  C   UNL     1      -1.911 -11.706  13.056  0.00  0.00    +0.026 A 
ATOM     27  C   UNL     1      -2.808 -11.619  11.999  0.00  0.00    +0.002 A 
ATOM     32  H   UNL     1      -5.827  -8.676  14.930  0.00  0.00    +0.123 HD
ATOM     33  H   UNL     1      -0.748 -11.647  15.646  0.00  0.00    +0.165 HD
ENDROOT
BRANCH   9  15
ATOM      1  O   UNL     1      -7.832  -8.734  16.777  0.00  0.00    -0.274 OA
ATOM      3  N   UNL     1      -7.850 -10.782  17.872  0.00  0.00    -0.297 N 
ATOM      4  N   UNL     1      -9.030 -12.656  19.738  0.00  0.00    -0.297 N 
ATOM      6  N   UNL     1      -8.801 -14.504  21.138  0.00  0.00    -0.223 NA
ATOM      7  N   UNL     1     -10.937 -13.432  20.828  0.00  0.00    -0.223 NA
ATOM     15  C   UNL     1      -7.387  -9.875  16.919  0.00  0.00    +0.233 C 
ATOM     18  C   UNL     1      -8.934 -10.394  18.770  0.00  0.00    +0.127 C 
ATOM     19  C   UNL     1      -7.320 -12.139  18.040  0.00  0.00    +0.127 C 
ATOM     21  C   UNL     1      -9.823 -11.580  19.139  0.00  0.00    +0.127 C 
ATOM     22  C   UNL     1      -7.599 -12.716  19.428  0.00  0.00    +0.127 C 
ATOM     28  C   UNL     1      -9.616 -13.573  20.608  0.00  0.00    +0.218 A 
ATOM     29  C   UNL     1      -9.401 -15.375  21.976  0.00  0.00    +0.116 A 
ATOM     30  C   UNL     1     -11.471 -14.337  21.675  0.00  0.00    +0.116 A 
ATOM     31  C   UNL     1     -10.746 -15.340  22.284  0.00  0.00    +0.039 A 
ENDBRANCH   9  15
BRANCH   8  12
ATOM     12  C   UNL     1      -6.404  -9.245  12.470  0.00  0.00    +0.026 C 
BRANCH  12  16
ATOM     16  C   UNL     1      -7.485  -9.790  11.531  0.00  0.00    -0.015 C 
ATOM     25  C   UNL     1      -7.972 -11.144  12.052  0.00  0.00    +0.007 C 
ATOM     26  C   UNL     1      -6.993  -9.938  10.090  0.00  0.00    +0.007 C 
ENDBRANCH  12  16
ENDBRANCH   8  12
TORSDOF 3
ENDMDL
MODEL 6
REMARK VINA RESULT:      -6.9     27.859     30.788
REMARK  Name = 51137976
REMARK  5 active torsions:
REMARK  status: ('A' for Active; 'I' for Inactive)
REMARK    1  A    between atoms: C_8  and  C_12
REMARK    2  A    between atoms: C_9  and  C_15
REMARK    3  A    between atoms: C_12  and  C_16
REMARK    4  A    between atoms: C_16  and  C_25
REMARK    5  A    between atoms: C_16  and  C_26
REMARK                            x       y       z     vdW  Elec       q    Type
REMARK                         _______ _______ _______ _____ _____    ______ ____
ROOT
ATOM      2  N   UNL     1      -9.854  -9.922  19.154  0.00  0.00    -0.299 NA
ATOM      5  N   UNL     1     -11.605  -6.775  15.613  0.00  0.00    -0.360 N 
ATOM      8  C   UNL     1     -11.244 -10.329  18.912  0.00  0.00    +0.085 C 
ATOM      9  C   UNL     1      -9.008  -9.915  17.968  0.00  0.00    +0.145 C 
ATOM     10  C   UNL     1      -8.899  -8.516  17.365  0.00  0.00    +0.065 C 
ATOM     11  C   UNL     1     -12.063  -9.406  18.003  0.00  0.00    -0.021 A 
ATOM     13  C   UNL     1     -11.519  -8.420  17.131  0.00  0.00    +0.008 A 
ATOM     14  C   UNL     1     -10.183  -7.993  16.814  0.00  0.00    -0.020 A 
ATOM     17  C   UNL     1     -12.379  -7.650  16.338  0.00  0.00    +0.047 A 
ATOM     20  C   UNL     1     -10.285  -6.976  15.887  0.00  0.00    +0.087 A 
ATOM     23  C   UNL     1     -13.470  -9.581  17.950  0.00  0.00    +0.006 A 
ATOM     24  C   UNL     1     -13.766  -7.805  16.335  0.00  0.00    +0.026 A 
ATOM     27  C   UNL     1     -14.299  -8.797  17.148  0.00  0.00    +0.002 A 
ATOM     32  H   UNL     1      -9.815  -9.027  19.639  0.00  0.00    +0.123 HD
ATOM     33  H   UNL     1     -11.965  -6.094  14.958  0.00  0.00    +0.165 HD
ENDROOT
BRANCH   9  15
ATOM      1  O   UNL     1      -7.476 -10.566  19.647  0.00  0.00    -0.274 OA
ATOM      3  N   UNL     1      -6.669 -10.480  17.471  0.00  0.00    -0.297 N 
ATOM      4  N   UNL     1      -4.606 -10.989  15.504  0.00  0.00    -0.297 N 
ATOM      6  N   UNL     1      -3.642 -10.506  13.439  0.00  0.00    -0.223 NA
ATOM      7  N   UNL     1      -2.774 -12.266  14.839  0.00  0.00    -0.223 NA
ATOM     15  C   UNL     1      -7.657 -10.350  18.447  0.00  0.00    +0.233 C 
ATOM     18  C   UNL     1      -5.326 -10.905  17.857  0.00  0.00    +0.127 C 
ATOM     19  C   UNL     1      -6.885 -10.223  16.044  0.00  0.00    +0.127 C 
ATOM     21  C   UNL     1      -4.653 -11.734  16.765  0.00  0.00    +0.127 C 
ATOM     22  C   UNL     1      -5.587  -9.922  15.294  0.00  0.00    +0.127 C 
ATOM     28  C   UNL     1      -3.630 -11.266  14.550  0.00  0.00    +0.218 A 
ATOM     29  C   UNL     1      -2.683 -10.801  12.536  0.00  0.00    +0.116 A 
ATOM     30  C   UNL     1      -1.843 -12.507  13.892  0.00  0.00    +0.116 A 
ATOM     31  C   UNL     1      -1.748 -11.801  12.711  0.00  0.00    +0.039 A 
ENDBRANCH   9  15
BRANCH   8  12
ATOM     12  C   UNL     1     -11.858 -10.468  20.316  0.00  0.00    +0.026 C 
BRANCH  12  16
ATOM     16  C   UNL     1     -12.349 -11.888  20.617  0.00  0.00    -0.015 C 
ATOM     25  C   UNL     1     -12.009 -12.801  19.436  0.00  0.00    +0.007 C 
ATOM     26  C   UNL     1     -13.851 -11.944  20.898  0.00  0.00    +0.007 C 
ENDBRANCH  12  16
ENDBRANCH   8  12
TORSDOF 3
ENDMDL
MODEL 7
REMARK VINA RESULT:      -6.9      1.668      2.153
REMARK  Name = 51137976
REMARK  5 active torsions:
REMARK  status: ('A' for Active; 'I' for Inactive)
REMARK    1  A    between atoms: C_8  and  C_12
REMARK    2  A    between atoms: C_9  and  C_15
REMARK    3  A    between atoms: C_12  and  C_16
REMARK    4  A    between atoms: C_16  and  C_25
REMARK    5  A    between atoms: C_16  and  C_26
REMARK                            x       y       z     vdW  Elec       q    Type
REMARK                         _______ _______ _______ _____ _____    ______ ____
ROOT
ATOM      2  N   UNL     1      15.100   9.528  21.382  0.00  0.00    -0.299 NA
ATOM      5  N   UNL     1      10.204   9.541  22.621  0.00  0.00    -0.360 N 
ATOM      8  C   UNL     1      14.553   8.269  20.858  0.00  0.00    +0.085 C 
ATOM      9  C   UNL     1      14.424  10.728  20.909  0.00  0.00    +0.145 C 
ATOM     10  C   UNL     1      13.383  11.218  21.914  0.00  0.00    +0.065 C 
ATOM     11  C   UNL     1      13.112   7.945  21.264  0.00  0.00    -0.021 A 
ATOM     13  C   UNL     1      12.179   8.880  21.797  0.00  0.00    +0.008 A 
ATOM     14  C   UNL     1      12.233  10.285  22.098  0.00  0.00    -0.020 A 
ATOM     17  C   UNL     1      10.883   8.457  22.116  0.00  0.00    +0.047 A 
ATOM     20  C   UNL     1      11.003  10.645  22.609  0.00  0.00    +0.087 A 
ATOM     23  C   UNL     1      12.619   6.635  21.029  0.00  0.00    +0.006 A 
ATOM     24  C   UNL     1      10.431   7.152  21.921  0.00  0.00    +0.026 A 
ATOM     27  C   UNL     1      11.322   6.246  21.357  0.00  0.00    +0.002 A 
ATOM     32  H   UNL     1      15.147   9.508  22.400  0.00  0.00    +0.123 HD
ATOM     33  H   UNL     1       9.244   9.523  22.937  0.00  0.00    +0.165 HD
ENDROOT
BRANCH   9  15
ATOM      1  O   UNL     1      15.995  12.261  21.789  0.00  0.00    -0.274 OA
ATOM      3  N   UNL     1      15.882  12.090  19.475  0.00  0.00    -0.297 N 
ATOM      4  N   UNL     1      16.895  12.694  16.831  0.00  0.00    -0.297 N 
ATOM      6  N   UNL     1      16.527  12.883  14.538  0.00  0.00    -0.223 NA
ATOM      7  N   UNL     1      18.713  13.247  15.484  0.00  0.00    -0.223 NA
ATOM     15  C   UNL     1      15.503  11.759  20.776  0.00  0.00    +0.233 C 
ATOM     18  C   UNL     1      16.931  13.083  19.262  0.00  0.00    +0.127 C 
ATOM     19  C   UNL     1      15.296  11.493  18.272  0.00  0.00    +0.127 C 
ATOM     21  C   UNL     1      17.757  12.783  18.012  0.00  0.00    +0.127 C 
ATOM     22  C   UNL     1      15.481  12.364  17.029  0.00  0.00    +0.127 C 
ATOM     28  C   UNL     1      17.401  12.953  15.559  0.00  0.00    +0.218 A 
ATOM     29  C   UNL     1      17.051  13.139  13.321  0.00  0.00    +0.116 A 
ATOM     30  C   UNL     1      19.170  13.492  14.237  0.00  0.00    +0.116 A 
ATOM     31  C   UNL     1      18.378  13.452  13.109  0.00  0.00    +0.039 A 
ENDBRANCH   9  15
BRANCH   8  12
ATOM     12  C   UNL     1      15.551   7.191  21.315  0.00  0.00    +0.026 C 
BRANCH  12  16
ATOM     16  C   UNL     1      16.801   7.119  20.431  0.00  0.00    -0.015 C 
ATOM     25  C   UNL     1      16.526   6.198  19.240  0.00  0.00    +0.007 C 
ATOM     26  C   UNL     1      18.032   6.626  21.192  0.00  0.00    +0.007 C 
ENDBRANCH  12  16
ENDBRANCH   8  12
TORSDOF 3
ENDMDL
MODEL 8
REMARK VINA RESULT:      -6.7     26.899     29.339
REMARK  Name = 51137976
REMARK  5 active torsions:
REMARK  status: ('A' for Active; 'I' for Inactive)
REMARK    1  A    between atoms: C_8  and  C_12
REMARK    2  A    between atoms: C_9  and  C_15
REMARK    3  A    between atoms: C_12  and  C_16
REMARK    4  A    between atoms: C_16  and  C_25
REMARK    5  A    between atoms: C_16  and  C_26
REMARK                            x       y       z     vdW  Elec       q    Type
REMARK                         _______ _______ _______ _____ _____    ______ ____
ROOT
ATOM      2  N   UNL     1      -4.985 -12.089  12.956  0.00  0.00    -0.299 NA
ATOM      5  N   UNL     1      -1.722 -11.007  16.656  0.00  0.00    -0.360 N 
ATOM      8  C   UNL     1      -5.803 -11.635  14.088  0.00  0.00    +0.085 C 
ATOM      9  C   UNL     1      -3.968 -11.141  12.522  0.00  0.00    +0.145 C 
ATOM     10  C   UNL     1      -2.604 -11.464  13.130  0.00  0.00    +0.065 C 
ATOM     11  C   UNL     1      -5.057 -11.418  15.409  0.00  0.00    -0.021 A 
ATOM     13  C   UNL     1      -3.644 -11.289  15.541  0.00  0.00    +0.008 A 
ATOM     14  C   UNL     1      -2.547 -11.300  14.612  0.00  0.00    -0.020 A 
ATOM     17  C   UNL     1      -3.087 -11.078  16.808  0.00  0.00    +0.047 A 
ATOM     20  C   UNL     1      -1.388 -11.134  15.341  0.00  0.00    +0.087 A 
ATOM     23  C   UNL     1      -5.814 -11.251  16.597  0.00  0.00    +0.006 A 
ATOM     24  C   UNL     1      -3.847 -10.964  17.973  0.00  0.00    +0.026 A 
ATOM     27  C   UNL     1      -5.228 -11.041  17.844  0.00  0.00    +0.002 A 
ATOM     32  H   UNL     1      -4.579 -13.004  13.144  0.00  0.00    +0.123 HD
ATOM     33  H   UNL     1      -1.065 -10.864  17.411  0.00  0.00    +0.165 HD
ENDROOT
BRANCH   9  15
ATOM      1  O   UNL     1      -3.106 -12.113  10.547  0.00  0.00    -0.274 OA
ATOM      3  N   UNL     1      -4.742 -10.485  10.284  0.00  0.00    -0.297 N 
ATOM      4  N   UNL     1      -6.612  -9.003   8.644  0.00  0.00    -0.297 N 
ATOM      6  N   UNL     1      -7.912  -7.099   8.307  0.00  0.00    -0.223 NA
ATOM      7  N   UNL     1      -7.962  -8.934   6.747  0.00  0.00    -0.223 NA
ATOM     15  C   UNL     1      -3.893 -11.299  11.035  0.00  0.00    +0.233 C 
ATOM     18  C   UNL     1      -4.733 -10.583   8.828  0.00  0.00    +0.127 C 
ATOM     19  C   UNL     1      -5.677  -9.517  10.865  0.00  0.00    +0.127 C 
ATOM     21  C   UNL     1      -6.112 -10.315   8.228  0.00  0.00    +0.127 C 
ATOM     22  C   UNL     1      -6.082  -8.421   9.880  0.00  0.00    +0.127 C 
ATOM     28  C   UNL     1      -7.538  -8.314   7.864  0.00  0.00    +0.218 A 
ATOM     29  C   UNL     1      -8.809  -6.460   7.529  0.00  0.00    +0.116 A 
ATOM     30  C   UNL     1      -8.859  -8.239   6.016  0.00  0.00    +0.116 A 
ATOM     31  C   UNL     1      -9.323  -6.986   6.360  0.00  0.00    +0.039 A 
ENDBRANCH   9  15
BRANCH   8  12
ATOM     12  C   UNL     1      -6.919 -12.687  14.208  0.00  0.00    +0.026 C 
BRANCH  12  16
ATOM     16  C   UNL     1      -8.320 -12.100  14.008  0.00  0.00    -0.015 C 
ATOM     25  C   UNL     1      -8.198 -10.630  13.597  0.00  0.00    +0.007 C 
ATOM     26  C   UNL     1      -9.191 -12.216  15.259  0.00  0.00    +0.007 C 
ENDBRANCH  12  16
ENDBRANCH   8  12
TORSDOF 3
ENDMDL
MODEL 9
REMARK VINA RESULT:      -6.7     23.353     26.782
REMARK  Name = 51137976
REMARK  5 active torsions:
REMARK  status: ('A' for Active; 'I' for Inactive)
REMARK    1  A    between atoms: C_8  and  C_12
REMARK    2  A    between atoms: C_9  and  C_15
REMARK    3  A    between atoms: C_12  and  C_16
REMARK    4  A    between atoms: C_16  and  C_25
REMARK    5  A    between atoms: C_16  and  C_26
REMARK                            x       y       z     vdW  Elec       q    Type
REMARK                         _______ _______ _______ _____ _____    ______ ____
ROOT
ATOM      2  N   UNL     1      -2.527  10.461  37.404  0.00  0.00    -0.299 NA
ATOM      5  N   UNL     1      -3.330   6.835  40.827  0.00  0.00    -0.360 N 
ATOM      8  C   UNL     1      -1.710   9.319  36.973  0.00  0.00    +0.085 C 
ATOM      9  C   UNL     1      -3.945  10.169  37.562  0.00  0.00    +0.145 C 
ATOM     10  C   UNL     1      -4.297   9.871  39.018  0.00  0.00    +0.065 C 
ATOM     11  C   UNL     1      -1.635   8.142  37.952  0.00  0.00    -0.021 A 
ATOM     13  C   UNL     1      -2.527   7.923  39.041  0.00  0.00    +0.008 A 
ATOM     14  C   UNL     1      -3.678   8.621  39.547  0.00  0.00    -0.020 A 
ATOM     17  C   UNL     1      -2.358   6.797  39.855  0.00  0.00    +0.047 A 
ATOM     20  C   UNL     1      -4.132   7.923  40.647  0.00  0.00    +0.087 A 
ATOM     23  C   UNL     1      -0.657   7.138  37.732  0.00  0.00    +0.006 A 
ATOM     24  C   UNL     1      -1.360   5.843  39.650  0.00  0.00    +0.026 A 
ATOM     27  C   UNL     1      -0.516   6.027  38.562  0.00  0.00    +0.002 A 
ATOM     32  H   UNL     1      -2.142  10.887  38.246  0.00  0.00    +0.123 HD
ATOM     33  H   UNL     1      -3.443   6.145  41.557  0.00  0.00    +0.165 HD
ENDROOT
BRANCH   9  15
ATOM      1  O   UNL     1      -4.241  12.514  37.512  0.00  0.00    -0.274 OA
ATOM      3  N   UNL     1      -5.764  11.241  36.306  0.00  0.00    -0.297 N 
ATOM      4  N   UNL     1      -7.949  11.005  34.421  0.00  0.00    -0.297 N 
ATOM      6  N   UNL     1      -9.735   9.778  33.565  0.00  0.00    -0.223 NA
ATOM      7  N   UNL     1      -9.103  11.894  32.602  0.00  0.00    -0.223 NA
ATOM     15  C   UNL     1      -4.653  11.417  37.130  0.00  0.00    +0.233 C 
ATOM     18  C   UNL     1      -6.505  12.409  35.837  0.00  0.00    +0.127 C 
ATOM     19  C   UNL     1      -6.253   9.935  35.853  0.00  0.00    +0.127 C 
ATOM     21  C   UNL     1      -7.091  12.192  34.443  0.00  0.00    +0.127 C 
ATOM     22  C   UNL     1      -7.722   9.967  35.430  0.00  0.00    +0.127 C 
ATOM     28  C   UNL     1      -8.976  10.887  33.487  0.00  0.00    +0.218 A 
ATOM     29  C   UNL     1     -10.720   9.695  32.646  0.00  0.00    +0.116 A 
ATOM     30  C   UNL     1     -10.106  11.746  31.712  0.00  0.00    +0.116 A 
ATOM     31  C   UNL     1     -10.955  10.659  31.686  0.00  0.00    +0.039 A 
ENDBRANCH   9  15
BRANCH   8  12
ATOM     12  C   UNL     1      -0.327   9.922  36.670  0.00  0.00    +0.026 C 
BRANCH  12  16
ATOM     16  C   UNL     1      -0.393  11.399  36.270  0.00  0.00    -0.015 C 
ATOM     25  C   UNL     1       0.033  11.547  34.807  0.00  0.00    +0.007 C 
ATOM     26  C   UNL     1       0.481  12.288  37.155  0.00  0.00    +0.007 C 
ENDBRANCH  12  16
ENDBRANCH   8  12
TORSDOF 3
ENDMDL
MODEL 10
REMARK VINA RESULT:      -6.6     12.952     17.563
REMARK  Name = 51137976
REMARK  5 active torsions:
REMARK  status: ('A' for Active; 'I' for Inactive)
REMARK    1  A    between atoms: C_8  and  C_12
REMARK    2  A    between atoms: C_9  and  C_15
REMARK    3  A    between atoms: C_12  and  C_16
REMARK    4  A    between atoms: C_16  and  C_25
REMARK    5  A    between atoms: C_16  and  C_26
REMARK                            x       y       z     vdW  Elec       q    Type
REMARK                         _______ _______ _______ _____ _____    ______ ____
ROOT
ATOM      2  N   UNL     1      10.170   6.436   2.469  0.00  0.00    -0.299 NA
ATOM      5  N   UNL     1      10.093   4.544   7.150  0.00  0.00    -0.360 N 
ATOM      8  C   UNL     1      10.700   7.497   3.336  0.00  0.00    +0.085 C 
ATOM      9  C   UNL     1      10.883   5.169   2.553  0.00  0.00    +0.145 C 
ATOM     10  C   UNL     1      10.188   4.197   3.504  0.00  0.00    +0.065 C 
ATOM     11  C   UNL     1      10.609   7.237   4.843  0.00  0.00    -0.021 A 
ATOM     13  C   UNL     1      10.383   5.965   5.444  0.00  0.00    +0.008 A 
ATOM     14  C   UNL     1      10.196   4.635   4.931  0.00  0.00    -0.020 A 
ATOM     17  C   UNL     1      10.337   5.861   6.840  0.00  0.00    +0.047 A 
ATOM     20  C   UNL     1      10.012   3.798   6.012  0.00  0.00    +0.087 A 
ATOM     23  C   UNL     1      10.842   8.317   5.733  0.00  0.00    +0.006 A 
ATOM     24  C   UNL     1      10.522   6.945   7.698  0.00  0.00    +0.026 A 
ATOM     27  C   UNL     1      10.789   8.179   7.119  0.00  0.00    +0.002 A 
ATOM     32  H   UNL     1       9.171   6.308   2.620  0.00  0.00    +0.123 HD
ATOM     33  H   UNL     1      10.004   4.180   8.089  0.00  0.00    +0.165 HD
ENDROOT
BRANCH   9  15
ATOM      1  O   UNL     1       9.780   4.220   0.689  0.00  0.00    -0.274 OA
ATOM      3  N   UNL     1      12.070   4.555   0.491  0.00  0.00    -0.297 N 
ATOM      4  N   UNL     1      14.505   4.602  -1.075  0.00  0.00    -0.297 N 
ATOM      6  N   UNL     1      16.831   4.511  -1.167  0.00  0.00    -0.223 NA
ATOM      7  N   UNL     1      15.518   4.861  -3.157  0.00  0.00    -0.223 NA
ATOM     15  C   UNL     1      10.850   4.607   1.165  0.00  0.00    +0.233 C 
ATOM     18  C   UNL     1      12.120   4.025  -0.869  0.00  0.00    +0.127 C 
ATOM     19  C   UNL     1      13.341   5.015   1.058  0.00  0.00    +0.127 C 
ATOM     21  C   UNL     1      13.191   4.716  -1.712  0.00  0.00    +0.127 C 
ATOM     22  C   UNL     1      14.556   4.388   0.374  0.00  0.00    +0.127 C 
ATOM     28  C   UNL     1      15.671   4.661  -1.834  0.00  0.00    +0.218 A 
ATOM     29  C   UNL     1      17.941   4.574  -1.933  0.00  0.00    +0.116 A 
ATOM     30  C   UNL     1      16.668   4.914  -3.861  0.00  0.00    +0.116 A 
ATOM     31  C   UNL     1      17.919   4.775  -3.298  0.00  0.00    +0.039 A 
ENDBRANCH   9  15
BRANCH   8  12
ATOM     12  C   UNL     1       9.939   8.764   2.909  0.00  0.00    +0.026 C 
BRANCH  12  16
ATOM     16  C   UNL     1       8.442   8.519   2.692  0.00  0.00    -0.015 C 
ATOM     25  C   UNL     1       7.977   9.291   1.454  0.00  0.00    +0.007 C 
ATOM     26  C   UNL     1       7.598   8.925   3.901  0.00  0.00    +0.007 C 
ENDBRANCH  12  16
ENDBRANCH   8  12
TORSDOF 3
ENDMDL
