REMARK  Name = 44716462
REMARK  9 active torsions:
REMARK  status: ('A' for Active; 'I' for Inactive)
REMARK    1  A    between atoms: O_3  and  C_22
REMARK    2  A    between atoms: O_3  and  C_35
REMARK    3  A    between atoms: N_6  and  C_13
REMARK    4  A    between atoms: N_6  and  C_23
REMARK    5  A    between atoms: N_8  and  C_33
REMARK    6  A    between atoms: C_11  and  C_19
REMARK    7  A    between atoms: C_15  and  C_22
REMARK    8  A    between atoms: C_23  and  C_28
REMARK    9  A    between atoms: C_28  and  C_33
REMARK                            x       y       z     vdW  Elec       q    Type
REMARK                         _______ _______ _______ _____ _____    ______ ____
ROOT
ATOM      5  N   UNL     1       1.305   0.418  -0.048  0.00  0.00    -0.274 NA
ATOM      7  N   UNL     1       2.274  -3.209   0.048  0.00  0.00    -0.356 N 
ATOM     10  C   UNL     1       1.084  -1.001  -0.463  0.00  0.00    +0.106 C 
ATOM     11  C   UNL     1       0.207   1.308  -0.504  0.00  0.00    +0.090 C 
ATOM     12  C   UNL     1      -0.252  -1.527   0.086  0.00  0.00    +0.044 C 
ATOM     13  C   UNL     1      -1.411  -0.660  -0.405  0.00  0.00    +0.057 C 
ATOM     14  C   UNL     1      -1.167   0.795  -0.007  0.00  0.00    +0.042 C 
ATOM     15  C   UNL     1       2.675   0.907  -0.362  0.00  0.00    +0.172 C 
ATOM     16  C   UNL     1       2.238  -1.844  -0.011  0.00  0.00    +0.038 A 
ATOM     17  C   UNL     1       3.777   0.092   0.361  0.00  0.00    +0.068 C 
ATOM     18  C   UNL     1       3.479  -1.367   0.351  0.00  0.00    -0.016 A 
ATOM     20  C   UNL     1       4.296  -2.483   0.678  0.00  0.00    +0.003 A 
ATOM     21  C   UNL     1       3.515  -3.626   0.481  0.00  0.00    +0.047 A 
ATOM     26  C   UNL     1       5.625  -2.638   1.120  0.00  0.00    +0.010 A 
ATOM     27  C   UNL     1       4.002  -4.919   0.706  0.00  0.00    +0.026 A 
ATOM     29  C   UNL     1       6.123  -3.925   1.351  0.00  0.00    +0.001 A 
ATOM     32  C   UNL     1       5.322  -5.047   1.146  0.00  0.00    +0.002 A 
ATOM     40  H   UNL     1       1.510  -3.828  -0.186  0.00  0.00    +0.166 HD
ENDROOT
BRANCH  11  19
ATOM      1 CL   UNL     1       0.770   7.047   1.286  0.00  0.00    -0.081 Cl
ATOM      2  F   UNL     1       0.587   4.662   3.037  0.00  0.00    -0.204 F 
ATOM     19  C   UNL     1       0.350   2.758  -0.050  0.00  0.00    -0.027 A 
ATOM     24  C   UNL     1       0.405   3.061   1.311  0.00  0.00    +0.045 A 
ATOM     25  C   UNL     1       0.426   3.781  -0.995  0.00  0.00    +0.007 A 
ATOM     30  C   UNL     1       0.536   4.387   1.726  0.00  0.00    +0.142 A 
ATOM     31  C   UNL     1       0.557   5.106  -0.581  0.00  0.00    +0.023 A 
ATOM     34  C   UNL     1       0.612   5.409   0.780  0.00  0.00    +0.076 A 
ENDBRANCH  11  19
BRANCH  15  22
ATOM      4  O   UNL     1       2.070   0.562  -2.670  0.00  0.00    -0.249 OA
ATOM     22  C   UNL     1       2.903   0.917  -1.847  0.00  0.00    +0.325 C 
BRANCH  22   3
ATOM      3  O   UNL     1       4.158   1.377  -2.113  0.00  0.00    -0.467 OA
ATOM     35  C   UNL     1       4.510   1.439  -3.499  0.00  0.00    +0.280 C 
ENDBRANCH  22   3
ENDBRANCH  15  22
BRANCH  13   6
ATOM      6  N   UNL     1      -2.673  -1.147   0.149  0.00  0.00    -0.313 NA
ATOM     39  H   UNL     1      -2.671  -2.167   0.162  0.00  0.00    +0.122 HD
BRANCH   6  23
ATOM     23  C   UNL     1      -3.798  -0.691  -0.653  0.00  0.00    +0.083 C 
BRANCH  23  28
ATOM     28  C   UNL     1      -5.109  -1.227  -0.080  0.00  0.00    +0.037 C 
BRANCH  28  33
ATOM     33  C   UNL     1      -6.305  -0.764  -0.916  0.00  0.00    +0.124 C 
BRANCH  33   8
ATOM      8  N   UNL     1      -7.610  -1.250  -0.339  0.00  0.00    -0.337 N 
ATOM      9  N   UNL     1      -9.546  -1.216   0.749  0.00  0.00    -0.244 NA
ATOM     36  C   UNL     1      -8.120  -2.514  -0.443  0.00  0.00    +0.106 A 
ATOM     37  C   UNL     1      -8.501  -0.507   0.384  0.00  0.00    +0.199 A 
ATOM     38  C   UNL     1      -9.315  -2.468   0.237  0.00  0.00    +0.130 A 
ENDBRANCH  33   8
ENDBRANCH  28  33
ENDBRANCH  23  28
ENDBRANCH   6  23
ENDBRANCH  13   6
TORSDOF 8
