MODEL 1
REMARK VINA RESULT:      -7.0      0.000      0.000
REMARK  Name = 45783802
REMARK  7 active torsions:
REMARK  status: ('A' for Active; 'I' for Inactive)
REMARK    1  A    between atoms: N_4  and  C_13
REMARK    2  A    between atoms: N_8  and  C_26
REMARK    3  A    between atoms: N_8  and  C_27
REMARK    4  A    between atoms: N_8  and  C_28
REMARK    5  A    between atoms: C_9  and  C_14
REMARK    6  A    between atoms: C_13  and  C_15
REMARK    7  A    between atoms: C_18  and  C_19
REMARK                            x       y       z     vdW  Elec       q    Type
REMARK                         _______ _______ _______ _____ _____    ______ ____
ROOT
ATOM      4  N   UNL     1      12.377   8.862  20.230  0.00  0.00    -0.287 NA
ATOM      9  C   UNL     1      13.141   8.201  21.306  0.00  0.00    +0.146 C 
ATOM     10  C   UNL     1      12.144   7.218  21.946  0.00  0.00    +0.030 C 
ATOM     11  C   UNL     1      10.833   7.441  21.206  0.00  0.00    +0.017 C 
ATOM     12  C   UNL     1      10.975   8.842  20.646  0.00  0.00    +0.085 C 
ENDROOT
BRANCH   9  14
ATOM      3  O   UNL     1      14.280   6.858  19.612  0.00  0.00    -0.336 OA
ATOM      5  N   UNL     1      15.584   7.457  21.330  0.00  0.00    -0.190 NA
ATOM      6  N   UNL     1      15.543   6.313  19.350  0.00  0.00    -0.056 NA
ATOM     14  C   UNL     1      14.391   7.516  20.796  0.00  0.00    +0.245 A 
ATOM     18  C   UNL     1      16.257   6.709  20.408  0.00  0.00    +0.204 A 
BRANCH  18  19
ATOM      7  N   UNL     1      19.552   5.074  19.868  0.00  0.00    -0.240 NA
ATOM     19  C   UNL     1      17.643   6.378  20.573  0.00  0.00    +0.041 A 
ATOM     23  C   UNL     1      18.416   6.995  21.551  0.00  0.00    +0.016 A 
ATOM     24  C   UNL     1      18.253   5.433  19.764  0.00  0.00    +0.124 A 
ATOM     25  C   UNL     1      19.757   6.652  21.687  0.00  0.00    +0.044 A 
ATOM     26  C   UNL     1      20.272   5.695  20.829  0.00  0.00    +0.121 A 
BRANCH  26   8
ATOM      8  N   UNL     1      21.639   5.358  20.979  0.00  0.00    -0.321 N 
ATOM     27  C   UNL     1      22.015   4.062  21.501  0.00  0.00    +0.130 C 
ATOM     28  C   UNL     1      22.669   6.302  20.605  0.00  0.00    +0.130 C 
ENDBRANCH  26   8
ENDBRANCH  18  19
ENDBRANCH   9  14
BRANCH   4  13
ATOM     13  C   UNL     1      12.844  10.212  19.939  0.00  0.00    +0.120 C 
BRANCH  13  15
ATOM      1  F   UNL     1      12.524   9.162  15.183  0.00  0.00    -0.202 F 
ATOM      2  F   UNL     1      14.730  10.686  14.650  0.00  0.00    -0.202 F 
ATOM     15  C   UNL     1      13.348  10.339  18.526  0.00  0.00    -0.030 A 
ATOM     16  C   UNL     1      12.689   9.678  17.488  0.00  0.00    +0.046 A 
ATOM     17  C   UNL     1      14.473  11.117  18.254  0.00  0.00    +0.008 A 
ATOM     20  C   UNL     1      13.156   9.796  16.179  0.00  0.00    +0.159 A 
ATOM     21  C   UNL     1      14.939  11.234  16.945  0.00  0.00    +0.041 A 
ATOM     22  C   UNL     1      14.281  10.574  15.908  0.00  0.00    +0.158 A 
ENDBRANCH  13  15
ENDBRANCH   4  13
TORSDOF 5
ENDMDL
MODEL 2
REMARK VINA RESULT:      -7.0     25.726     29.186
REMARK  Name = 45783802
REMARK  7 active torsions:
REMARK  status: ('A' for Active; 'I' for Inactive)
REMARK    1  A    between atoms: N_4  and  C_13
REMARK    2  A    between atoms: N_8  and  C_26
REMARK    3  A    between atoms: N_8  and  C_27
REMARK    4  A    between atoms: N_8  and  C_28
REMARK    5  A    between atoms: C_9  and  C_14
REMARK    6  A    between atoms: C_13  and  C_15
REMARK    7  A    between atoms: C_18  and  C_19
REMARK                            x       y       z     vdW  Elec       q    Type
REMARK                         _______ _______ _______ _____ _____    ______ ____
ROOT
ATOM      4  N   UNL     1      -3.093 -10.524  14.426  0.00  0.00    -0.287 NA
ATOM      9  C   UNL     1      -3.042 -11.260  15.705  0.00  0.00    +0.146 C 
ATOM     10  C   UNL     1      -1.727 -10.806  16.365  0.00  0.00    +0.030 C 
ATOM     11  C   UNL     1      -1.079  -9.867  15.358  0.00  0.00    +0.017 C 
ATOM     12  C   UNL     1      -1.704 -10.273  14.038  0.00  0.00    +0.085 C 
ENDROOT
BRANCH   9  14
ATOM      3  O   UNL     1      -4.080 -11.150  17.915  0.00  0.00    -0.336 OA
ATOM      5  N   UNL     1      -5.463 -10.639  16.229  0.00  0.00    -0.190 NA
ATOM      6  N   UNL     1      -5.318 -10.858  18.501  0.00  0.00    -0.056 NA
ATOM     14  C   UNL     1      -4.253 -10.997  16.575  0.00  0.00    +0.245 A 
ATOM     18  C   UNL     1      -6.081 -10.567  17.444  0.00  0.00    +0.204 A 
BRANCH  18  19
ATOM      7  N   UNL     1      -9.628 -10.603  18.559  0.00  0.00    -0.240 NA
ATOM     19  C   UNL     1      -7.462 -10.197  17.565  0.00  0.00    +0.041 A 
ATOM     23  C   UNL     1      -7.983  -9.125  16.849  0.00  0.00    +0.016 A 
ATOM     24  C   UNL     1      -8.318 -10.898  18.400  0.00  0.00    +0.124 A 
ATOM     25  C   UNL     1      -9.326  -8.791  16.987  0.00  0.00    +0.044 A 
ATOM     26  C   UNL     1     -10.099  -9.555  17.847  0.00  0.00    +0.121 A 
BRANCH  26   8
ATOM      8  N   UNL     1     -11.464  -9.202  17.978  0.00  0.00    -0.321 N 
ATOM     27  C   UNL     1     -12.233  -9.677  19.108  0.00  0.00    +0.130 C 
ATOM     28  C   UNL     1     -12.098  -8.359  16.988  0.00  0.00    +0.130 C 
ENDBRANCH  26   8
ENDBRANCH  18  19
ENDBRANCH   9  14
BRANCH   4  13
ATOM     13  C   UNL     1      -3.832 -11.229  13.387  0.00  0.00    +0.120 C 
BRANCH  13  15
ATOM      1  F   UNL     1      -3.404  -8.823   9.161  0.00  0.00    -0.202 F 
ATOM      2  F   UNL     1      -5.872  -7.695   9.500  0.00  0.00    -0.202 F 
ATOM     15  C   UNL     1      -4.378 -10.285  12.348  0.00  0.00    -0.030 A 
ATOM     16  C   UNL     1      -3.623  -9.985  11.213  0.00  0.00    +0.046 A 
ATOM     17  C   UNL     1      -5.637  -9.710  12.520  0.00  0.00    +0.008 A 
ATOM     20  C   UNL     1      -4.129  -9.111  10.251  0.00  0.00    +0.159 A 
ATOM     21  C   UNL     1      -6.141  -8.836  11.558  0.00  0.00    +0.041 A 
ATOM     22  C   UNL     1      -5.387  -8.535  10.424  0.00  0.00    +0.158 A 
ENDBRANCH  13  15
ENDBRANCH   4  13
TORSDOF 5
ENDMDL
MODEL 3
REMARK VINA RESULT:      -6.9     25.874     29.225
REMARK  Name = 45783802
REMARK  7 active torsions:
REMARK  status: ('A' for Active; 'I' for Inactive)
REMARK    1  A    between atoms: N_4  and  C_13
REMARK    2  A    between atoms: N_8  and  C_26
REMARK    3  A    between atoms: N_8  and  C_27
REMARK    4  A    between atoms: N_8  and  C_28
REMARK    5  A    between atoms: C_9  and  C_14
REMARK    6  A    between atoms: C_13  and  C_15
REMARK    7  A    between atoms: C_18  and  C_19
REMARK                            x       y       z     vdW  Elec       q    Type
REMARK                         _______ _______ _______ _____ _____    ______ ____
ROOT
ATOM      4  N   UNL     1      -2.917 -10.513  14.070  0.00  0.00    -0.287 NA
ATOM      9  C   UNL     1      -3.232 -11.279  15.292  0.00  0.00    +0.146 C 
ATOM     10  C   UNL     1      -2.178 -10.827  16.320  0.00  0.00    +0.030 C 
ATOM     11  C   UNL     1      -1.281  -9.855  15.568  0.00  0.00    +0.017 C 
ATOM     12  C   UNL     1      -1.481 -10.235  14.114  0.00  0.00    +0.085 C 
ENDROOT
BRANCH   9  14
ATOM      3  O   UNL     1      -5.135 -11.949  16.671  0.00  0.00    -0.336 OA
ATOM      5  N   UNL     1      -5.497 -10.110  15.445  0.00  0.00    -0.190 NA
ATOM      6  N   UNL     1      -6.443 -11.539  16.960  0.00  0.00    -0.056 NA
ATOM     14  C   UNL     1      -4.650 -11.053  15.771  0.00  0.00    +0.245 A 
ATOM     18  C   UNL     1      -6.583 -10.450  16.199  0.00  0.00    +0.204 A 
BRANCH  18  19
ATOM      7  N   UNL     1      -9.674  -8.837  14.908  0.00  0.00    -0.240 NA
ATOM     19  C   UNL     1      -7.791  -9.677  16.170  0.00  0.00    +0.041 A 
ATOM     23  C   UNL     1      -8.258  -9.033  17.310  0.00  0.00    +0.016 A 
ATOM     24  C   UNL     1      -8.530  -9.550  15.004  0.00  0.00    +0.124 A 
ATOM     25  C   UNL     1      -9.433  -8.291  17.251  0.00  0.00    +0.044 A 
ATOM     26  C   UNL     1     -10.098  -8.225  16.038  0.00  0.00    +0.121 A 
BRANCH  26   8
ATOM      8  N   UNL     1     -11.293  -7.466  15.993  0.00  0.00    -0.321 N 
ATOM     27  C   UNL     1     -12.574  -8.132  15.904  0.00  0.00    +0.130 C 
ATOM     28  C   UNL     1     -11.241  -6.021  16.044  0.00  0.00    +0.130 C 
ENDBRANCH  26   8
ENDBRANCH  18  19
ENDBRANCH   9  14
BRANCH   4  13
ATOM     13  C   UNL     1      -3.304 -11.200  12.845  0.00  0.00    +0.120 C 
BRANCH  13  15
ATOM      1  F   UNL     1      -7.197  -8.684  11.314  0.00  0.00    -0.202 F 
ATOM      2  F   UNL     1      -5.789  -7.715   9.180  0.00  0.00    -0.202 F 
ATOM     15  C   UNL     1      -3.968 -10.269  11.865  0.00  0.00    -0.030 A 
ATOM     16  C   UNL     1      -5.302  -9.900  12.047  0.00  0.00    +0.046 A 
ATOM     17  C   UNL     1      -3.250  -9.774  10.776  0.00  0.00    +0.008 A 
ATOM     20  C   UNL     1      -5.916  -9.037  11.140  0.00  0.00    +0.159 A 
ATOM     21  C   UNL     1      -3.865  -8.911   9.870  0.00  0.00    +0.041 A 
ATOM     22  C   UNL     1      -5.199  -8.543  10.051  0.00  0.00    +0.158 A 
ENDBRANCH  13  15
ENDBRANCH   4  13
TORSDOF 5
ENDMDL
MODEL 4
REMARK VINA RESULT:      -6.9     29.112     32.220
REMARK  Name = 45783802
REMARK  7 active torsions:
REMARK  status: ('A' for Active; 'I' for Inactive)
REMARK    1  A    between atoms: N_4  and  C_13
REMARK    2  A    between atoms: N_8  and  C_26
REMARK    3  A    between atoms: N_8  and  C_27
REMARK    4  A    between atoms: N_8  and  C_28
REMARK    5  A    between atoms: C_9  and  C_14
REMARK    6  A    between atoms: C_13  and  C_15
REMARK    7  A    between atoms: C_18  and  C_19
REMARK                            x       y       z     vdW  Elec       q    Type
REMARK                         _______ _______ _______ _____ _____    ______ ____
ROOT
ATOM      4  N   UNL     1     -16.587   5.037  21.164  0.00  0.00    -0.287 NA
ATOM      9  C   UNL     1     -17.771   4.428  21.803  0.00  0.00    +0.146 C 
ATOM     10  C   UNL     1     -18.526   3.738  20.652  0.00  0.00    +0.030 C 
ATOM     11  C   UNL     1     -17.726   4.065  19.399  0.00  0.00    +0.017 C 
ATOM     12  C   UNL     1     -16.965   5.319  19.779  0.00  0.00    +0.085 C 
ENDROOT
BRANCH   9  14
ATOM      3  O   UNL     1     -17.270   2.163  22.571  0.00  0.00    -0.336 OA
ATOM      5  N   UNL     1     -17.191   3.714  24.186  0.00  0.00    -0.190 NA
ATOM      6  N   UNL     1     -16.932   1.484  23.749  0.00  0.00    -0.056 NA
ATOM     14  C   UNL     1     -17.403   3.471  22.917  0.00  0.00    +0.245 A 
ATOM     18  C   UNL     1     -16.906   2.465  24.655  0.00  0.00    +0.204 A 
BRANCH  18  19
ATOM      7  N   UNL     1     -16.486   0.693  27.897  0.00  0.00    -0.240 NA
ATOM     19  C   UNL     1     -16.596   2.232  26.037  0.00  0.00    +0.041 A 
ATOM     23  C   UNL     1     -16.123   3.258  26.848  0.00  0.00    +0.016 A 
ATOM     24  C   UNL     1     -16.758   0.978  26.604  0.00  0.00    +0.124 A 
ATOM     25  C   UNL     1     -15.832   3.002  28.183  0.00  0.00    +0.044 A 
ATOM     26  C   UNL     1     -16.028   1.715  28.655  0.00  0.00    +0.121 A 
BRANCH  26   8
ATOM      8  N   UNL     1     -15.726   1.470  30.017  0.00  0.00    -0.321 N 
ATOM     27  C   UNL     1     -15.618   2.572  30.948  0.00  0.00    +0.130 C 
ATOM     28  C   UNL     1     -15.532   0.116  30.488  0.00  0.00    +0.130 C 
ENDBRANCH  26   8
ENDBRANCH  18  19
ENDBRANCH   9  14
BRANCH   4  13
ATOM     13  C   UNL     1     -16.109   6.227  21.856  0.00  0.00    +0.120 C 
BRANCH  13  15
ATOM      1  F   UNL     1     -12.745   9.219  19.969  0.00  0.00    -0.202 F 
ATOM      2  F   UNL     1     -10.764   7.420  20.528  0.00  0.00    -0.202 F 
ATOM     15  C   UNL     1     -14.681   6.546  21.501  0.00  0.00    -0.030 A 
ATOM     16  C   UNL     1     -14.368   7.760  20.887  0.00  0.00    +0.046 A 
ATOM     17  C   UNL     1     -13.670   5.628  21.787  0.00  0.00    +0.008 A 
ATOM     20  C   UNL     1     -13.045   8.054  20.559  0.00  0.00    +0.159 A 
ATOM     21  C   UNL     1     -12.347   5.924  21.458  0.00  0.00    +0.041 A 
ATOM     22  C   UNL     1     -12.035   7.136  20.844  0.00  0.00    +0.158 A 
ENDBRANCH  13  15
ENDBRANCH   4  13
TORSDOF 5
ENDMDL
MODEL 5
REMARK VINA RESULT:      -6.8     26.152     29.439
REMARK  Name = 45783802
REMARK  7 active torsions:
REMARK  status: ('A' for Active; 'I' for Inactive)
REMARK    1  A    between atoms: N_4  and  C_13
REMARK    2  A    between atoms: N_8  and  C_26
REMARK    3  A    between atoms: N_8  and  C_27
REMARK    4  A    between atoms: N_8  and  C_28
REMARK    5  A    between atoms: C_9  and  C_14
REMARK    6  A    between atoms: C_13  and  C_15
REMARK    7  A    between atoms: C_18  and  C_19
REMARK                            x       y       z     vdW  Elec       q    Type
REMARK                         _______ _______ _______ _____ _____    ______ ____
ROOT
ATOM      4  N   UNL     1      -2.985 -10.544  14.266  0.00  0.00    -0.287 NA
ATOM      9  C   UNL     1      -3.138 -11.285  15.534  0.00  0.00    +0.146 C 
ATOM     10  C   UNL     1      -1.933 -10.850  16.388  0.00  0.00    +0.030 C 
ATOM     11  C   UNL     1      -1.130  -9.914  15.497  0.00  0.00    +0.017 C 
ATOM     12  C   UNL     1      -1.551 -10.307  14.095  0.00  0.00    +0.085 C 
ENDROOT
BRANCH   9  14
ATOM      3  O   UNL     1      -4.991  -9.771  16.030  0.00  0.00    -0.336 OA
ATOM      5  N   UNL     1      -5.194 -11.799  16.959  0.00  0.00    -0.190 NA
ATOM      6  N   UNL     1      -6.198  -9.756  16.740  0.00  0.00    -0.056 NA
ATOM     14  C   UNL     1      -4.464 -11.011  16.211  0.00  0.00    +0.245 A 
ATOM     18  C   UNL     1      -6.247 -10.985  17.261  0.00  0.00    +0.204 A 
BRANCH  18  19
ATOM      7  N   UNL     1      -9.632 -11.179  18.786  0.00  0.00    -0.240 NA
ATOM     19  C   UNL     1      -7.334 -11.434  18.083  0.00  0.00    +0.041 A 
ATOM     23  C   UNL     1      -7.180 -12.510  18.950  0.00  0.00    +0.016 A 
ATOM     24  C   UNL     1      -8.569 -10.808  18.038  0.00  0.00    +0.124 A 
ATOM     25  C   UNL     1      -8.252 -12.922  19.735  0.00  0.00    +0.044 A 
ATOM     26  C   UNL     1      -9.446 -12.229  19.617  0.00  0.00    +0.121 A 
BRANCH  26   8
ATOM      8  N   UNL     1     -10.528 -12.661  20.422  0.00  0.00    -0.321 N 
ATOM     27  C   UNL     1     -10.422 -13.883  21.189  0.00  0.00    +0.130 C 
ATOM     28  C   UNL     1     -11.743 -11.879  20.489  0.00  0.00    +0.130 C 
ENDBRANCH  26   8
ENDBRANCH  18  19
ENDBRANCH   9  14
BRANCH   4  13
ATOM     13  C   UNL     1      -3.566 -11.235  13.122  0.00  0.00    +0.120 C 
BRANCH  13  15
ATOM      1  F   UNL     1      -3.460  -8.672   8.969  0.00  0.00    -0.202 F 
ATOM      2  F   UNL     1      -5.941  -7.646   9.485  0.00  0.00    -0.202 F 
ATOM     15  C   UNL     1      -4.201 -10.276  12.150  0.00  0.00    -0.030 A 
ATOM     16  C   UNL     1      -3.523  -9.911  10.987  0.00  0.00    +0.046 A 
ATOM     17  C   UNL     1      -5.468  -9.753  12.413  0.00  0.00    +0.008 A 
ATOM     20  C   UNL     1      -4.111  -9.023  10.086  0.00  0.00    +0.159 A 
ATOM     21  C   UNL     1      -6.055  -8.865  11.512  0.00  0.00    +0.041 A 
ATOM     22  C   UNL     1      -5.377  -8.500  10.349  0.00  0.00    +0.158 A 
ENDBRANCH  13  15
ENDBRANCH   4  13
TORSDOF 5
ENDMDL
MODEL 6
REMARK VINA RESULT:      -6.6     15.055     17.966
REMARK  Name = 45783802
REMARK  7 active torsions:
REMARK  status: ('A' for Active; 'I' for Inactive)
REMARK    1  A    between atoms: N_4  and  C_13
REMARK    2  A    between atoms: N_8  and  C_26
REMARK    3  A    between atoms: N_8  and  C_27
REMARK    4  A    between atoms: N_8  and  C_28
REMARK    5  A    between atoms: C_9  and  C_14
REMARK    6  A    between atoms: C_13  and  C_15
REMARK    7  A    between atoms: C_18  and  C_19
REMARK                            x       y       z     vdW  Elec       q    Type
REMARK                         _______ _______ _______ _____ _____    ______ ____
ROOT
ATOM      4  N   UNL     1       9.444   7.661   6.285  0.00  0.00    -0.287 NA
ATOM      9  C   UNL     1      10.569   6.713   6.419  0.00  0.00    +0.146 C 
ATOM     10  C   UNL     1      10.352   6.040   7.787  0.00  0.00    +0.030 C 
ATOM     11  C   UNL     1       9.120   6.716   8.372  0.00  0.00    +0.017 C 
ATOM     12  C   UNL     1       9.062   8.044   7.644  0.00  0.00    +0.085 C 
ENDROOT
BRANCH   9  14
ATOM      3  O   UNL     1      10.030   4.516   5.496  0.00  0.00    -0.336 OA
ATOM      5  N   UNL     1      11.179   5.836   4.099  0.00  0.00    -0.190 NA
ATOM      6  N   UNL     1      10.214   3.775   4.321  0.00  0.00    -0.056 NA
ATOM     14  C   UNL     1      10.628   5.717   5.281  0.00  0.00    +0.245 A 
ATOM     18  C   UNL     1      10.900   4.620   3.547  0.00  0.00    +0.204 A 
BRANCH  18  19
ATOM      7  N   UNL     1      10.773   4.079  -0.129  0.00  0.00    -0.240 NA
ATOM     19  C   UNL     1      11.318   4.283   2.216  0.00  0.00    +0.041 A 
ATOM     23  C   UNL     1      12.614   3.848   1.961  0.00  0.00    +0.016 A 
ATOM     24  C   UNL     1      10.443   4.382   1.146  0.00  0.00    +0.124 A 
ATOM     25  C   UNL     1      12.990   3.528   0.661  0.00  0.00    +0.044 A 
ATOM     26  C   UNL     1      12.041   3.660  -0.340  0.00  0.00    +0.121 A 
BRANCH  26   8
ATOM      8  N   UNL     1      12.439   3.331  -1.658  0.00  0.00    -0.321 N 
ATOM     27  C   UNL     1      13.508   4.065  -2.300  0.00  0.00    +0.130 C 
ATOM     28  C   UNL     1      11.785   2.255  -2.371  0.00  0.00    +0.130 C 
ENDBRANCH  26   8
ENDBRANCH  18  19
ENDBRANCH   9  14
BRANCH   4  13
ATOM     13  C   UNL     1       9.763   8.818   5.459  0.00  0.00    +0.120 C 
BRANCH  13  15
ATOM      1  F   UNL     1       5.379  10.170   3.793  0.00  0.00    -0.202 F 
ATOM      2  F   UNL     1       6.078   9.467   1.245  0.00  0.00    -0.202 F 
ATOM     15  C   UNL     1       8.779   8.991   4.332  0.00  0.00    -0.030 A 
ATOM     16  C   UNL     1       7.509   9.511   4.589  0.00  0.00    +0.046 A 
ATOM     17  C   UNL     1       9.136   8.633   3.032  0.00  0.00    +0.008 A 
ATOM     20  C   UNL     1       6.597   9.672   3.546  0.00  0.00    +0.159 A 
ATOM     21  C   UNL     1       8.224   8.794   1.990  0.00  0.00    +0.041 A 
ATOM     22  C   UNL     1       6.954   9.313   2.246  0.00  0.00    +0.158 A 
ENDBRANCH  13  15
ENDBRANCH   4  13
TORSDOF 5
ENDMDL
MODEL 7
REMARK VINA RESULT:      -6.5      4.985     10.226
REMARK  Name = 45783802
REMARK  7 active torsions:
REMARK  status: ('A' for Active; 'I' for Inactive)
REMARK    1  A    between atoms: N_4  and  C_13
REMARK    2  A    between atoms: N_8  and  C_26
REMARK    3  A    between atoms: N_8  and  C_27
REMARK    4  A    between atoms: N_8  and  C_28
REMARK    5  A    between atoms: C_9  and  C_14
REMARK    6  A    between atoms: C_13  and  C_15
REMARK    7  A    between atoms: C_18  and  C_19
REMARK                            x       y       z     vdW  Elec       q    Type
REMARK                         _______ _______ _______ _____ _____    ______ ____
ROOT
ATOM      4  N   UNL     1      21.921   5.726  21.567  0.00  0.00    -0.287 NA
ATOM      9  C   UNL     1      21.003   6.870  21.739  0.00  0.00    +0.146 C 
ATOM     10  C   UNL     1      21.728   8.057  21.080  0.00  0.00    +0.030 C 
ATOM     11  C   UNL     1      23.068   7.500  20.621  0.00  0.00    +0.017 C 
ATOM     12  C   UNL     1      23.272   6.286  21.506  0.00  0.00    +0.085 C 
ENDROOT
BRANCH   9  14
ATOM      3  O   UNL     1      19.577   5.692  20.143  0.00  0.00    -0.336 OA
ATOM      5  N   UNL     1      18.483   7.156  21.437  0.00  0.00    -0.190 NA
ATOM      6  N   UNL     1      18.233   5.629  19.753  0.00  0.00    -0.056 NA
ATOM     14  C   UNL     1      19.637   6.614  21.139  0.00  0.00    +0.245 A 
ATOM     18  C   UNL     1      17.652   6.521  20.560  0.00  0.00    +0.204 A 
BRANCH  18  19
ATOM      7  N   UNL     1      14.235   7.449  21.694  0.00  0.00    -0.240 NA
ATOM     19  C   UNL     1      16.245   6.799  20.520  0.00  0.00    +0.041 A 
ATOM     23  C   UNL     1      15.529   6.699  19.332  0.00  0.00    +0.016 A 
ATOM     24  C   UNL     1      15.558   7.175  21.663  0.00  0.00    +0.124 A 
ATOM     25  C   UNL     1      14.165   6.975  19.325  0.00  0.00    +0.044 A 
ATOM     26  C   UNL     1      13.571   7.343  20.521  0.00  0.00    +0.121 A 
BRANCH  26   8
ATOM      8  N   UNL     1      12.183   7.621  20.497  0.00  0.00    -0.321 N 
ATOM     27  C   UNL     1      11.310   7.054  21.502  0.00  0.00    +0.130 C 
ATOM     28  C   UNL     1      11.629   8.479  19.473  0.00  0.00    +0.130 C 
ENDBRANCH  26   8
ENDBRANCH  18  19
ENDBRANCH   9  14
BRANCH   4  13
ATOM     13  C   UNL     1      21.791   4.722  22.614  0.00  0.00    +0.120 C 
BRANCH  13  15
ATOM      1  F   UNL     1      24.676   1.092  24.141  0.00  0.00    -0.202 F 
ATOM      2  F   UNL     1      24.972   0.187  21.578  0.00  0.00    -0.202 F 
ATOM     15  C   UNL     1      22.641   3.510  22.337  0.00  0.00    -0.030 A 
ATOM     16  C   UNL     1      23.278   2.849  23.388  0.00  0.00    +0.046 A 
ATOM     17  C   UNL     1      22.792   3.047  21.029  0.00  0.00    +0.008 A 
ATOM     20  C   UNL     1      24.065   1.726  23.132  0.00  0.00    +0.159 A 
ATOM     21  C   UNL     1      23.578   1.925  20.774  0.00  0.00    +0.041 A 
ATOM     22  C   UNL     1      24.215   1.265  21.824  0.00  0.00    +0.158 A 
ENDBRANCH  13  15
ENDBRANCH   4  13
TORSDOF 5
ENDMDL
MODEL 8
REMARK VINA RESULT:      -6.3     32.057     33.950
REMARK  Name = 45783802
REMARK  7 active torsions:
REMARK  status: ('A' for Active; 'I' for Inactive)
REMARK    1  A    between atoms: N_4  and  C_13
REMARK    2  A    between atoms: N_8  and  C_26
REMARK    3  A    between atoms: N_8  and  C_27
REMARK    4  A    between atoms: N_8  and  C_28
REMARK    5  A    between atoms: C_9  and  C_14
REMARK    6  A    between atoms: C_13  and  C_15
REMARK    7  A    between atoms: C_18  and  C_19
REMARK                            x       y       z     vdW  Elec       q    Type
REMARK                         _______ _______ _______ _____ _____    ______ ____
ROOT
ATOM      4  N   UNL     1     -14.618   4.951  33.061  0.00  0.00    -0.287 NA
ATOM      9  C   UNL     1     -16.035   5.309  32.849  0.00  0.00    +0.146 C 
ATOM     10  C   UNL     1     -16.082   6.838  33.019  0.00  0.00    +0.030 C 
ATOM     11  C   UNL     1     -14.661   7.242  33.385  0.00  0.00    +0.017 C 
ATOM     12  C   UNL     1     -14.063   5.971  33.953  0.00  0.00    +0.085 C 
ENDROOT
BRANCH   9  14
ATOM      3  O   UNL     1     -17.660   4.066  31.513  0.00  0.00    -0.336 OA
ATOM      5  N   UNL     1     -16.090   5.109  30.303  0.00  0.00    -0.190 NA
ATOM      6  N   UNL     1     -17.946   3.779  30.172  0.00  0.00    -0.056 NA
ATOM     14  C   UNL     1     -16.553   4.855  31.501  0.00  0.00    +0.245 A 
ATOM     18  C   UNL     1     -16.976   4.427  29.521  0.00  0.00    +0.204 A 
BRANCH  18  19
ATOM      7  N   UNL     1     -16.012   3.358  26.093  0.00  0.00    -0.240 NA
ATOM     19  C   UNL     1     -16.866   4.418  28.090  0.00  0.00    +0.041 A 
ATOM     23  C   UNL     1     -17.467   5.406  27.318  0.00  0.00    +0.016 A 
ATOM     24  C   UNL     1     -16.156   3.424  27.435  0.00  0.00    +0.124 A 
ATOM     25  C   UNL     1     -17.342   5.370  25.934  0.00  0.00    +0.044 A 
ATOM     26  C   UNL     1     -16.611   4.335  25.375  0.00  0.00    +0.121 A 
BRANCH  26   8
ATOM      8  N   UNL     1     -16.493   4.312  23.964  0.00  0.00    -0.321 N 
ATOM     27  C   UNL     1     -17.666   4.126  23.139  0.00  0.00    +0.130 C 
ATOM     28  C   UNL     1     -15.199   4.481  23.338  0.00  0.00    +0.130 C 
ENDBRANCH  26   8
ENDBRANCH  18  19
ENDBRANCH   9  14
BRANCH   4  13
ATOM     13  C   UNL     1     -14.437   3.605  33.588  0.00  0.00    +0.120 C 
BRANCH  13  15
ATOM      1  F   UNL     1     -15.254  -0.850  31.769  0.00  0.00    -0.202 F 
ATOM      2  F   UNL     1     -13.918  -0.208  29.472  0.00  0.00    -0.202 F 
ATOM     15  C   UNL     1     -14.298   2.586  32.488  0.00  0.00    -0.030 A 
ATOM     16  C   UNL     1     -14.852   1.314  32.641  0.00  0.00    +0.046 A 
ATOM     17  C   UNL     1     -13.617   2.914  31.315  0.00  0.00    +0.008 A 
ATOM     20  C   UNL     1     -14.723   0.371  31.621  0.00  0.00    +0.159 A 
ATOM     21  C   UNL     1     -13.489   1.970  30.297  0.00  0.00    +0.041 A 
ATOM     22  C   UNL     1     -14.041   0.698  30.450  0.00  0.00    +0.158 A 
ENDBRANCH  13  15
ENDBRANCH   4  13
TORSDOF 5
ENDMDL
MODEL 9
REMARK VINA RESULT:      -6.3     27.327     29.435
REMARK  Name = 45783802
REMARK  7 active torsions:
REMARK  status: ('A' for Active; 'I' for Inactive)
REMARK    1  A    between atoms: N_4  and  C_13
REMARK    2  A    between atoms: N_8  and  C_26
REMARK    3  A    between atoms: N_8  and  C_27
REMARK    4  A    between atoms: N_8  and  C_28
REMARK    5  A    between atoms: C_9  and  C_14
REMARK    6  A    between atoms: C_13  and  C_15
REMARK    7  A    between atoms: C_18  and  C_19
REMARK                            x       y       z     vdW  Elec       q    Type
REMARK                         _______ _______ _______ _____ _____    ______ ____
ROOT
ATOM      4  N   UNL     1      -3.202 -12.058  14.245  0.00  0.00    -0.287 NA
ATOM      9  C   UNL     1      -2.279 -12.043  13.093  0.00  0.00    +0.146 C 
ATOM     10  C   UNL     1      -2.196 -13.512  12.639  0.00  0.00    +0.030 C 
ATOM     11  C   UNL     1      -3.054 -14.284  13.630  0.00  0.00    +0.017 C 
ATOM     12  C   UNL     1      -3.086 -13.385  14.850  0.00  0.00    +0.085 C 
ENDROOT
BRANCH   9  14
ATOM      3  O   UNL     1      -1.870 -10.144  11.610  0.00  0.00    -0.336 OA
ATOM      5  N   UNL     1      -3.874 -11.103  11.334  0.00  0.00    -0.190 NA
ATOM      6  N   UNL     1      -2.510  -9.424  10.593  0.00  0.00    -0.056 NA
ATOM     14  C   UNL     1      -2.742 -11.115  11.989  0.00  0.00    +0.245 A 
ATOM     18  C   UNL     1      -3.686 -10.049  10.488  0.00  0.00    +0.204 A 
BRANCH  18  19
ATOM      7  N   UNL     1      -5.667  -9.866   7.348  0.00  0.00    -0.240 NA
ATOM     19  C   UNL     1      -4.694  -9.648   9.549  0.00  0.00    +0.041 A 
ATOM     23  C   UNL     1      -5.647  -8.692   9.885  0.00  0.00    +0.016 A 
ATOM     24  C   UNL     1      -4.747 -10.200   8.279  0.00  0.00    +0.124 A 
ATOM     25  C   UNL     1      -6.611  -8.323   8.952  0.00  0.00    +0.044 A 
ATOM     26  C   UNL     1      -6.578  -8.934   7.709  0.00  0.00    +0.121 A 
BRANCH  26   8
ATOM      8  N   UNL     1      -7.567  -8.549   6.771  0.00  0.00    -0.321 N 
ATOM     27  C   UNL     1      -8.871  -8.117   7.225  0.00  0.00    +0.130 C 
ATOM     28  C   UNL     1      -7.277  -8.577   5.354  0.00  0.00    +0.130 C 
ENDBRANCH  26   8
ENDBRANCH  18  19
ENDBRANCH   9  14
BRANCH   4  13
ATOM     13  C   UNL     1      -2.940 -10.993  15.205  0.00  0.00    +0.120 C 
BRANCH  13  15
ATOM      1  F   UNL     1      -5.296 -10.982  19.481  0.00  0.00    -0.202 F 
ATOM      2  F   UNL     1      -7.483  -9.818  18.325  0.00  0.00    -0.202 F 
ATOM     15  C   UNL     1      -4.154 -10.679  16.039  0.00  0.00    -0.030 A 
ATOM     16  C   UNL     1      -4.163 -10.983  17.401  0.00  0.00    +0.046 A 
ATOM     17  C   UNL     1      -5.271 -10.085  15.450  0.00  0.00    +0.008 A 
ATOM     20  C   UNL     1      -5.288 -10.691  18.173  0.00  0.00    +0.159 A 
ATOM     21  C   UNL     1      -6.394  -9.794  16.222  0.00  0.00    +0.041 A 
ATOM     22  C   UNL     1      -6.403 -10.097  17.584  0.00  0.00    +0.158 A 
ENDBRANCH  13  15
ENDBRANCH   4  13
TORSDOF 5
ENDMDL
MODEL 10
REMARK VINA RESULT:      -6.1     14.117     16.401
REMARK  Name = 45783802
REMARK  7 active torsions:
REMARK  status: ('A' for Active; 'I' for Inactive)
REMARK    1  A    between atoms: N_4  and  C_13
REMARK    2  A    between atoms: N_8  and  C_26
REMARK    3  A    between atoms: N_8  and  C_27
REMARK    4  A    between atoms: N_8  and  C_28
REMARK    5  A    between atoms: C_9  and  C_14
REMARK    6  A    between atoms: C_13  and  C_15
REMARK    7  A    between atoms: C_18  and  C_19
REMARK                            x       y       z     vdW  Elec       q    Type
REMARK                         _______ _______ _______ _____ _____    ______ ____
ROOT
ATOM      4  N   UNL     1      10.526   5.664   4.856  0.00  0.00    -0.287 NA
ATOM      9  C   UNL     1      10.897   6.590   5.945  0.00  0.00    +0.146 C 
ATOM     10  C   UNL     1      10.384   5.910   7.228  0.00  0.00    +0.030 C 
ATOM     11  C   UNL     1       9.688   4.642   6.755  0.00  0.00    +0.017 C 
ATOM     12  C   UNL     1       9.337   4.944   5.312  0.00  0.00    +0.085 C 
ENDROOT
BRANCH   9  14
ATOM      3  O   UNL     1      13.014   6.617   7.164  0.00  0.00    -0.336 OA
ATOM      5  N   UNL     1      13.169   7.335   5.049  0.00  0.00    -0.190 NA
ATOM      6  N   UNL     1      14.360   6.951   6.964  0.00  0.00    -0.056 NA
ATOM     14  C   UNL     1      12.383   6.872   5.988  0.00  0.00    +0.245 A 
ATOM     18  C   UNL     1      14.372   7.366   5.694  0.00  0.00    +0.204 A 
BRANCH  18  19
ATOM      7  N   UNL     1      16.824   8.078   2.991  0.00  0.00    -0.240 NA
ATOM     19  C   UNL     1      15.566   7.815   5.039  0.00  0.00    +0.041 A 
ATOM     23  C   UNL     1      16.601   8.403   5.759  0.00  0.00    +0.016 A 
ATOM     24  C   UNL     1      15.725   7.678   3.669  0.00  0.00    +0.124 A 
ATOM     25  C   UNL     1      17.747   8.828   5.096  0.00  0.00    +0.044 A 
ATOM     26  C   UNL     1      17.809   8.645   3.724  0.00  0.00    +0.121 A 
BRANCH  26   8
ATOM      8  N   UNL     1      18.982   9.084   3.063  0.00  0.00    -0.321 N 
ATOM     27  C   UNL     1      19.467  10.432   3.261  0.00  0.00    +0.130 C 
ATOM     28  C   UNL     1      19.707   8.185   2.192  0.00  0.00    +0.130 C 
ENDBRANCH  26   8
ENDBRANCH  18  19
ENDBRANCH   9  14
BRANCH   4  13
ATOM     13  C   UNL     1      10.306   6.335   3.581  0.00  0.00    +0.120 C 
BRANCH  13  15
ATOM      1  F   UNL     1      13.156   2.842   1.710  0.00  0.00    -0.202 F 
ATOM      2  F   UNL     1      12.053   3.204  -0.766  0.00  0.00    -0.202 F 
ATOM     15  C   UNL     1      10.772   5.498   2.419  0.00  0.00    -0.030 A 
ATOM     16  C   UNL     1      11.768   4.539   2.606  0.00  0.00    +0.046 A 
ATOM     17  C   UNL     1      10.210   5.682   1.156  0.00  0.00    +0.008 A 
ATOM     20  C   UNL     1      12.200   3.763   1.530  0.00  0.00    +0.159 A 
ATOM     21  C   UNL     1      10.642   4.907   0.081  0.00  0.00    +0.041 A 
ATOM     22  C   UNL     1      11.638   3.948   0.267  0.00  0.00    +0.158 A 
ENDBRANCH  13  15
ENDBRANCH   4  13
TORSDOF 5
ENDMDL
