REMARK  Name = 7144163
REMARK  6 active torsions:
REMARK  status: ('A' for Active; 'I' for Inactive)
REMARK    1  A    between atoms: S_2  and  C_22
REMARK    2  A    between atoms: S_2  and  C_28
REMARK    3  A    between atoms: O_5  and  C_31
REMARK    4  A    between atoms: C_16  and  C_21
REMARK    5  A    between atoms: C_18  and  C_22
REMARK    6  A    between atoms: C_28  and  C_31
REMARK                            x       y       z     vdW  Elec       q    Type
REMARK                         _______ _______ _______ _____ _____    ______ ____
ROOT
ATOM      3  O   UNL     1      -3.715   0.271   2.851  0.00  0.00    -0.268 OA
ATOM      4  O   UNL     1      -3.882  -1.355  -2.156  0.00  0.00    -0.275 OA
ATOM      7  N   UNL     1      -2.383   0.408  -1.954  0.00  0.00    -0.300 N 
ATOM      8  N   UNL     1      -2.320   1.084   1.155  0.00  0.00    -0.311 N 
ATOM      9  C   UNL     1      -3.250   2.443  -0.810  0.00  0.00    +0.027 C 
ATOM     10  C   UNL     1      -0.851   1.921  -0.706  0.00  0.00    +0.054 C 
ATOM     11  C   UNL     1      -1.860   3.058  -0.855  0.00  0.00    +0.018 C 
ATOM     12  C   UNL     1      -3.434   1.425  -1.947  0.00  0.00    +0.113 C 
ATOM     13  C   UNL     1      -3.455   1.806   0.565  0.00  0.00    +0.130 C 
ATOM     14  C   UNL     1      -1.013   0.933  -1.880  0.00  0.00    +0.117 C 
ATOM     15  C   UNL     1      -1.017   1.190   0.629  0.00  0.00    +0.035 A 
ATOM     16  C   UNL     1       0.028   0.629   1.292  0.00  0.00    +0.009 A 
ATOM     17  C   UNL     1      -2.600   0.383   2.341  0.00  0.00    +0.252 A 
ATOM     18  C   UNL     1      -2.723  -0.937  -2.095  0.00  0.00    +0.225 C 
ATOM     19  C   UNL     1      -0.223  -0.106   2.518  0.00  0.00    +0.016 A 
ATOM     20  C   UNL     1      -1.448  -0.249   3.024  0.00  0.00    +0.071 A 
ENDROOT
BRANCH  16  21
ATOM      1  S   UNL     1       2.396   2.031   1.290  0.00  0.00    -0.088 S 
ATOM     21  C   UNL     1       1.416   0.730   0.789  0.00  0.00    +0.022 A 
ATOM     23  C   UNL     1       2.076  -0.114  -0.071  0.00  0.00    +0.024 A 
ATOM     24  C   UNL     1       3.424   0.303  -0.337  0.00  0.00    -0.010 A 
ATOM     25  C   UNL     1       3.735   1.479   0.353  0.00  0.00    +0.020 A 
ATOM     26  C   UNL     1       4.424  -0.278  -1.154  0.00  0.00    +0.009 A 
ATOM     27  C   UNL     1       5.004   2.081   0.248  0.00  0.00    +0.015 A 
ATOM     29  C   UNL     1       5.684   0.317  -1.260  0.00  0.00    +0.001 A 
ATOM     30  C   UNL     1       5.969   1.484  -0.566  0.00  0.00    +0.001 A 
ENDBRANCH  16  21
BRANCH  18  22
ATOM     22  C   UNL     1      -1.581  -1.919  -2.167  0.00  0.00    +0.165 C 
BRANCH  22   2
ATOM      2  S   UNL     1      -1.200  -2.438  -0.487  0.00  0.00    -0.140 S 
BRANCH   2  28
ATOM     28  C   UNL     1       0.160  -3.577  -0.848  0.00  0.00    +0.189 C 
BRANCH  28  31
ATOM      6  O   UNL     1      -0.020  -4.348   1.428  0.00  0.00    -0.250 OA
ATOM     31  C   UNL     1       0.672  -4.165   0.435  0.00  0.00    +0.315 C 
BRANCH  31   5
ATOM      5  O   UNL     1       1.988  -4.489   0.374  0.00  0.00    -0.480 OA
ATOM     32  H   UNL     1       2.309  -4.878   1.216  0.00  0.00    +0.295 HD
ENDBRANCH  31   5
ENDBRANCH  28  31
ENDBRANCH   2  28
ENDBRANCH  22   2
ENDBRANCH  18  22
TORSDOF 6
