MODEL 1
REMARK VINA RESULT:      -7.5      0.000      0.000
REMARK  Name = 45784270
REMARK  4 active torsions:
REMARK  status: ('A' for Active; 'I' for Inactive)
REMARK    1  A    between atoms: N_4  and  C_13
REMARK    2  A    between atoms: C_8  and  C_12
REMARK    3  A    between atoms: C_13  and  C_15
REMARK    4  A    between atoms: C_21  and  C_25
REMARK                            x       y       z     vdW  Elec       q    Type
REMARK                         _______ _______ _______ _____ _____    ______ ____
ROOT
ATOM      5  N   UNL     1      15.536   8.468  20.698  0.00  0.00    -0.342 N 
ATOM      6  N   UNL     1      14.694   7.328  18.986  0.00  0.00    -0.232 NA
ATOM     12  C   UNL     1      14.474   8.288  19.856  0.00  0.00    +0.113 A 
ATOM     14  C   UNL     1      16.506   7.563  20.349  0.00  0.00    +0.067 A 
ATOM     16  C   UNL     1      15.956   6.864  19.277  0.00  0.00    +0.089 A 
ATOM     17  C   UNL     1      17.777   7.305  20.862  0.00  0.00    +0.040 A 
ATOM     18  C   UNL     1      16.706   5.842  18.670  0.00  0.00    +0.030 A 
ATOM     21  C   UNL     1      18.509   6.285  20.245  0.00  0.00    +0.057 A 
ATOM     22  C   UNL     1      17.985   5.565  19.169  0.00  0.00    +0.014 A 
ATOM     26  H   UNL     1      15.600   9.146  21.447  0.00  0.00    +0.167 HD
ENDROOT
BRANCH  12   8
ATOM      4  N   UNL     1      11.445   9.644  21.408  0.00  0.00    -0.297 NA
ATOM      8  C   UNL     1      13.228   9.134  19.973  0.00  0.00    +0.070 C 
ATOM      9  C   UNL     1      11.942   8.466  19.454  0.00  0.00    +0.028 C 
ATOM     10  C   UNL     1      12.904   9.526  21.421  0.00  0.00    +0.096 C 
ATOM     11  C   UNL     1      10.981   8.491  20.635  0.00  0.00    +0.085 C 
BRANCH   4  13
ATOM     13  C   UNL     1      10.879   9.675  22.749  0.00  0.00    +0.119 C 
BRANCH  13  15
ATOM      7  N   UNL     1      11.143  13.592  24.506  0.00  0.00    -0.263 NA
ATOM     15  C   UNL     1      10.972  11.046  23.364  0.00  0.00    -0.031 A 
ATOM     19  C   UNL     1      11.085  11.187  24.743  0.00  0.00    +0.024 A 
ATOM     20  C   UNL     1      10.945  12.177  22.556  0.00  0.00    +0.024 A 
ATOM     23  C   UNL     1      11.166  12.469  25.260  0.00  0.00    +0.111 A 
ATOM     24  C   UNL     1      11.033  13.416  23.170  0.00  0.00    +0.111 A 
ENDBRANCH  13  15
ENDBRANCH   4  13
ENDBRANCH  12   8
BRANCH  21  25
ATOM      1  F   UNL     1      20.286   4.711  20.385  0.00  0.00    -0.166 F 
ATOM      2  F   UNL     1      20.843   6.810  20.292  0.00  0.00    -0.166 F 
ATOM      3  F   UNL     1      19.980   5.998  22.110  0.00  0.00    -0.166 F 
ATOM     25  C   UNL     1      19.878   5.960  20.749  0.00  0.00    +0.417 C 
ENDBRANCH  21  25
TORSDOF 4
ENDMDL
MODEL 2
REMARK VINA RESULT:      -7.3     16.308     19.590
REMARK  Name = 45784270
REMARK  4 active torsions:
REMARK  status: ('A' for Active; 'I' for Inactive)
REMARK    1  A    between atoms: N_4  and  C_13
REMARK    2  A    between atoms: C_8  and  C_12
REMARK    3  A    between atoms: C_13  and  C_15
REMARK    4  A    between atoms: C_21  and  C_25
REMARK                            x       y       z     vdW  Elec       q    Type
REMARK                         _______ _______ _______ _____ _____    ______ ____
ROOT
ATOM      5  N   UNL     1      10.273   4.553   5.106  0.00  0.00    -0.342 N 
ATOM      6  N   UNL     1       9.704   6.664   4.705  0.00  0.00    -0.232 NA
ATOM     12  C   UNL     1      10.150   5.547   4.175  0.00  0.00    +0.113 A 
ATOM     14  C   UNL     1       9.882   5.063   6.318  0.00  0.00    +0.067 A 
ATOM     16  C   UNL     1       9.531   6.382   6.040  0.00  0.00    +0.089 A 
ATOM     17  C   UNL     1       9.806   4.502   7.592  0.00  0.00    +0.040 A 
ATOM     18  C   UNL     1       9.076   7.204   7.086  0.00  0.00    +0.030 A 
ATOM     21  C   UNL     1       9.351   5.334   8.621  0.00  0.00    +0.057 A 
ATOM     22  C   UNL     1       8.993   6.661   8.374  0.00  0.00    +0.014 A 
ATOM     26  H   UNL     1      10.596   3.609   4.936  0.00  0.00    +0.167 HD
ENDROOT
BRANCH  12   8
ATOM      4  N   UNL     1      12.088   4.290   1.331  0.00  0.00    -0.297 NA
ATOM      8  C   UNL     1      10.503   5.312   2.725  0.00  0.00    +0.070 C 
ATOM      9  C   UNL     1      11.405   6.388   2.097  0.00  0.00    +0.028 C 
ATOM     10  C   UNL     1      11.255   3.994   2.498  0.00  0.00    +0.096 C 
ATOM     11  C   UNL     1      12.621   5.630   1.579  0.00  0.00    +0.085 C 
BRANCH   4  13
ATOM     13  C   UNL     1      13.139   3.303   1.133  0.00  0.00    +0.119 C 
BRANCH  13  15
ATOM      7  N   UNL     1      15.983   4.569  -1.835  0.00  0.00    -0.263 NA
ATOM     15  C   UNL     1      14.135   3.745   0.094  0.00  0.00    -0.031 A 
ATOM     19  C   UNL     1      15.457   3.983   0.451  0.00  0.00    +0.024 A 
ATOM     20  C   UNL     1      13.735   3.919  -1.226  0.00  0.00    +0.024 A 
ATOM     23  C   UNL     1      16.334   4.389  -0.541  0.00  0.00    +0.111 A 
ATOM     24  C   UNL     1      14.689   4.328  -2.144  0.00  0.00    +0.111 A 
ENDBRANCH  13  15
ENDBRANCH   4  13
ENDBRANCH  12   8
BRANCH  21  25
ATOM      1  F   UNL     1       8.102   5.177  10.637  0.00  0.00    -0.166 F 
ATOM      2  F   UNL     1       9.257   3.427  10.062  0.00  0.00    -0.166 F 
ATOM      3  F   UNL     1      10.267   5.188  10.826  0.00  0.00    -0.166 F 
ATOM     25  C   UNL     1       9.249   4.790  10.009  0.00  0.00    +0.417 C 
ENDBRANCH  21  25
TORSDOF 4
ENDMDL
MODEL 3
REMARK VINA RESULT:      -7.1      3.573      5.735
REMARK  Name = 45784270
REMARK  4 active torsions:
REMARK  status: ('A' for Active; 'I' for Inactive)
REMARK    1  A    between atoms: N_4  and  C_13
REMARK    2  A    between atoms: C_8  and  C_12
REMARK    3  A    between atoms: C_13  and  C_15
REMARK    4  A    between atoms: C_21  and  C_25
REMARK                            x       y       z     vdW  Elec       q    Type
REMARK                         _______ _______ _______ _____ _____    ______ ____
ROOT
ATOM      5  N   UNL     1      19.861   5.104  20.184  0.00  0.00    -0.342 N 
ATOM      6  N   UNL     1      20.016   6.502  21.903  0.00  0.00    -0.232 NA
ATOM     12  C   UNL     1      19.359   6.214  20.802  0.00  0.00    +0.113 A 
ATOM     14  C   UNL     1      20.913   4.645  20.934  0.00  0.00    +0.067 A 
ATOM     16  C   UNL     1      20.989   5.535  22.003  0.00  0.00    +0.089 A 
ATOM     17  C   UNL     1      21.777   3.562  20.776  0.00  0.00    +0.040 A 
ATOM     18  C   UNL     1      21.981   5.347  22.981  0.00  0.00    +0.030 A 
ATOM     21  C   UNL     1      22.758   3.390  21.759  0.00  0.00    +0.057 A 
ATOM     22  C   UNL     1      22.860   4.266  22.841  0.00  0.00    +0.014 A 
ATOM     26  H   UNL     1      19.521   4.691  19.324  0.00  0.00    +0.167 HD
ENDROOT
BRANCH  12   8
ATOM      4  N   UNL     1      15.993   7.660  20.708  0.00  0.00    -0.297 NA
ATOM      8  C   UNL     1      18.183   6.970  20.229  0.00  0.00    +0.070 C 
ATOM      9  C   UNL     1      17.186   6.109  19.434  0.00  0.00    +0.028 C 
ATOM     10  C   UNL     1      17.330   7.657  21.305  0.00  0.00    +0.096 C 
ATOM     11  C   UNL     1      15.842   6.331  20.115  0.00  0.00    +0.085 C 
BRANCH   4  13
ATOM     13  C   UNL     1      14.951   7.954  21.682  0.00  0.00    +0.119 C 
BRANCH  13  15
ATOM      7  N   UNL     1      11.069   8.199  19.849  0.00  0.00    -0.263 NA
ATOM     15  C   UNL     1      13.592   8.040  21.040  0.00  0.00    -0.031 A 
ATOM     19  C   UNL     1      13.408   8.809  19.897  0.00  0.00    +0.024 A 
ATOM     20  C   UNL     1      12.517   7.350  21.588  0.00  0.00    +0.024 A 
ATOM     23  C   UNL     1      12.138   8.856  19.345  0.00  0.00    +0.111 A 
ATOM     24  C   UNL     1      11.287   7.461  20.960  0.00  0.00    +0.111 A 
ENDBRANCH  13  15
ENDBRANCH   4  13
ENDBRANCH  12   8
BRANCH  21  25
ATOM      1  F   UNL     1      25.013   2.657  21.586  0.00  0.00    -0.166 F 
ATOM      2  F   UNL     1      23.649   1.376  22.694  0.00  0.00    -0.166 F 
ATOM      3  F   UNL     1      23.518   1.483  20.531  0.00  0.00    -0.166 F 
ATOM     25  C   UNL     1      23.714   2.248  21.645  0.00  0.00    +0.417 C 
ENDBRANCH  21  25
TORSDOF 4
ENDMDL
MODEL 4
REMARK VINA RESULT:      -6.9      4.726      9.989
REMARK  Name = 45784270
REMARK  4 active torsions:
REMARK  status: ('A' for Active; 'I' for Inactive)
REMARK    1  A    between atoms: N_4  and  C_13
REMARK    2  A    between atoms: C_8  and  C_12
REMARK    3  A    between atoms: C_13  and  C_15
REMARK    4  A    between atoms: C_21  and  C_25
REMARK                            x       y       z     vdW  Elec       q    Type
REMARK                         _______ _______ _______ _____ _____    ______ ____
ROOT
ATOM      5  N   UNL     1      16.904   7.207  21.662  0.00  0.00    -0.342 N 
ATOM      6  N   UNL     1      17.133   6.745  19.500  0.00  0.00    -0.232 NA
ATOM     12  C   UNL     1      17.767   6.949  20.633  0.00  0.00    +0.113 A 
ATOM     14  C   UNL     1      15.629   7.168  21.159  0.00  0.00    +0.067 A 
ATOM     16  C   UNL     1      15.799   6.877  19.808  0.00  0.00    +0.089 A 
ATOM     17  C   UNL     1      14.380   7.355  21.751  0.00  0.00    +0.040 A 
ATOM     18  C   UNL     1      14.665   6.764  18.984  0.00  0.00    +0.030 A 
ATOM     21  C   UNL     1      13.263   7.238  20.917  0.00  0.00    +0.057 A 
ATOM     22  C   UNL     1      13.401   6.949  19.558  0.00  0.00    +0.014 A 
ATOM     26  H   UNL     1      17.157   7.394  22.623  0.00  0.00    +0.167 HD
ENDROOT
BRANCH  12   8
ATOM      4  N   UNL     1      21.009   5.550  21.611  0.00  0.00    -0.297 NA
ATOM      8  C   UNL     1      19.261   6.917  20.851  0.00  0.00    +0.070 C 
ATOM      9  C   UNL     1      19.724   7.397  22.237  0.00  0.00    +0.028 C 
ATOM     10  C   UNL     1      19.857   5.510  20.708  0.00  0.00    +0.096 C 
ATOM     11  C   UNL     1      20.524   6.234  22.810  0.00  0.00    +0.085 C 
BRANCH   4  13
ATOM     13  C   UNL     1      21.533   4.224  21.903  0.00  0.00    +0.119 C 
BRANCH  13  15
ATOM      7  N   UNL     1      25.193   3.446  19.782  0.00  0.00    -0.263 NA
ATOM     15  C   UNL     1      22.814   3.951  21.160  0.00  0.00    -0.031 A 
ATOM     19  C   UNL     1      23.303   2.654  21.064  0.00  0.00    +0.024 A 
ATOM     20  C   UNL     1      23.513   4.997  20.568  0.00  0.00    +0.024 A 
ATOM     23  C   UNL     1      24.486   2.455  20.371  0.00  0.00    +0.111 A 
ATOM     24  C   UNL     1      24.687   4.695  19.896  0.00  0.00    +0.111 A 
ENDBRANCH  13  15
ENDBRANCH   4  13
ENDBRANCH  12   8
BRANCH  21  25
ATOM      1  F   UNL     1      10.996   7.862  20.566  0.00  0.00    -0.166 F 
ATOM      2  F   UNL     1      11.365   6.288  22.020  0.00  0.00    -0.166 F 
ATOM      3  F   UNL     1      11.856   8.345  22.504  0.00  0.00    -0.166 F 
ATOM     25  C   UNL     1      11.898   7.428  21.493  0.00  0.00    +0.417 C 
ENDBRANCH  21  25
TORSDOF 4
ENDMDL
MODEL 5
REMARK VINA RESULT:      -6.8     28.078     30.917
REMARK  Name = 45784270
REMARK  4 active torsions:
REMARK  status: ('A' for Active; 'I' for Inactive)
REMARK    1  A    between atoms: N_4  and  C_13
REMARK    2  A    between atoms: C_8  and  C_12
REMARK    3  A    between atoms: C_13  and  C_15
REMARK    4  A    between atoms: C_21  and  C_25
REMARK                            x       y       z     vdW  Elec       q    Type
REMARK                         _______ _______ _______ _____ _____    ______ ____
ROOT
ATOM      5  N   UNL     1     -15.813   4.440  25.179  0.00  0.00    -0.342 N 
ATOM      6  N   UNL     1     -16.372   2.755  23.843  0.00  0.00    -0.232 NA
ATOM     12  C   UNL     1     -16.016   4.018  23.895  0.00  0.00    +0.113 A 
ATOM     14  C   UNL     1     -16.056   3.379  26.012  0.00  0.00    +0.067 A 
ATOM     16  C   UNL     1     -16.402   2.338  25.155  0.00  0.00    +0.089 A 
ATOM     17  C   UNL     1     -16.003   3.244  27.399  0.00  0.00    +0.040 A 
ATOM     18  C   UNL     1     -16.719   1.081  25.697  0.00  0.00    +0.030 A 
ATOM     21  C   UNL     1     -16.321   1.985  27.922  0.00  0.00    +0.057 A 
ATOM     22  C   UNL     1     -16.673   0.922  27.088  0.00  0.00    +0.014 A 
ATOM     26  H   UNL     1     -15.535   5.370  25.468  0.00  0.00    +0.167 HD
ENDROOT
BRANCH  12   8
ATOM      4  N   UNL     1     -14.261   6.345  21.672  0.00  0.00    -0.297 NA
ATOM      8  C   UNL     1     -15.831   4.953  22.722  0.00  0.00    +0.070 C 
ATOM      9  C   UNL     1     -16.177   6.425  23.006  0.00  0.00    +0.028 C 
ATOM     10  C   UNL     1     -14.386   4.986  22.206  0.00  0.00    +0.096 C 
ATOM     11  C   UNL     1     -14.910   7.200  22.666  0.00  0.00    +0.085 C 
BRANCH   4  13
ATOM     13  C   UNL     1     -12.876   6.723  21.435  0.00  0.00    +0.119 C 
BRANCH  13  15
ATOM      7  N   UNL     1     -12.295   8.254  17.458  0.00  0.00    -0.263 NA
ATOM     15  C   UNL     1     -12.672   7.260  20.043  0.00  0.00    -0.031 A 
ATOM     19  C   UNL     1     -13.755   7.736  19.313  0.00  0.00    +0.024 A 
ATOM     20  C   UNL     1     -11.400   7.280  19.482  0.00  0.00    +0.024 A 
ATOM     23  C   UNL     1     -13.516   8.217  18.037  0.00  0.00    +0.111 A 
ATOM     24  C   UNL     1     -11.266   7.783  18.198  0.00  0.00    +0.111 A 
ENDBRANCH  13  15
ENDBRANCH   4  13
ENDBRANCH  12   8
BRANCH  21  25
ATOM      1  F   UNL     1     -16.524   0.482  29.752  0.00  0.00    -0.166 F 
ATOM      2  F   UNL     1     -15.081   2.094  29.965  0.00  0.00    -0.166 F 
ATOM      3  F   UNL     1     -17.205   2.520  30.079  0.00  0.00    -0.166 F 
ATOM     25  C   UNL     1     -16.282   1.777  29.401  0.00  0.00    +0.417 C 
ENDBRANCH  21  25
TORSDOF 4
ENDMDL
MODEL 6
REMARK VINA RESULT:      -6.8     17.168     20.214
REMARK  Name = 45784270
REMARK  4 active torsions:
REMARK  status: ('A' for Active; 'I' for Inactive)
REMARK    1  A    between atoms: N_4  and  C_13
REMARK    2  A    between atoms: C_8  and  C_12
REMARK    3  A    between atoms: C_13  and  C_15
REMARK    4  A    between atoms: C_21  and  C_25
REMARK                            x       y       z     vdW  Elec       q    Type
REMARK                         _______ _______ _______ _____ _____    ______ ____
ROOT
ATOM      5  N   UNL     1      10.002   5.528   4.531  0.00  0.00    -0.342 N 
ATOM      6  N   UNL     1       9.182   7.593   4.490  0.00  0.00    -0.232 NA
ATOM     12  C   UNL     1       9.685   6.617   3.768  0.00  0.00    +0.113 A 
ATOM     14  C   UNL     1       9.683   5.821   5.832  0.00  0.00    +0.067 A 
ATOM     16  C   UNL     1       9.172   7.115   5.780  0.00  0.00    +0.089 A 
ATOM     17  C   UNL     1       9.793   5.088   7.013  0.00  0.00    +0.040 A 
ATOM     18  C   UNL     1       8.742   7.730   6.968  0.00  0.00    +0.030 A 
ATOM     21  C   UNL     1       9.360   5.714   8.186  0.00  0.00    +0.057 A 
ATOM     22  C   UNL     1       8.844   7.012   8.167  0.00  0.00    +0.014 A 
ATOM     26  H   UNL     1      10.401   4.660   4.199  0.00  0.00    +0.167 HD
ENDROOT
BRANCH  12   8
ATOM      4  N   UNL     1      11.323   5.784   0.598  0.00  0.00    -0.297 NA
ATOM      8  C   UNL     1       9.914   6.624   2.274  0.00  0.00    +0.070 C 
ATOM      9  C   UNL     1      10.834   7.746   1.766  0.00  0.00    +0.028 C 
ATOM     10  C   UNL     1      10.561   5.329   1.763  0.00  0.00    +0.096 C 
ATOM     11  C   UNL     1      11.957   7.031   1.026  0.00  0.00    +0.085 C 
BRANCH   4  13
ATOM     13  C   UNL     1      12.291   4.795   0.147  0.00  0.00    +0.119 C 
BRANCH  13  15
ATOM      7  N   UNL     1      10.901   2.654  -3.314  0.00  0.00    -0.263 NA
ATOM     15  C   UNL     1      11.805   4.046  -1.065  0.00  0.00    -0.031 A 
ATOM     19  C   UNL     1      10.764   4.558  -1.830  0.00  0.00    +0.024 A 
ATOM     20  C   UNL     1      12.395   2.839  -1.422  0.00  0.00    +0.024 A 
ATOM     23  C   UNL     1      10.352   3.830  -2.935  0.00  0.00    +0.111 A 
ATOM     24  C   UNL     1      11.911   2.188  -2.546  0.00  0.00    +0.111 A 
ENDBRANCH  13  15
ENDBRANCH   4  13
ENDBRANCH  12   8
BRANCH  21  25
ATOM      1  F   UNL     1       9.552   3.631   9.315  0.00  0.00    -0.166 F 
ATOM      2  F   UNL     1      10.532   5.338  10.238  0.00  0.00    -0.166 F 
ATOM      3  F   UNL     1       8.370   5.170  10.295  0.00  0.00    -0.166 F 
ATOM     25  C   UNL     1       9.452   4.980   9.484  0.00  0.00    +0.417 C 
ENDBRANCH  21  25
TORSDOF 4
ENDMDL
MODEL 7
REMARK VINA RESULT:      -6.8     27.480     29.600
REMARK  Name = 45784270
REMARK  4 active torsions:
REMARK  status: ('A' for Active; 'I' for Inactive)
REMARK    1  A    between atoms: N_4  and  C_13
REMARK    2  A    between atoms: C_8  and  C_12
REMARK    3  A    between atoms: C_13  and  C_15
REMARK    4  A    between atoms: C_21  and  C_25
REMARK                            x       y       z     vdW  Elec       q    Type
REMARK                         _______ _______ _______ _____ _____    ______ ____
ROOT
ATOM      5  N   UNL     1      -5.585  -9.984  16.308  0.00  0.00    -0.342 N 
ATOM      6  N   UNL     1      -4.289 -11.193  17.648  0.00  0.00    -0.232 NA
ATOM     12  C   UNL     1      -4.336 -10.487  16.541  0.00  0.00    +0.113 A 
ATOM     14  C   UNL     1      -6.399 -10.393  17.333  0.00  0.00    +0.067 A 
ATOM     16  C   UNL     1      -5.566 -11.146  18.157  0.00  0.00    +0.089 A 
ATOM     17  C   UNL     1      -7.750 -10.175  17.603  0.00  0.00    +0.040 A 
ATOM     18  C   UNL     1      -6.097 -11.723  19.323  0.00  0.00    +0.030 A 
ATOM     21  C   UNL     1      -8.262 -10.757  18.767  0.00  0.00    +0.057 A 
ATOM     22  C   UNL     1      -7.452 -11.518  19.613  0.00  0.00    +0.014 A 
ATOM     26  H   UNL     1      -5.864  -9.413  15.521  0.00  0.00    +0.167 HD
ENDROOT
BRANCH  12   8
ATOM      4  N   UNL     1      -2.123 -11.049  13.675  0.00  0.00    -0.297 NA
ATOM      8  C   UNL     1      -3.192 -10.220  15.591  0.00  0.00    +0.070 C 
ATOM      9  C   UNL     1      -1.855 -10.870  15.988  0.00  0.00    +0.028 C 
ATOM     10  C   UNL     1      -3.464 -10.729  14.168  0.00  0.00    +0.096 C 
ATOM     11  C   UNL     1      -1.463 -11.727  14.791  0.00  0.00    +0.085 C 
BRANCH   4  13
ATOM     13  C   UNL     1      -2.155 -11.867  12.471  0.00  0.00    +0.119 C 
BRANCH  13  15
ATOM      7  N   UNL     1      -4.107  -9.847   9.214  0.00  0.00    -0.263 NA
ATOM     15  C   UNL     1      -2.839 -11.160  11.331  0.00  0.00    -0.031 A 
ATOM     19  C   UNL     1      -3.756 -11.840  10.538  0.00  0.00    +0.024 A 
ATOM     20  C   UNL     1      -2.555  -9.825  11.068  0.00  0.00    +0.024 A 
ATOM     23  C   UNL     1      -4.357 -11.145   9.501  0.00  0.00    +0.111 A 
ATOM     24  C   UNL     1      -3.210  -9.219  10.008  0.00  0.00    +0.111 A 
ENDBRANCH  13  15
ENDBRANCH   4  13
ENDBRANCH  12   8
BRANCH  21  25
ATOM      1  F   UNL     1      -9.914 -10.493  20.456  0.00  0.00    -0.166 F 
ATOM      2  F   UNL     1     -10.234  -9.414  18.596  0.00  0.00    -0.166 F 
ATOM      3  F   UNL     1     -10.511 -11.565  18.662  0.00  0.00    -0.166 F 
ATOM     25  C   UNL     1      -9.702 -10.561  19.111  0.00  0.00    +0.417 C 
ENDBRANCH  21  25
TORSDOF 4
ENDMDL
MODEL 8
REMARK VINA RESULT:      -6.8     14.259     16.932
REMARK  Name = 45784270
REMARK  4 active torsions:
REMARK  status: ('A' for Active; 'I' for Inactive)
REMARK    1  A    between atoms: N_4  and  C_13
REMARK    2  A    between atoms: C_8  and  C_12
REMARK    3  A    between atoms: C_13  and  C_15
REMARK    4  A    between atoms: C_21  and  C_25
REMARK                            x       y       z     vdW  Elec       q    Type
REMARK                         _______ _______ _______ _____ _____    ______ ____
ROOT
ATOM      5  N   UNL     1      13.213   6.756   6.599  0.00  0.00    -0.342 N 
ATOM      6  N   UNL     1      11.942   7.181   4.826  0.00  0.00    -0.232 NA
ATOM     12  C   UNL     1      13.158   7.235   5.320  0.00  0.00    +0.113 A 
ATOM     14  C   UNL     1      11.947   6.367   6.955  0.00  0.00    +0.067 A 
ATOM     16  C   UNL     1      11.172   6.642   5.831  0.00  0.00    +0.089 A 
ATOM     17  C   UNL     1      11.429   5.815   8.127  0.00  0.00    +0.040 A 
ATOM     18  C   UNL     1       9.796   6.355   5.862  0.00  0.00    +0.030 A 
ATOM     21  C   UNL     1      10.059   5.536   8.140  0.00  0.00    +0.057 A 
ATOM     22  C   UNL     1       9.255   5.801   7.029  0.00  0.00    +0.014 A 
ATOM     26  H   UNL     1      14.037   6.698   7.183  0.00  0.00    +0.167 HD
ENDROOT
BRANCH  12   8
ATOM      4  N   UNL     1      16.389   8.931   4.980  0.00  0.00    -0.297 NA
ATOM      8  C   UNL     1      14.395   7.750   4.621  0.00  0.00    +0.070 C 
ATOM      9  C   UNL     1      14.265   9.167   4.036  0.00  0.00    +0.028 C 
ATOM     10  C   UNL     1      15.619   7.820   5.544  0.00  0.00    +0.096 C 
ATOM     11  C   UNL     1      15.395   9.962   4.678  0.00  0.00    +0.085 C 
BRANCH   4  13
ATOM     13  C   UNL     1      17.422   9.407   5.888  0.00  0.00    +0.119 C 
BRANCH  13  15
ATOM      7  N   UNL     1      21.110   7.253   5.384  0.00  0.00    -0.263 NA
ATOM     15  C   UNL     1      18.713   8.652   5.712  0.00  0.00    -0.031 A 
ATOM     19  C   UNL     1      19.627   8.580   6.757  0.00  0.00    +0.024 A 
ATOM     20  C   UNL     1      18.996   8.026   4.504  0.00  0.00    +0.024 A 
ATOM     23  C   UNL     1      20.800   7.875   6.544  0.00  0.00    +0.111 A 
ATOM     24  C   UNL     1      20.197   7.345   4.391  0.00  0.00    +0.111 A 
ENDBRANCH  13  15
ENDBRANCH   4  13
ENDBRANCH  12   8
BRANCH  21  25
ATOM      1  F   UNL     1       8.371   5.658   9.810  0.00  0.00    -0.166 F 
ATOM      2  F   UNL     1       8.991   3.669   9.188  0.00  0.00    -0.166 F 
ATOM      3  F   UNL     1      10.303   4.874  10.425  0.00  0.00    -0.166 F 
ATOM     25  C   UNL     1       9.445   4.944   9.366  0.00  0.00    +0.417 C 
ENDBRANCH  21  25
TORSDOF 4
ENDMDL
MODEL 9
REMARK VINA RESULT:      -6.7     27.580     30.271
REMARK  Name = 45784270
REMARK  4 active torsions:
REMARK  status: ('A' for Active; 'I' for Inactive)
REMARK    1  A    between atoms: N_4  and  C_13
REMARK    2  A    between atoms: C_8  and  C_12
REMARK    3  A    between atoms: C_13  and  C_15
REMARK    4  A    between atoms: C_21  and  C_25
REMARK                            x       y       z     vdW  Elec       q    Type
REMARK                         _______ _______ _______ _____ _____    ______ ____
ROOT
ATOM      5  N   UNL     1      -7.989  -8.760  16.897  0.00  0.00    -0.342 N 
ATOM      6  N   UNL     1      -8.964 -10.211  18.269  0.00  0.00    -0.232 NA
ATOM     12  C   UNL     1      -7.820  -9.797  17.772  0.00  0.00    +0.113 A 
ATOM     14  C   UNL     1      -9.331  -8.487  16.824  0.00  0.00    +0.067 A 
ATOM     16  C   UNL     1      -9.918  -9.406  17.690  0.00  0.00    +0.089 A 
ATOM     17  C   UNL     1     -10.059  -7.545  16.098  0.00  0.00    +0.040 A 
ATOM     18  C   UNL     1     -11.314  -9.398  17.853  0.00  0.00    +0.030 A 
ATOM     21  C   UNL     1     -11.447  -7.551  16.272  0.00  0.00    +0.057 A 
ATOM     22  C   UNL     1     -12.065  -8.461  17.133  0.00  0.00    +0.014 A 
ATOM     26  H   UNL     1      -7.257  -8.278  16.391  0.00  0.00    +0.167 HD
ENDROOT
BRANCH  12   8
ATOM      4  N   UNL     1      -4.744 -11.709  17.219  0.00  0.00    -0.297 NA
ATOM      8  C   UNL     1      -6.448 -10.348  18.082  0.00  0.00    +0.070 C 
ATOM      9  C   UNL     1      -6.444 -11.698  18.820  0.00  0.00    +0.028 C 
ATOM     10  C   UNL     1      -5.603 -10.591  16.824  0.00  0.00    +0.096 C 
ATOM     11  C   UNL     1      -5.629 -12.630  17.933  0.00  0.00    +0.085 C 
BRANCH   4  13
ATOM     13  C   UNL     1      -4.092 -12.338  16.080  0.00  0.00    +0.119 C 
BRANCH  13  15
ATOM      7  N   UNL     1      -1.155  -9.756  14.289  0.00  0.00    -0.263 NA
ATOM     15  C   UNL     1      -3.064 -11.434  15.453  0.00  0.00    -0.031 A 
ATOM     19  C   UNL     1      -3.102 -11.175  14.088  0.00  0.00    +0.024 A 
ATOM     20  C   UNL     1      -2.073 -10.855  16.237  0.00  0.00    +0.024 A 
ATOM     23  C   UNL     1      -2.134 -10.337  13.559  0.00  0.00    +0.111 A 
ATOM     24  C   UNL     1      -1.150 -10.031  15.613  0.00  0.00    +0.111 A 
ENDBRANCH  13  15
ENDBRANCH   4  13
ENDBRANCH  12   8
BRANCH  21  25
ATOM      1  F   UNL     1     -11.602  -5.421  15.229  0.00  0.00    -0.166 F 
ATOM      2  F   UNL     1     -12.741  -7.038  14.326  0.00  0.00    -0.166 F 
ATOM      3  F   UNL     1     -13.397  -6.167  16.202  0.00  0.00    -0.166 F 
ATOM     25  C   UNL     1     -12.282  -6.566  15.522  0.00  0.00    +0.417 C 
ENDBRANCH  21  25
TORSDOF 4
ENDMDL
MODEL 10
REMARK VINA RESULT:      -6.6     27.164     29.278
REMARK  Name = 45784270
REMARK  4 active torsions:
REMARK  status: ('A' for Active; 'I' for Inactive)
REMARK    1  A    between atoms: N_4  and  C_13
REMARK    2  A    between atoms: C_8  and  C_12
REMARK    3  A    between atoms: C_13  and  C_15
REMARK    4  A    between atoms: C_21  and  C_25
REMARK                            x       y       z     vdW  Elec       q    Type
REMARK                         _______ _______ _______ _____ _____    ______ ____
ROOT
ATOM      5  N   UNL     1      -6.985  -9.697  15.479  0.00  0.00    -0.342 N 
ATOM      6  N   UNL     1      -7.303 -10.241  17.610  0.00  0.00    -0.232 NA
ATOM     12  C   UNL     1      -7.869  -9.779  16.518  0.00  0.00    +0.113 A 
ATOM     14  C   UNL     1      -5.766 -10.135  15.930  0.00  0.00    +0.067 A 
ATOM     16  C   UNL     1      -5.991 -10.469  17.263  0.00  0.00    +0.089 A 
ATOM     17  C   UNL     1      -4.526 -10.264  15.306  0.00  0.00    +0.040 A 
ATOM     18  C   UNL     1      -4.924 -10.963  18.034  0.00  0.00    +0.030 A 
ATOM     21  C   UNL     1      -3.476 -10.757  16.088  0.00  0.00    +0.057 A 
ATOM     22  C   UNL     1      -3.669 -11.100  17.428  0.00  0.00    +0.014 A 
ATOM     26  H   UNL     1      -7.189  -9.371  14.543  0.00  0.00    +0.167 HD
ENDROOT
BRANCH  12   8
ATOM      4  N   UNL     1     -10.697  -7.510  15.988  0.00  0.00    -0.297 NA
ATOM      8  C   UNL     1      -9.314  -9.368  16.355  0.00  0.00    +0.070 C 
ATOM      9  C   UNL     1     -10.033  -8.996  17.663  0.00  0.00    +0.028 C 
ATOM     10  C   UNL     1      -9.488  -8.139  15.452  0.00  0.00    +0.096 C 
ATOM     11  C   UNL     1     -10.545  -7.579  17.442  0.00  0.00    +0.085 C 
BRANCH   4  13
ATOM     13  C   UNL     1     -10.870  -6.145  15.513  0.00  0.00    +0.119 C 
BRANCH  13  15
ATOM      7  N   UNL     1     -14.729  -5.556  13.708  0.00  0.00    -0.263 NA
ATOM     15  C   UNL     1     -12.221  -5.939  14.880  0.00  0.00    -0.031 A 
ATOM     19  C   UNL     1     -12.362  -5.077  13.799  0.00  0.00    +0.024 A 
ATOM     20  C   UNL     1     -13.333  -6.611  15.376  0.00  0.00    +0.024 A 
ATOM     23  C   UNL     1     -13.625  -4.921  13.254  0.00  0.00    +0.111 A 
ATOM     24  C   UNL     1     -14.554  -6.387  14.760  0.00  0.00    +0.111 A 
ENDBRANCH  13  15
ENDBRANCH   4  13
ENDBRANCH  12   8
BRANCH  21  25
ATOM      1  F   UNL     1      -1.116 -10.700  16.371  0.00  0.00    -0.166 F 
ATOM      2  F   UNL     1      -1.899 -12.163  14.966  0.00  0.00    -0.166 F 
ATOM      3  F   UNL     1      -1.886 -10.058  14.442  0.00  0.00    -0.166 F 
ATOM     25  C   UNL     1      -2.122 -10.917  15.477  0.00  0.00    +0.417 C 
ENDBRANCH  21  25
TORSDOF 4
ENDMDL
