MODEL 1
REMARK VINA RESULT:      -6.1      0.000      0.000
REMARK  Name = 56775701
REMARK  6 active torsions:
REMARK  status: ('A' for Active; 'I' for Inactive)
REMARK    1  A    between atoms: N_4  and  C_7
REMARK    2  A    between atoms: N_4  and  C_11
REMARK    3  A    between atoms: C_7  and  C_10
REMARK    4  A    between atoms: C_10  and  C_12
REMARK    5  A    between atoms: C_11  and  C_13
REMARK    6  A    between atoms: C_15  and  C_18
REMARK                            x       y       z     vdW  Elec       q    Type
REMARK                         _______ _______ _______ _____ _____    ______ ____
ROOT
ATOM      2  O   UNL     1      20.026   8.463  23.580  0.00  0.00    -0.376 OA
ATOM      7  C   UNL     1      19.727   7.192  21.892  0.00  0.00    +0.072 C 
ATOM      8  C   UNL     1      20.334   7.081  23.286  0.00  0.00    +0.184 C 
ATOM      9  C   UNL     1      19.521   8.662  22.240  0.00  0.00    +0.184 C 
ENDROOT
BRANCH   7   4
ATOM      4  N   UNL     1      18.425   6.521  21.891  0.00  0.00    -0.302 NA
ATOM     26  H   UNL     1      17.750   6.883  22.563  0.00  0.00    +0.123 HD
BRANCH   4  11
ATOM     11  C   UNL     1      17.858   6.577  20.543  0.00  0.00    +0.120 C 
BRANCH  11  13
ATOM      1  F   UNL     1      16.179   6.086  18.323  0.00  0.00    -0.205 F 
ATOM     13  C   UNL     1      16.395   6.871  20.553  0.00  0.00    +0.002 A 
ATOM     16  C   UNL     1      15.620   6.606  19.424  0.00  0.00    +0.128 A 
ATOM     17  C   UNL     1      15.804   7.412  21.695  0.00  0.00    +0.008 A 
ATOM     19  C   UNL     1      14.252   6.882  19.438  0.00  0.00    +0.038 A 
ATOM     20  C   UNL     1      14.437   7.688  21.708  0.00  0.00    +0.000 A 
ATOM     21  C   UNL     1      13.661   7.423  20.580  0.00  0.00    +0.003 A 
ENDBRANCH  11  13
ENDBRANCH   4  11
ENDBRANCH   7   4
BRANCH   7  10
ATOM     10  C   UNL     1      20.568   6.836  20.704  0.00  0.00    +0.085 C 
BRANCH  10  12
ATOM      3  O   UNL     1      21.459   3.338  20.872  0.00  0.00    -0.353 OA
ATOM      5  N   UNL     1      20.577   4.370  20.574  0.00  0.00    -0.083 NA
ATOM     12  C   UNL     1      21.232   5.489  20.898  0.00  0.00    +0.086 A 
ATOM     14  C   UNL     1      22.518   5.228  21.401  0.00  0.00    +0.077 A 
ATOM     15  C   UNL     1      22.611   3.862  21.364  0.00  0.00    +0.186 A 
BRANCH  15  18
ATOM      6  N   UNL     1      24.423   3.293  22.740  0.00  0.00    -0.252 NA
ATOM     18  C   UNL     1      23.625   2.911  21.718  0.00  0.00    +0.109 A 
ATOM     22  C   UNL     1      23.749   1.706  21.045  0.00  0.00    +0.031 A 
ATOM     23  C   UNL     1      24.756   0.837  21.449  0.00  0.00    +0.004 A 
ATOM     24  C   UNL     1      25.391   2.423  23.104  0.00  0.00    +0.111 A 
ATOM     25  C   UNL     1      25.597   1.194  22.496  0.00  0.00    +0.020 A 
ENDBRANCH  15  18
ENDBRANCH  10  12
ENDBRANCH   7  10
TORSDOF 6
ENDMDL
MODEL 2
REMARK VINA RESULT:      -6.0      4.062      6.995
REMARK  Name = 56775701
REMARK  6 active torsions:
REMARK  status: ('A' for Active; 'I' for Inactive)
REMARK    1  A    between atoms: N_4  and  C_7
REMARK    2  A    between atoms: N_4  and  C_11
REMARK    3  A    between atoms: C_7  and  C_10
REMARK    4  A    between atoms: C_10  and  C_12
REMARK    5  A    between atoms: C_11  and  C_13
REMARK    6  A    between atoms: C_15  and  C_18
REMARK                            x       y       z     vdW  Elec       q    Type
REMARK                         _______ _______ _______ _____ _____    ______ ____
ROOT
ATOM      2  O   UNL     1      12.837   9.411  16.712  0.00  0.00    -0.376 OA
ATOM      7  C   UNL     1      13.114   8.463  18.605  0.00  0.00    +0.072 C 
ATOM      8  C   UNL     1      13.990   9.080  17.520  0.00  0.00    +0.184 C 
ATOM      9  C   UNL     1      11.957   8.759  17.656  0.00  0.00    +0.184 C 
ENDROOT
BRANCH   7   4
ATOM      4  N   UNL     1      13.043   9.390  19.737  0.00  0.00    -0.302 NA
ATOM     26  H   UNL     1      13.229  10.366  19.510  0.00  0.00    +0.123 HD
BRANCH   4  11
ATOM     11  C   UNL     1      11.731   9.272  20.373  0.00  0.00    +0.120 C 
BRANCH  11  13
ATOM      1  F   UNL     1      12.283  12.033  20.144  0.00  0.00    -0.205 F 
ATOM     13  C   UNL     1      11.559  10.228  21.505  0.00  0.00    +0.002 A 
ATOM     16  C   UNL     1      11.850  11.581  21.329  0.00  0.00    +0.128 A 
ATOM     17  C   UNL     1      11.108   9.767  22.741  0.00  0.00    +0.008 A 
ATOM     19  C   UNL     1      11.688  12.472  22.389  0.00  0.00    +0.038 A 
ATOM     20  C   UNL     1      10.947  10.658  23.802  0.00  0.00    +0.000 A 
ATOM     21  C   UNL     1      11.237  12.011  23.626  0.00  0.00    +0.003 A 
ENDBRANCH  11  13
ENDBRANCH   4  11
ENDBRANCH   7   4
BRANCH   7  10
ATOM     10  C   UNL     1      13.366   7.048  19.024  0.00  0.00    +0.085 C 
BRANCH  10  12
ATOM      3  O   UNL     1      15.945   7.063  21.556  0.00  0.00    -0.353 OA
ATOM      5  N   UNL     1      14.638   7.269  21.130  0.00  0.00    -0.083 NA
ATOM     12  C   UNL     1      14.643   6.945  19.833  0.00  0.00    +0.086 A 
ATOM     14  C   UNL     1      15.911   6.533  19.390  0.00  0.00    +0.077 A 
ATOM     15  C   UNL     1      16.693   6.625  20.511  0.00  0.00    +0.186 A 
BRANCH  15  18
ATOM      6  N   UNL     1      18.582   7.092  21.820  0.00  0.00    -0.252 NA
ATOM     18  C   UNL     1      18.074   6.366  20.799  0.00  0.00    +0.109 A 
ATOM     22  C   UNL     1      18.800   5.438  20.071  0.00  0.00    +0.031 A 
ATOM     23  C   UNL     1      20.134   5.243  20.413  0.00  0.00    +0.004 A 
ATOM     24  C   UNL     1      19.881   6.876  22.124  0.00  0.00    +0.111 A 
ATOM     25  C   UNL     1      20.692   5.971  21.457  0.00  0.00    +0.020 A 
ENDBRANCH  15  18
ENDBRANCH  10  12
ENDBRANCH   7  10
TORSDOF 6
ENDMDL
MODEL 3
REMARK VINA RESULT:      -6.0     31.889     34.680
REMARK  Name = 56775701
REMARK  6 active torsions:
REMARK  status: ('A' for Active; 'I' for Inactive)
REMARK    1  A    between atoms: N_4  and  C_7
REMARK    2  A    between atoms: N_4  and  C_11
REMARK    3  A    between atoms: C_7  and  C_10
REMARK    4  A    between atoms: C_10  and  C_12
REMARK    5  A    between atoms: C_11  and  C_13
REMARK    6  A    between atoms: C_15  and  C_18
REMARK                            x       y       z     vdW  Elec       q    Type
REMARK                         _______ _______ _______ _____ _____    ______ ____
ROOT
ATOM      2  O   UNL     1     -16.491   8.050  21.464  0.00  0.00    -0.376 OA
ATOM      7  C   UNL     1     -14.440   7.460  21.451  0.00  0.00    +0.072 C 
ATOM      8  C   UNL     1     -15.577   7.586  20.444  0.00  0.00    +0.184 C 
ATOM      9  C   UNL     1     -15.484   7.864  22.485  0.00  0.00    +0.184 C 
ENDROOT
BRANCH   7   4
ATOM      4  N   UNL     1     -13.512   8.578  21.256  0.00  0.00    -0.302 NA
ATOM     26  H   UNL     1     -13.510   9.273  22.001  0.00  0.00    +0.123 HD
BRANCH   4  11
ATOM     11  C   UNL     1     -12.160   8.051  21.065  0.00  0.00    +0.120 C 
BRANCH  11  13
ATOM      1  F   UNL     1     -11.577   6.583  18.723  0.00  0.00    -0.205 F 
ATOM     13  C   UNL     1     -11.478   8.652  19.882  0.00  0.00    +0.002 A 
ATOM     16  C   UNL     1     -11.218   7.874  18.755  0.00  0.00    +0.128 A 
ATOM     17  C   UNL     1     -11.101   9.994  19.906  0.00  0.00    +0.008 A 
ATOM     19  C   UNL     1     -10.580   8.439  17.650  0.00  0.00    +0.038 A 
ATOM     20  C   UNL     1     -10.462  10.559  18.802  0.00  0.00    +0.000 A 
ATOM     21  C   UNL     1     -10.203   9.781  17.674  0.00  0.00    +0.003 A 
ENDBRANCH  11  13
ENDBRANCH   4  11
ENDBRANCH   7   4
BRANCH   7  10
ATOM     10  C   UNL     1     -13.743   6.142  21.598  0.00  0.00    +0.085 C 
BRANCH  10  12
ATOM      3  O   UNL     1     -16.195   3.724  22.693  0.00  0.00    -0.353 OA
ATOM      5  N   UNL     1     -15.621   4.544  21.728  0.00  0.00    -0.083 NA
ATOM     12  C   UNL     1     -14.610   5.155  22.352  0.00  0.00    +0.086 A 
ATOM     14  C   UNL     1     -14.498   4.765  23.697  0.00  0.00    +0.077 A 
ATOM     15  C   UNL     1     -15.517   3.865  23.861  0.00  0.00    +0.186 A 
BRANCH  15  18
ATOM      6  N   UNL     1     -16.387   1.824  24.622  0.00  0.00    -0.252 NA
ATOM     18  C   UNL     1     -15.996   3.074  24.957  0.00  0.00    +0.109 A 
ATOM     22  C   UNL     1     -16.039   3.581  26.246  0.00  0.00    +0.031 A 
ATOM     23  C   UNL     1     -16.515   2.750  27.255  0.00  0.00    +0.004 A 
ATOM     24  C   UNL     1     -16.844   1.047  25.629  0.00  0.00    +0.111 A 
ATOM     25  C   UNL     1     -16.927   1.458  26.950  0.00  0.00    +0.020 A 
ENDBRANCH  15  18
ENDBRANCH  10  12
ENDBRANCH   7  10
TORSDOF 6
ENDMDL
MODEL 4
REMARK VINA RESULT:      -5.9     29.242     31.235
REMARK  Name = 56775701
REMARK  6 active torsions:
REMARK  status: ('A' for Active; 'I' for Inactive)
REMARK    1  A    between atoms: N_4  and  C_7
REMARK    2  A    between atoms: N_4  and  C_11
REMARK    3  A    between atoms: C_7  and  C_10
REMARK    4  A    between atoms: C_10  and  C_12
REMARK    5  A    between atoms: C_11  and  C_13
REMARK    6  A    between atoms: C_15  and  C_18
REMARK                            x       y       z     vdW  Elec       q    Type
REMARK                         _______ _______ _______ _____ _____    ______ ____
ROOT
ATOM      2  O   UNL     1      -2.528 -14.131  14.465  0.00  0.00    -0.376 OA
ATOM      7  C   UNL     1      -3.053 -12.067  14.325  0.00  0.00    +0.072 C 
ATOM      8  C   UNL     1      -1.834 -12.937  14.036  0.00  0.00    +0.184 C 
ATOM      9  C   UNL     1      -3.684 -13.352  14.849  0.00  0.00    +0.184 C 
ENDROOT
BRANCH   7   4
ATOM      4  N   UNL     1      -3.691 -11.713  13.055  0.00  0.00    -0.302 NA
ATOM     26  H   UNL     1      -4.709 -11.752  13.056  0.00  0.00    +0.123 HD
BRANCH   4  11
ATOM     11  C   UNL     1      -3.248 -10.377  12.652  0.00  0.00    +0.120 C 
BRANCH  11  13
ATOM      1  F   UNL     1      -2.002  -9.256  10.377  0.00  0.00    -0.205 F 
ATOM     13  C   UNL     1      -4.015  -9.852  11.485  0.00  0.00    +0.002 A 
ATOM     16  C   UNL     1      -3.341  -9.310  10.391  0.00  0.00    +0.128 A 
ATOM     17  C   UNL     1      -5.409  -9.904  11.491  0.00  0.00    +0.008 A 
ATOM     19  C   UNL     1      -4.062  -8.820   9.302  0.00  0.00    +0.038 A 
ATOM     20  C   UNL     1      -6.129  -9.413  10.402  0.00  0.00    +0.000 A 
ATOM     21  C   UNL     1      -5.456  -8.872   9.307  0.00  0.00    +0.003 A 
ENDBRANCH  11  13
ENDBRANCH   4  11
ENDBRANCH   7   4
BRANCH   7  10
ATOM     10  C   UNL     1      -2.907 -10.899  15.251  0.00  0.00    +0.085 C 
BRANCH  10  12
ATOM      3  O   UNL     1      -5.313 -10.890  17.948  0.00  0.00    -0.353 OA
ATOM      5  N   UNL     1      -4.049 -11.141  17.428  0.00  0.00    -0.083 NA
ATOM     12  C   UNL     1      -4.122 -10.767  16.147  0.00  0.00    +0.086 A 
ATOM     14  C   UNL     1      -5.394 -10.278  15.805  0.00  0.00    +0.077 A 
ATOM     15  C   UNL     1      -6.105 -10.376  16.971  0.00  0.00    +0.186 A 
BRANCH  15  18
ATOM      6  N   UNL     1      -7.985 -10.910  18.269  0.00  0.00    -0.252 NA
ATOM     18  C   UNL     1      -7.449 -10.063  17.361  0.00  0.00    +0.109 A 
ATOM     22  C   UNL     1      -8.117  -8.971  16.830  0.00  0.00    +0.031 A 
ATOM     23  C   UNL     1      -9.418  -8.734  17.260  0.00  0.00    +0.004 A 
ATOM     24  C   UNL     1      -9.251 -10.648  18.662  0.00  0.00    +0.111 A 
ATOM     25  C   UNL     1     -10.003  -9.582  18.192  0.00  0.00    +0.020 A 
ENDBRANCH  15  18
ENDBRANCH  10  12
ENDBRANCH   7  10
TORSDOF 6
ENDMDL
MODEL 5
REMARK VINA RESULT:      -5.9     29.089     30.977
REMARK  Name = 56775701
REMARK  6 active torsions:
REMARK  status: ('A' for Active; 'I' for Inactive)
REMARK    1  A    between atoms: N_4  and  C_7
REMARK    2  A    between atoms: N_4  and  C_11
REMARK    3  A    between atoms: C_7  and  C_10
REMARK    4  A    between atoms: C_10  and  C_12
REMARK    5  A    between atoms: C_11  and  C_13
REMARK    6  A    between atoms: C_15  and  C_18
REMARK                            x       y       z     vdW  Elec       q    Type
REMARK                         _______ _______ _______ _____ _____    ______ ____
ROOT
ATOM      2  O   UNL     1      -2.447 -13.825  13.024  0.00  0.00    -0.376 OA
ATOM      7  C   UNL     1      -2.649 -12.041  14.180  0.00  0.00    +0.072 C 
ATOM      8  C   UNL     1      -3.535 -12.911  13.295  0.00  0.00    +0.184 C 
ATOM      9  C   UNL     1      -1.530 -12.994  13.772  0.00  0.00    +0.184 C 
ENDROOT
BRANCH   7   4
ATOM      4  N   UNL     1      -2.992 -12.290  15.582  0.00  0.00    -0.302 NA
ATOM     26  H   UNL     1      -2.372 -12.934  16.072  0.00  0.00    +0.123 HD
BRANCH   4  11
ATOM     11  C   UNL     1      -3.045 -11.015  16.297  0.00  0.00    +0.120 C 
BRANCH  11  13
ATOM      1  F   UNL     1      -5.354  -9.598  15.491  0.00  0.00    -0.205 F 
ATOM     13  C   UNL     1      -4.261 -10.893  17.153  0.00  0.00    +0.002 A 
ATOM     16  C   UNL     1      -5.369 -10.179  16.699  0.00  0.00    +0.128 A 
ATOM     17  C   UNL     1      -4.286 -11.496  18.411  0.00  0.00    +0.008 A 
ATOM     19  C   UNL     1      -6.504 -10.069  17.503  0.00  0.00    +0.038 A 
ATOM     20  C   UNL     1      -5.421 -11.384  19.215  0.00  0.00    +0.000 A 
ATOM     21  C   UNL     1      -6.530 -10.671  18.760  0.00  0.00    +0.003 A 
ENDBRANCH  11  13
ENDBRANCH   4  11
ENDBRANCH   7   4
BRANCH   7  10
ATOM     10  C   UNL     1      -2.514 -10.584  13.862  0.00  0.00    +0.085 C 
BRANCH  10  12
ATOM      3  O   UNL     1      -2.960  -9.944  10.333  0.00  0.00    -0.353 OA
ATOM      5  N   UNL     1      -2.172 -10.230  11.441  0.00  0.00    -0.083 NA
ATOM     12  C   UNL     1      -3.026 -10.287  12.467  0.00  0.00    +0.086 A 
ATOM     14  C   UNL     1      -4.353 -10.047  12.071  0.00  0.00    +0.077 A 
ATOM     15  C   UNL     1      -4.257  -9.837  10.721  0.00  0.00    +0.186 A 
BRANCH  15  18
ATOM      6  N   UNL     1      -4.883 -10.070   8.473  0.00  0.00    -0.252 NA
ATOM     18  C   UNL     1      -5.196  -9.544   9.678  0.00  0.00    +0.109 A 
ATOM     22  C   UNL     1      -6.326  -8.779   9.921  0.00  0.00    +0.031 A 
ATOM     23  C   UNL     1      -7.190  -8.540   8.857  0.00  0.00    +0.004 A 
ATOM     24  C   UNL     1      -5.745  -9.816   7.464  0.00  0.00    +0.111 A 
ATOM     25  C   UNL     1      -6.902  -9.064   7.603  0.00  0.00    +0.020 A 
ENDBRANCH  15  18
ENDBRANCH  10  12
ENDBRANCH   7  10
TORSDOF 6
ENDMDL
MODEL 6
REMARK VINA RESULT:      -5.8     18.885     22.059
REMARK  Name = 56775701
REMARK  6 active torsions:
REMARK  status: ('A' for Active; 'I' for Inactive)
REMARK    1  A    between atoms: N_4  and  C_7
REMARK    2  A    between atoms: N_4  and  C_11
REMARK    3  A    between atoms: C_7  and  C_10
REMARK    4  A    between atoms: C_10  and  C_12
REMARK    5  A    between atoms: C_11  and  C_13
REMARK    6  A    between atoms: C_15  and  C_18
REMARK                            x       y       z     vdW  Elec       q    Type
REMARK                         _______ _______ _______ _____ _____    ______ ____
ROOT
ATOM      2  O   UNL     1      13.296   7.414   3.462  0.00  0.00    -0.376 OA
ATOM      7  C   UNL     1      11.410   6.436   3.257  0.00  0.00    +0.072 C 
ATOM      8  C   UNL     1      12.814   6.299   2.677  0.00  0.00    +0.184 C 
ATOM      9  C   UNL     1      11.968   7.658   3.979  0.00  0.00    +0.184 C 
ENDROOT
BRANCH   7   4
ATOM      4  N   UNL     1      11.198   5.366   4.235  0.00  0.00    -0.302 NA
ATOM     26  H   UNL     1      11.821   5.388   5.041  0.00  0.00    +0.123 HD
BRANCH   4  11
ATOM     11  C   UNL     1       9.806   5.397   4.685  0.00  0.00    +0.120 C 
BRANCH  11  13
ATOM      1  F   UNL     1      10.003   3.058   6.259  0.00  0.00    -0.205 F 
ATOM     13  C   UNL     1       9.690   5.410   6.173  0.00  0.00    +0.002 A 
ATOM     16  C   UNL     1       9.796   4.220   6.893  0.00  0.00    +0.128 A 
ATOM     17  C   UNL     1       9.475   6.614   6.842  0.00  0.00    +0.008 A 
ATOM     19  C   UNL     1       9.687   4.237   8.284  0.00  0.00    +0.038 A 
ATOM     20  C   UNL     1       9.365   6.630   8.232  0.00  0.00    +0.000 A 
ATOM     21  C   UNL     1       9.472   5.441   8.953  0.00  0.00    +0.003 A 
ENDBRANCH  11  13
ENDBRANCH   4  11
ENDBRANCH   7   4
BRANCH   7  10
ATOM     10  C   UNL     1      10.253   6.609   2.321  0.00  0.00    +0.085 C 
BRANCH  10  12
ATOM      3  O   UNL     1      10.386   3.785   0.070  0.00  0.00    -0.353 OA
ATOM      5  N   UNL     1      10.229   4.346   1.331  0.00  0.00    -0.083 NA
ATOM     12  C   UNL     1      10.366   5.662   1.144  0.00  0.00    +0.086 A 
ATOM     14  C   UNL     1      10.608   5.987  -0.201  0.00  0.00    +0.077 A 
ATOM     15  C   UNL     1      10.611   4.773  -0.835  0.00  0.00    +0.186 A 
BRANCH  15  18
ATOM      6  N   UNL     1      10.166   5.111  -3.113  0.00  0.00    -0.252 NA
ATOM     18  C   UNL     1      10.793   4.345  -2.191  0.00  0.00    +0.109 A 
ATOM     22  C   UNL     1      11.558   3.231  -2.499  0.00  0.00    +0.031 A 
ATOM     23  C   UNL     1      11.687   2.882  -3.839  0.00  0.00    +0.004 A 
ATOM     24  C   UNL     1      10.314   4.740  -4.404  0.00  0.00    +0.111 A 
ATOM     25  C   UNL     1      11.057   3.644  -4.815  0.00  0.00    +0.020 A 
ENDBRANCH  15  18
ENDBRANCH  10  12
ENDBRANCH   7  10
TORSDOF 6
ENDMDL
MODEL 7
REMARK VINA RESULT:      -5.8     30.729     34.400
REMARK  Name = 56775701
REMARK  6 active torsions:
REMARK  status: ('A' for Active; 'I' for Inactive)
REMARK    1  A    between atoms: N_4  and  C_7
REMARK    2  A    between atoms: N_4  and  C_11
REMARK    3  A    between atoms: C_7  and  C_10
REMARK    4  A    between atoms: C_10  and  C_12
REMARK    5  A    between atoms: C_11  and  C_13
REMARK    6  A    between atoms: C_15  and  C_18
REMARK                            x       y       z     vdW  Elec       q    Type
REMARK                         _______ _______ _______ _____ _____    ______ ____
ROOT
ATOM      2  O   UNL     1     -10.857 -11.858  16.027  0.00  0.00    -0.376 OA
ATOM      7  C   UNL     1     -10.130  -9.938  16.610  0.00  0.00    +0.072 C 
ATOM      8  C   UNL     1     -10.253 -11.325  17.229  0.00  0.00    +0.184 C 
ATOM      9  C   UNL     1     -10.856 -10.548  15.416  0.00  0.00    +0.184 C 
ENDROOT
BRANCH   7   4
ATOM      4  N   UNL     1      -8.730  -9.708  16.243  0.00  0.00    -0.302 NA
ATOM     26  H   UNL     1      -8.588  -9.131  15.415  0.00  0.00    +0.123 HD
BRANCH   4  11
ATOM     11  C   UNL     1      -8.026  -9.120  17.383  0.00  0.00    +0.120 C 
BRANCH  11  13
ATOM      1  F   UNL     1      -5.712  -9.353  15.777  0.00  0.00    -0.205 F 
ATOM     13  C   UNL     1      -6.835  -9.921  17.790  0.00  0.00    +0.002 A 
ATOM     16  C   UNL     1      -5.723  -9.998  16.952  0.00  0.00    +0.128 A 
ATOM     17  C   UNL     1      -6.836 -10.595  19.011  0.00  0.00    +0.008 A 
ATOM     19  C   UNL     1      -4.611 -10.747  17.337  0.00  0.00    +0.038 A 
ATOM     20  C   UNL     1      -5.725 -11.345  19.395  0.00  0.00    +0.000 A 
ATOM     21  C   UNL     1      -4.612 -11.421  18.558  0.00  0.00    +0.003 A 
ENDBRANCH  11  13
ENDBRANCH   4  11
ENDBRANCH   7   4
BRANCH   7  10
ATOM     10  C   UNL     1     -10.747  -8.770  17.317  0.00  0.00    +0.085 C 
BRANCH  10  12
ATOM      3  O   UNL     1     -10.795  -5.978  15.023  0.00  0.00    -0.353 OA
ATOM      5  N   UNL     1     -10.142  -6.849  15.887  0.00  0.00    -0.083 NA
ATOM     12  C   UNL     1     -11.096  -7.670  16.336  0.00  0.00    +0.086 A 
ATOM     14  C   UNL     1     -12.358  -7.368  15.796  0.00  0.00    +0.077 A 
ATOM     15  C   UNL     1     -12.114  -6.297  14.977  0.00  0.00    +0.186 A 
BRANCH  15  18
ATOM      6  N   UNL     1     -14.249  -5.732  14.188  0.00  0.00    -0.252 NA
ATOM     18  C   UNL     1     -12.922  -5.480  14.120  0.00  0.00    +0.109 A 
ATOM     22  C   UNL     1     -12.357  -4.517  13.299  0.00  0.00    +0.031 A 
ATOM     23  C   UNL     1     -13.208  -3.765  12.498  0.00  0.00    +0.004 A 
ATOM     24  C   UNL     1     -15.045  -4.981  13.394  0.00  0.00    +0.111 A 
ATOM     25  C   UNL     1     -14.578  -3.994  12.540  0.00  0.00    +0.020 A 
ENDBRANCH  15  18
ENDBRANCH  10  12
ENDBRANCH   7  10
TORSDOF 6
ENDMDL
MODEL 8
REMARK VINA RESULT:      -5.8     29.289     32.092
REMARK  Name = 56775701
REMARK  6 active torsions:
REMARK  status: ('A' for Active; 'I' for Inactive)
REMARK    1  A    between atoms: N_4  and  C_7
REMARK    2  A    between atoms: N_4  and  C_11
REMARK    3  A    between atoms: C_7  and  C_10
REMARK    4  A    between atoms: C_10  and  C_12
REMARK    5  A    between atoms: C_11  and  C_13
REMARK    6  A    between atoms: C_15  and  C_18
REMARK                            x       y       z     vdW  Elec       q    Type
REMARK                         _______ _______ _______ _____ _____    ______ ____
ROOT
ATOM      2  O   UNL     1      -5.864 -13.867  17.240  0.00  0.00    -0.376 OA
ATOM      7  C   UNL     1      -4.788 -12.040  16.992  0.00  0.00    +0.072 C 
ATOM      8  C   UNL     1      -4.764 -13.237  17.936  0.00  0.00    +0.184 C 
ATOM      9  C   UNL     1      -6.002 -12.720  16.370  0.00  0.00    +0.184 C 
ENDROOT
BRANCH   7   4
ATOM      4  N   UNL     1      -3.660 -12.150  16.064  0.00  0.00    -0.302 NA
ATOM     26  H   UNL     1      -3.829 -12.731  15.244  0.00  0.00    +0.123 HD
BRANCH   4  11
ATOM     11  C   UNL     1      -3.252 -10.808  15.644  0.00  0.00    +0.120 C 
BRANCH  11  13
ATOM      1  F   UNL     1      -5.557 -10.381  14.067  0.00  0.00    -0.205 F 
ATOM     13  C   UNL     1      -3.202 -10.668  14.160  0.00  0.00    +0.002 A 
ATOM     16  C   UNL     1      -4.377 -10.459  13.437  0.00  0.00    +0.128 A 
ATOM     17  C   UNL     1      -1.979 -10.747  13.496  0.00  0.00    +0.008 A 
ATOM     19  C   UNL     1      -4.326 -10.327  12.049  0.00  0.00    +0.038 A 
ATOM     20  C   UNL     1      -1.929 -10.616  12.108  0.00  0.00    +0.000 A 
ATOM     21  C   UNL     1      -3.103 -10.406  11.385  0.00  0.00    +0.003 A 
ENDBRANCH  11  13
ENDBRANCH   4  11
ENDBRANCH   7   4
BRANCH   7  10
ATOM     10  C   UNL     1      -4.939 -10.666  17.568  0.00  0.00    +0.085 C 
BRANCH  10  12
ATOM      3  O   UNL     1      -8.411 -10.242  18.477  0.00  0.00    -0.353 OA
ATOM      5  N   UNL     1      -7.146 -10.784  18.671  0.00  0.00    -0.083 NA
ATOM     12  C   UNL     1      -6.402 -10.286  17.679  0.00  0.00    +0.086 A 
ATOM     14  C   UNL     1      -7.136  -9.434  16.836  0.00  0.00    +0.077 A 
ATOM     15  C   UNL     1      -8.392  -9.440  17.382  0.00  0.00    +0.186 A 
BRANCH  15  18
ATOM      6  N   UNL     1      -9.534  -7.793  16.163  0.00  0.00    -0.252 NA
ATOM     18  C   UNL     1      -9.635  -8.804  17.055  0.00  0.00    +0.109 A 
ATOM     22  C   UNL     1     -10.828  -9.219  17.625  0.00  0.00    +0.031 A 
ATOM     23  C   UNL     1     -11.991  -8.552  17.254  0.00  0.00    +0.004 A 
ATOM     24  C   UNL     1     -10.685  -7.169  15.828  0.00  0.00    +0.111 A 
ATOM     25  C   UNL     1     -11.927  -7.507  16.340  0.00  0.00    +0.020 A 
ENDBRANCH  15  18
ENDBRANCH  10  12
ENDBRANCH   7  10
TORSDOF 6
ENDMDL
MODEL 9
REMARK VINA RESULT:      -5.7     19.031     22.301
REMARK  Name = 56775701
REMARK  6 active torsions:
REMARK  status: ('A' for Active; 'I' for Inactive)
REMARK    1  A    between atoms: N_4  and  C_7
REMARK    2  A    between atoms: N_4  and  C_11
REMARK    3  A    between atoms: C_7  and  C_10
REMARK    4  A    between atoms: C_10  and  C_12
REMARK    5  A    between atoms: C_11  and  C_13
REMARK    6  A    between atoms: C_15  and  C_18
REMARK                            x       y       z     vdW  Elec       q    Type
REMARK                         _______ _______ _______ _____ _____    ______ ____
ROOT
ATOM      2  O   UNL     1      13.114   7.701   0.673  0.00  0.00    -0.376 OA
ATOM      7  C   UNL     1      11.744   6.073   0.849  0.00  0.00    +0.072 C 
ATOM      8  C   UNL     1      12.093   7.138  -0.184  0.00  0.00    +0.184 C 
ATOM      9  C   UNL     1      12.769   6.778   1.731  0.00  0.00    +0.184 C 
ENDROOT
BRANCH   7   4
ATOM      4  N   UNL     1      12.302   4.791   0.411  0.00  0.00    -0.302 NA
ATOM     26  H   UNL     1      12.835   4.287   1.118  0.00  0.00    +0.123 HD
BRANCH   4  11
ATOM     11  C   UNL     1      11.220   3.943  -0.091  0.00  0.00    +0.120 C 
BRANCH  11  13
ATOM      1  F   UNL     1       9.515   5.152  -1.992  0.00  0.00    -0.205 F 
ATOM     13  C   UNL     1      11.332   3.687  -1.556  0.00  0.00    +0.002 A 
ATOM     16  C   UNL     1      10.458   4.315  -2.444  0.00  0.00    +0.128 A 
ATOM     17  C   UNL     1      12.311   2.818  -2.037  0.00  0.00    +0.008 A 
ATOM     19  C   UNL     1      10.566   4.074  -3.814  0.00  0.00    +0.038 A 
ATOM     20  C   UNL     1      12.417   2.577  -3.406  0.00  0.00    +0.000 A 
ATOM     21  C   UNL     1      11.545   3.205  -4.295  0.00  0.00    +0.003 A 
ENDBRANCH  11  13
ENDBRANCH   4  11
ENDBRANCH   7   4
BRANCH   7  10
ATOM     10  C   UNL     1      10.329   5.961   1.326  0.00  0.00    +0.085 C 
BRANCH  10  12
ATOM      3  O   UNL     1      10.543   4.271   4.513  0.00  0.00    -0.353 OA
ATOM      5  N   UNL     1      10.729   4.330   3.137  0.00  0.00    -0.083 NA
ATOM     12  C   UNL     1      10.282   5.538   2.779  0.00  0.00    +0.086 A 
ATOM     14  C   UNL     1       9.806   6.277   3.876  0.00  0.00    +0.077 A 
ATOM     15  C   UNL     1       9.992   5.436   4.941  0.00  0.00    +0.186 A 
BRANCH  15  18
ATOM      6  N   UNL     1       9.293   6.729   6.768  0.00  0.00    -0.252 NA
ATOM     18  C   UNL     1       9.741   5.525   6.350  0.00  0.00    +0.109 A 
ATOM     22  C   UNL     1       9.951   4.441   7.189  0.00  0.00    +0.031 A 
ATOM     23  C   UNL     1       9.683   4.607   8.543  0.00  0.00    +0.004 A 
ATOM     24  C   UNL     1       9.044   6.852   8.091  0.00  0.00    +0.111 A 
ATOM     25  C   UNL     1       9.220   5.831   9.011  0.00  0.00    +0.020 A 
ENDBRANCH  15  18
ENDBRANCH  10  12
ENDBRANCH   7  10
TORSDOF 6
ENDMDL
MODEL 10
REMARK VINA RESULT:      -5.6      2.728      3.862
REMARK  Name = 56775701
REMARK  6 active torsions:
REMARK  status: ('A' for Active; 'I' for Inactive)
REMARK    1  A    between atoms: N_4  and  C_7
REMARK    2  A    between atoms: N_4  and  C_11
REMARK    3  A    between atoms: C_7  and  C_10
REMARK    4  A    between atoms: C_10  and  C_12
REMARK    5  A    between atoms: C_11  and  C_13
REMARK    6  A    between atoms: C_15  and  C_18
REMARK                            x       y       z     vdW  Elec       q    Type
REMARK                         _______ _______ _______ _____ _____    ______ ____
ROOT
ATOM      2  O   UNL     1      19.828   8.224  27.198  0.00  0.00    -0.376 OA
ATOM      7  C   UNL     1      20.931   7.258  25.647  0.00  0.00    +0.072 C 
ATOM      8  C   UNL     1      20.319   6.880  26.991  0.00  0.00    +0.184 C 
ATOM      9  C   UNL     1      20.465   8.672  25.979  0.00  0.00    +0.184 C 
ENDROOT
BRANCH   7   4
ATOM      4  N   UNL     1      20.085   6.723  24.576  0.00  0.00    -0.302 NA
ATOM     26  H   UNL     1      19.083   6.751  24.761  0.00  0.00    +0.123 HD
BRANCH   4  11
ATOM     11  C   UNL     1      20.378   7.436  23.332  0.00  0.00    +0.120 C 
BRANCH  11  13
ATOM      1  F   UNL     1      17.991   7.976  21.920  0.00  0.00    -0.205 F 
ATOM     13  C   UNL     1      19.960   6.666  22.125  0.00  0.00    +0.002 A 
ATOM     16  C   UNL     1      18.768   6.981  21.471  0.00  0.00    +0.128 A 
ATOM     17  C   UNL     1      20.763   5.629  21.650  0.00  0.00    +0.008 A 
ATOM     19  C   UNL     1      18.381   6.259  20.342  0.00  0.00    +0.038 A 
ATOM     20  C   UNL     1      20.374   4.907  20.521  0.00  0.00    +0.000 A 
ATOM     21  C   UNL     1      19.184   5.223  19.867  0.00  0.00    +0.003 A 
ENDBRANCH  11  13
ENDBRANCH   4  11
ENDBRANCH   7   4
BRANCH   7  10
ATOM     10  C   UNL     1      22.390   7.009  25.418  0.00  0.00    +0.085 C 
BRANCH  10  12
ATOM      3  O   UNL     1      22.481   3.431  24.920  0.00  0.00    -0.353 OA
ATOM      5  N   UNL     1      22.066   4.567  25.604  0.00  0.00    -0.083 NA
ATOM     12  C   UNL     1      22.626   5.588  24.948  0.00  0.00    +0.086 A 
ATOM     14  C   UNL     1      23.398   5.161  23.854  0.00  0.00    +0.077 A 
ATOM     15  C   UNL     1      23.274   3.797  23.880  0.00  0.00    +0.186 A 
BRANCH  15  18
ATOM      6  N   UNL     1      24.449   1.771  23.763  0.00  0.00    -0.252 NA
ATOM     18  C   UNL     1      23.781   2.724  23.076  0.00  0.00    +0.109 A 
ATOM     22  C   UNL     1      23.582   2.696  21.704  0.00  0.00    +0.031 A 
ATOM     23  C   UNL     1      24.104   1.620  20.994  0.00  0.00    +0.004 A 
ATOM     24  C   UNL     1      24.942   0.742  23.039  0.00  0.00    +0.111 A 
ATOM     25  C   UNL     1      24.797   0.621  21.666  0.00  0.00    +0.020 A 
ENDBRANCH  15  18
ENDBRANCH  10  12
ENDBRANCH   7  10
TORSDOF 6
ENDMDL
