MODEL 1
REMARK VINA RESULT:      -6.2      0.000      0.000
REMARK  Name = 7144230
REMARK  8 active torsions:
REMARK  status: ('A' for Active; 'I' for Inactive)
REMARK    1  A    between atoms: S_1  and  C_22
REMARK    2  A    between atoms: S_1  and  C_28
REMARK    3  A    between atoms: S_2  and  C_27
REMARK    4  A    between atoms: S_2  and  C_30
REMARK    5  A    between atoms: O_5  and  C_29
REMARK    6  A    between atoms: C_16  and  C_21
REMARK    7  A    between atoms: C_18  and  C_22
REMARK    8  A    between atoms: C_28  and  C_29
REMARK                            x       y       z     vdW  Elec       q    Type
REMARK                         _______ _______ _______ _____ _____    ______ ____
ROOT
ATOM      3  O   UNL     1       7.063   9.399   4.849  0.00  0.00    -0.268 OA
ATOM      4  O   UNL     1      11.642   9.668   7.439  0.00  0.00    -0.275 OA
ATOM      7  N   UNL     1      11.338   7.521   6.603  0.00  0.00    -0.300 N 
ATOM      8  N   UNL     1       8.627   7.659   4.942  0.00  0.00    -0.311 N 
ATOM      9  C   UNL     1       9.156   6.448   7.139  0.00  0.00    +0.027 C 
ATOM     10  C   UNL     1      10.342   5.824   5.078  0.00  0.00    +0.054 C 
ATOM     11  C   UNL     1       9.514   5.276   6.239  0.00  0.00    +0.018 C 
ATOM     12  C   UNL     1      10.425   7.131   7.676  0.00  0.00    +0.113 C 
ATOM     13  C   UNL     1       8.276   7.416   6.348  0.00  0.00    +0.130 C 
ATOM     14  C   UNL     1      11.635   6.464   5.627  0.00  0.00    +0.117 C 
ATOM     15  C   UNL     1       9.553   6.847   4.256  0.00  0.00    +0.034 A 
ATOM     16  C   UNL     1       9.735   7.010   2.919  0.00  0.00    +0.002 A 
ATOM     17  C   UNL     1       7.892   8.672   4.301  0.00  0.00    +0.252 A 
ATOM     18  C   UNL     1      11.906   8.796   6.608  0.00  0.00    +0.225 C 
ATOM     19  C   UNL     1       8.996   8.049   2.225  0.00  0.00    +0.015 A 
ATOM     20  C   UNL     1       8.136   8.851   2.853  0.00  0.00    +0.071 A 
ENDROOT
BRANCH  16  21
ATOM     21  C   UNL     1      10.681   6.170   2.153  0.00  0.00    -0.016 A 
ATOM     23  C   UNL     1      10.251   4.962   1.614  0.00  0.00    +0.009 A 
ATOM     24  C   UNL     1      11.995   6.594   1.978  0.00  0.00    +0.009 A 
ATOM     25  C   UNL     1      11.144   4.168   0.893  0.00  0.00    +0.015 A 
ATOM     26  C   UNL     1      12.887   5.802   1.256  0.00  0.00    +0.015 A 
ATOM     27  C   UNL     1      12.462   4.589   0.714  0.00  0.00    +0.008 A 
BRANCH  27   2
ATOM      2  S   UNL     1      13.602   3.576  -0.207  0.00  0.00    -0.129 S 
ATOM     30  C   UNL     1      15.173   3.937   0.626  0.00  0.00    +0.090 C 
ENDBRANCH  27   2
ENDBRANCH  16  21
BRANCH  18  22
ATOM     22  C   UNL     1      12.894   9.099   5.510  0.00  0.00    +0.165 C 
BRANCH  22   1
ATOM      1  S   UNL     1      14.523   9.226   6.261  0.00  0.00    -0.140 S 
BRANCH   1  28
ATOM     28  C   UNL     1      15.114   7.547   5.932  0.00  0.00    +0.189 C 
BRANCH  28  29
ATOM      6  O   UNL     1      15.971   8.390   3.844  0.00  0.00    -0.250 OA
ATOM     29  C   UNL     1      15.555   7.444   4.502  0.00  0.00    +0.315 C 
BRANCH  29   5
ATOM      5  O   UNL     1      15.460   6.182   4.013  0.00  0.00    -0.480 OA
ATOM     31  H   UNL     1      16.018   6.055   3.216  0.00  0.00    +0.295 HD
ENDBRANCH  29   5
ENDBRANCH  28  29
ENDBRANCH   1  28
ENDBRANCH  22   1
ENDBRANCH  18  22
TORSDOF 7
ENDMDL
MODEL 2
REMARK VINA RESULT:      -6.1     13.591     17.467
REMARK  Name = 7144230
REMARK  8 active torsions:
REMARK  status: ('A' for Active; 'I' for Inactive)
REMARK    1  A    between atoms: S_1  and  C_22
REMARK    2  A    between atoms: S_1  and  C_28
REMARK    3  A    between atoms: S_2  and  C_27
REMARK    4  A    between atoms: S_2  and  C_30
REMARK    5  A    between atoms: O_5  and  C_29
REMARK    6  A    between atoms: C_16  and  C_21
REMARK    7  A    between atoms: C_18  and  C_22
REMARK    8  A    between atoms: C_28  and  C_29
REMARK                            x       y       z     vdW  Elec       q    Type
REMARK                         _______ _______ _______ _____ _____    ______ ____
ROOT
ATOM      3  O   UNL     1      16.461   8.017  21.515  0.00  0.00    -0.268 OA
ATOM      4  O   UNL     1      13.429   7.325  17.264  0.00  0.00    -0.275 OA
ATOM      7  N   UNL     1      12.132   8.083  19.037  0.00  0.00    -0.300 N 
ATOM      8  N   UNL     1      14.195   8.597  21.406  0.00  0.00    -0.311 N 
ATOM      9  C   UNL     1      12.365   6.816  21.168  0.00  0.00    +0.027 C 
ATOM     10  C   UNL     1      11.759   9.197  21.232  0.00  0.00    +0.054 C 
ATOM     11  C   UNL     1      11.483   7.836  21.869  0.00  0.00    +0.018 C 
ATOM     12  C   UNL     1      12.052   6.764  19.664  0.00  0.00    +0.113 C 
ATOM     13  C   UNL     1      13.828   7.174  21.436  0.00  0.00    +0.130 C 
ATOM     14  C   UNL     1      11.395   9.145  19.732  0.00  0.00    +0.117 C 
ATOM     15  C   UNL     1      13.221   9.616  21.406  0.00  0.00    +0.034 A 
ATOM     16  C   UNL     1      13.602  10.914  21.532  0.00  0.00    +0.002 A 
ATOM     17  C   UNL     1      15.572   8.868  21.498  0.00  0.00    +0.252 A 
ATOM     18  C   UNL     1      12.816   8.233  17.831  0.00  0.00    +0.225 C 
ATOM     19  C   UNL     1      15.015  11.232  21.626  0.00  0.00    +0.015 A 
ATOM     20  C   UNL     1      15.960  10.292  21.597  0.00  0.00    +0.071 A 
ENDROOT
BRANCH  16  21
ATOM     21  C   UNL     1      12.616  12.017  21.557  0.00  0.00    -0.016 A 
ATOM     23  C   UNL     1      12.466  12.833  20.440  0.00  0.00    +0.009 A 
ATOM     24  C   UNL     1      11.847  12.229  22.696  0.00  0.00    +0.009 A 
ATOM     25  C   UNL     1      11.536  13.874  20.463  0.00  0.00    +0.015 A 
ATOM     26  C   UNL     1      10.917  13.269  22.719  0.00  0.00    +0.015 A 
ATOM     27  C   UNL     1      10.762  14.091  21.603  0.00  0.00    +0.008 A 
BRANCH  27   2
ATOM      2  S   UNL     1       9.576  15.420  21.634  0.00  0.00    -0.129 S 
ATOM     30  C   UNL     1       8.558  14.974  23.068  0.00  0.00    +0.090 C 
ENDBRANCH  27   2
ENDBRANCH  16  21
BRANCH  18  22
ATOM     22  C   UNL     1      12.793   9.607  17.208  0.00  0.00    +0.165 C 
BRANCH  22   1
ATOM      1  S   UNL     1      14.434  10.319  17.393  0.00  0.00    -0.140 S 
BRANCH   1  28
ATOM     28  C   UNL     1      14.549  11.172  15.801  0.00  0.00    +0.189 C 
BRANCH  28  29
ATOM      6  O   UNL     1      15.043   9.230  14.464  0.00  0.00    -0.250 OA
ATOM     29  C   UNL     1      15.365  10.347  14.850  0.00  0.00    +0.315 C 
BRANCH  29   5
ATOM      5  O   UNL     1      16.495  10.978  14.444  0.00  0.00    -0.480 OA
ATOM     31  H   UNL     1      16.888  10.553  13.651  0.00  0.00    +0.295 HD
ENDBRANCH  29   5
ENDBRANCH  28  29
ENDBRANCH   1  28
ENDBRANCH  22   1
ENDBRANCH  18  22
TORSDOF 7
ENDMDL
MODEL 3
REMARK VINA RESULT:      -5.9     23.807     26.000
REMARK  Name = 7144230
REMARK  8 active torsions:
REMARK  status: ('A' for Active; 'I' for Inactive)
REMARK    1  A    between atoms: S_1  and  C_22
REMARK    2  A    between atoms: S_1  and  C_28
REMARK    3  A    between atoms: S_2  and  C_27
REMARK    4  A    between atoms: S_2  and  C_30
REMARK    5  A    between atoms: O_5  and  C_29
REMARK    6  A    between atoms: C_16  and  C_21
REMARK    7  A    between atoms: C_18  and  C_22
REMARK    8  A    between atoms: C_28  and  C_29
REMARK                            x       y       z     vdW  Elec       q    Type
REMARK                         _______ _______ _______ _____ _____    ______ ____
ROOT
ATOM      3  O   UNL     1      -1.499 -10.483  15.779  0.00  0.00    -0.268 OA
ATOM      4  O   UNL     1      -4.376 -14.869  15.297  0.00  0.00    -0.275 OA
ATOM      7  N   UNL     1      -5.454 -13.103  14.238  0.00  0.00    -0.300 N 
ATOM      8  N   UNL     1      -3.457 -10.640  14.503  0.00  0.00    -0.311 N 
ATOM      9  C   UNL     1      -5.742 -11.037  15.597  0.00  0.00    +0.027 C 
ATOM     10  C   UNL     1      -5.565 -10.866  13.152  0.00  0.00    +0.054 C 
ATOM     11  C   UNL     1      -6.290 -10.313  14.378  0.00  0.00    +0.018 C 
ATOM     12  C   UNL     1      -5.980 -12.552  15.486  0.00  0.00    +0.113 C 
ATOM     13  C   UNL     1      -4.256 -10.700  15.735  0.00  0.00    +0.130 C 
ATOM     14  C   UNL     1      -5.852 -12.378  13.024  0.00  0.00    +0.117 C 
ATOM     15  C   UNL     1      -4.056 -10.618  13.228  0.00  0.00    +0.034 A 
ATOM     16  C   UNL     1      -3.291 -10.409  12.125  0.00  0.00    +0.002 A 
ATOM     17  C   UNL     1      -2.072 -10.486  14.689  0.00  0.00    +0.252 A 
ATOM     18  C   UNL     1      -4.698 -14.276  14.264  0.00  0.00    +0.225 C 
ATOM     19  C   UNL     1      -1.857 -10.249  12.278  0.00  0.00    +0.015 A 
ATOM     20  C   UNL     1      -1.258 -10.296  13.468  0.00  0.00    +0.071 A 
ENDROOT
BRANCH  16  21
ATOM     21  C   UNL     1      -3.877 -10.360  10.768  0.00  0.00    -0.016 A 
ATOM     23  C   UNL     1      -3.968 -11.524  10.012  0.00  0.00    +0.009 A 
ATOM     24  C   UNL     1      -4.333  -9.149  10.257  0.00  0.00    +0.009 A 
ATOM     25  C   UNL     1      -4.520 -11.477   8.731  0.00  0.00    +0.015 A 
ATOM     26  C   UNL     1      -4.886  -9.102   8.977  0.00  0.00    +0.015 A 
ATOM     27  C   UNL     1      -4.979 -10.266   8.214  0.00  0.00    +0.008 A 
BRANCH  27   2
ATOM      2  S   UNL     1      -5.683 -10.206   6.578  0.00  0.00    -0.129 S 
ATOM     30  C   UNL     1      -4.758 -11.517   5.730  0.00  0.00    +0.090 C 
ENDBRANCH  27   2
ENDBRANCH  16  21
BRANCH  18  22
ATOM     22  C   UNL     1      -4.254 -14.823  12.931  0.00  0.00    +0.165 C 
BRANCH  22   1
ATOM      1  S   UNL     1      -2.636 -14.127  12.565  0.00  0.00    -0.140 S 
BRANCH   1  28
ATOM     28  C   UNL     1      -1.719 -15.667  12.316  0.00  0.00    +0.189 C 
BRANCH  28  29
ATOM      6  O   UNL     1      -0.612 -16.458  14.304  0.00  0.00    -0.250 OA
ATOM     29  C   UNL     1      -0.597 -15.746  13.309  0.00  0.00    +0.315 C 
BRANCH  29   5
ATOM      5  O   UNL     1       0.453 -14.952  12.977  0.00  0.00    -0.480 OA
ATOM     31  H   UNL     1       0.988 -14.706  13.762  0.00  0.00    +0.295 HD
ENDBRANCH  29   5
ENDBRANCH  28  29
ENDBRANCH   1  28
ENDBRANCH  22   1
ENDBRANCH  18  22
TORSDOF 7
ENDMDL
MODEL 4
REMARK VINA RESULT:      -5.8      2.637      4.565
REMARK  Name = 7144230
REMARK  8 active torsions:
REMARK  status: ('A' for Active; 'I' for Inactive)
REMARK    1  A    between atoms: S_1  and  C_22
REMARK    2  A    between atoms: S_1  and  C_28
REMARK    3  A    between atoms: S_2  and  C_27
REMARK    4  A    between atoms: S_2  and  C_30
REMARK    5  A    between atoms: O_5  and  C_29
REMARK    6  A    between atoms: C_16  and  C_21
REMARK    7  A    between atoms: C_18  and  C_22
REMARK    8  A    between atoms: C_28  and  C_29
REMARK                            x       y       z     vdW  Elec       q    Type
REMARK                         _______ _______ _______ _____ _____    ______ ____
ROOT
ATOM      3  O   UNL     1      11.052   6.208   7.918  0.00  0.00    -0.268 OA
ATOM      4  O   UNL     1      10.883  10.827   5.391  0.00  0.00    -0.275 OA
ATOM      7  N   UNL     1      12.214   9.334   4.208  0.00  0.00    -0.300 N 
ATOM      8  N   UNL     1      12.012   6.596   5.817  0.00  0.00    -0.311 N 
ATOM      9  C   UNL     1      13.995   8.194   5.523  0.00  0.00    +0.027 C 
ATOM     10  C   UNL     1      13.024   7.070   3.565  0.00  0.00    +0.054 C 
ATOM     11  C   UNL     1      14.328   7.329   4.319  0.00  0.00    +0.018 C 
ATOM     12  C   UNL     1      13.371   9.528   5.082  0.00  0.00    +0.113 C 
ATOM     13  C   UNL     1      13.065   7.405   6.446  0.00  0.00    +0.130 C 
ATOM     14  C   UNL     1      12.433   8.414   3.085  0.00  0.00    +0.117 C 
ATOM     15  C   UNL     1      12.007   6.325   4.434  0.00  0.00    +0.034 A 
ATOM     16  C   UNL     1      11.104   5.450   3.919  0.00  0.00    +0.002 A 
ATOM     17  C   UNL     1      11.084   6.017   6.702  0.00  0.00    +0.252 A 
ATOM     18  C   UNL     1      11.044  10.058   4.440  0.00  0.00    +0.225 C 
ATOM     19  C   UNL     1      10.130   4.836   4.802  0.00  0.00    +0.015 A 
ATOM     20  C   UNL     1      10.090   5.097   6.109  0.00  0.00    +0.071 A 
ENDROOT
BRANCH  16  21
ATOM     21  C   UNL     1      11.073   5.120   2.477  0.00  0.00    -0.016 A 
ATOM     23  C   UNL     1      10.191   5.789   1.635  0.00  0.00    +0.009 A 
ATOM     24  C   UNL     1      11.927   4.143   1.975  0.00  0.00    +0.009 A 
ATOM     25  C   UNL     1      10.161   5.477   0.275  0.00  0.00    +0.015 A 
ATOM     26  C   UNL     1      11.897   3.831   0.615  0.00  0.00    +0.015 A 
ATOM     27  C   UNL     1      11.015   4.498  -0.234  0.00  0.00    +0.008 A 
BRANCH  27   2
ATOM      2  S   UNL     1      10.976   4.099  -1.970  0.00  0.00    -0.129 S 
ATOM     30  C   UNL     1      12.052   2.640  -2.038  0.00  0.00    +0.090 C 
ENDBRANCH  27   2
ENDBRANCH  16  21
BRANCH  18  22
ATOM     22  C   UNL     1       9.920   9.859   3.454  0.00  0.00    +0.165 C 
BRANCH  22   1
ATOM      1  S   UNL     1       8.373   9.921   4.369  0.00  0.00    -0.140 S 
BRANCH   1  28
ATOM     28  C   UNL     1       8.409   8.262   5.091  0.00  0.00    +0.189 C 
BRANCH  28  29
ATOM      6  O   UNL     1       7.918   7.527   7.333  0.00  0.00    -0.250 OA
ATOM     29  C   UNL     1       8.403   8.369   6.588  0.00  0.00    +0.315 C 
BRANCH  29   5
ATOM      5  O   UNL     1       9.010   9.497   7.035  0.00  0.00    -0.480 OA
ATOM     31  H   UNL     1       8.363  10.207   7.237  0.00  0.00    +0.295 HD
ENDBRANCH  29   5
ENDBRANCH  28  29
ENDBRANCH   1  28
ENDBRANCH  22   1
ENDBRANCH  18  22
TORSDOF 7
ENDMDL
MODEL 5
REMARK VINA RESULT:      -5.7     12.879     16.759
REMARK  Name = 7144230
REMARK  8 active torsions:
REMARK  status: ('A' for Active; 'I' for Inactive)
REMARK    1  A    between atoms: S_1  and  C_22
REMARK    2  A    between atoms: S_1  and  C_28
REMARK    3  A    between atoms: S_2  and  C_27
REMARK    4  A    between atoms: S_2  and  C_30
REMARK    5  A    between atoms: O_5  and  C_29
REMARK    6  A    between atoms: C_16  and  C_21
REMARK    7  A    between atoms: C_18  and  C_22
REMARK    8  A    between atoms: C_28  and  C_29
REMARK                            x       y       z     vdW  Elec       q    Type
REMARK                         _______ _______ _______ _____ _____    ______ ____
ROOT
ATOM      3  O   UNL     1      15.976   5.918  18.845  0.00  0.00    -0.268 OA
ATOM      4  O   UNL     1      14.372   9.399  15.232  0.00  0.00    -0.275 OA
ATOM      7  N   UNL     1      13.209   9.734  17.215  0.00  0.00    -0.300 N 
ATOM      8  N   UNL     1      14.471   7.660  19.272  0.00  0.00    -0.311 N 
ATOM      9  C   UNL     1      12.142   7.712  18.202  0.00  0.00    +0.027 C 
ATOM     10  C   UNL     1      12.857   9.546  19.672  0.00  0.00    +0.054 C 
ATOM     11  C   UNL     1      11.753   8.518  19.430  0.00  0.00    +0.018 C 
ATOM     12  C   UNL     1      12.288   8.624  16.973  0.00  0.00    +0.113 C 
ATOM     13  C   UNL     1      13.434   6.953  18.507  0.00  0.00    +0.130 C 
ATOM     14  C   UNL     1      12.960  10.486  18.452  0.00  0.00    +0.117 C 
ATOM     15  C   UNL     1      14.207   8.874  19.938  0.00  0.00    +0.034 A 
ATOM     16  C   UNL     1      15.147   9.414  20.757  0.00  0.00    +0.002 A 
ATOM     17  C   UNL     1      15.699   6.985  19.393  0.00  0.00    +0.252 A 
ATOM     18  C   UNL     1      14.182  10.045  16.265  0.00  0.00    +0.225 C 
ATOM     19  C   UNL     1      16.427   8.748  20.903  0.00  0.00    +0.015 A 
ATOM     20  C   UNL     1      16.717   7.615  20.262  0.00  0.00    +0.071 A 
ENDROOT
BRANCH  16  21
ATOM     21  C   UNL     1      14.908  10.676  21.491  0.00  0.00    -0.016 A 
ATOM     23  C   UNL     1      14.237  10.649  22.710  0.00  0.00    +0.009 A 
ATOM     24  C   UNL     1      15.355  11.880  20.957  0.00  0.00    +0.009 A 
ATOM     25  C   UNL     1      14.011  11.840  23.402  0.00  0.00    +0.015 A 
ATOM     26  C   UNL     1      15.129  13.070  21.649  0.00  0.00    +0.015 A 
ATOM     27  C   UNL     1      14.457  13.050  22.871  0.00  0.00    +0.008 A 
BRANCH  27   2
ATOM      2  S   UNL     1      14.167  14.570  23.754  0.00  0.00    -0.129 S 
ATOM     30  C   UNL     1      15.387  14.458  25.093  0.00  0.00    +0.090 C 
ENDBRANCH  27   2
ENDBRANCH  16  21
BRANCH  18  22
ATOM     22  C   UNL     1      15.046  11.247  16.552  0.00  0.00    +0.165 C 
BRANCH  22   1
ATOM      1  S   UNL     1      16.167  11.459  15.161  0.00  0.00    -0.140 S 
BRANCH   1  28
ATOM     28  C   UNL     1      15.141  12.546  14.139  0.00  0.00    +0.189 C 
BRANCH  28  29
ATOM      6  O   UNL     1      13.996  12.273  12.037  0.00  0.00    -0.250 OA
ATOM     29  C   UNL     1      14.806  11.851  12.853  0.00  0.00    +0.315 C 
BRANCH  29   5
ATOM      5  O   UNL     1      15.510  10.704  12.677  0.00  0.00    -0.480 OA
ATOM     31  H   UNL     1      15.380  10.077  13.420  0.00  0.00    +0.295 HD
ENDBRANCH  29   5
ENDBRANCH  28  29
ENDBRANCH   1  28
ENDBRANCH  22   1
ENDBRANCH  18  22
TORSDOF 7
ENDMDL
MODEL 6
REMARK VINA RESULT:      -5.6     24.691     26.868
REMARK  Name = 7144230
REMARK  8 active torsions:
REMARK  status: ('A' for Active; 'I' for Inactive)
REMARK    1  A    between atoms: S_1  and  C_22
REMARK    2  A    between atoms: S_1  and  C_28
REMARK    3  A    between atoms: S_2  and  C_27
REMARK    4  A    between atoms: S_2  and  C_30
REMARK    5  A    between atoms: O_5  and  C_29
REMARK    6  A    between atoms: C_16  and  C_21
REMARK    7  A    between atoms: C_18  and  C_22
REMARK    8  A    between atoms: C_28  and  C_29
REMARK                            x       y       z     vdW  Elec       q    Type
REMARK                         _______ _______ _______ _____ _____    ______ ____
ROOT
ATOM      3  O   UNL     1      -1.122 -11.396  15.228  0.00  0.00    -0.268 OA
ATOM      4  O   UNL     1      -5.136 -14.593  16.419  0.00  0.00    -0.275 OA
ATOM      7  N   UNL     1      -5.954 -12.532  15.724  0.00  0.00    -0.300 N 
ATOM      8  N   UNL     1      -3.378 -10.859  14.894  0.00  0.00    -0.311 N 
ATOM      9  C   UNL     1      -4.986 -10.541  16.864  0.00  0.00    +0.027 C 
ATOM     10  C   UNL     1      -5.814 -10.336  14.560  0.00  0.00    +0.054 C 
ATOM     11  C   UNL     1      -5.743  -9.629  15.913  0.00  0.00    +0.018 C 
ATOM     12  C   UNL     1      -5.705 -11.892  17.016  0.00  0.00    +0.113 C 
ATOM     13  C   UNL     1      -3.558 -10.708  16.344  0.00  0.00    +0.130 C 
ATOM     14  C   UNL     1      -6.580 -11.668  14.715  0.00  0.00    +0.117 C 
ATOM     15  C   UNL     1      -4.419 -10.593  13.982  0.00  0.00    +0.034 A 
ATOM     16  C   UNL     1      -4.167 -10.597  12.647  0.00  0.00    +0.002 A 
ATOM     17  C   UNL     1      -2.071 -11.169  14.476  0.00  0.00    +0.252 A 
ATOM     18  C   UNL     1      -5.662 -13.885  15.556  0.00  0.00    +0.225 C 
ATOM     19  C   UNL     1      -2.832 -10.916  12.180  0.00  0.00    +0.015 A 
ATOM     20  C   UNL     1      -1.834 -11.202  13.016  0.00  0.00    +0.071 A 
ENDROOT
BRANCH  16  21
ATOM     21  C   UNL     1      -5.224 -10.305  11.654  0.00  0.00    -0.016 A 
ATOM     23  C   UNL     1      -5.982 -11.346  11.127  0.00  0.00    +0.009 A 
ATOM     24  C   UNL     1      -5.452  -8.992  11.255  0.00  0.00    +0.009 A 
ATOM     25  C   UNL     1      -6.978 -11.070  10.189  0.00  0.00    +0.015 A 
ATOM     26  C   UNL     1      -6.448  -8.717  10.317  0.00  0.00    +0.015 A 
ATOM     27  C   UNL     1      -7.211  -9.756   9.785  0.00  0.00    +0.008 A 
BRANCH  27   2
ATOM      2  S   UNL     1      -8.482  -9.404   8.587  0.00  0.00    -0.129 S 
ATOM     30  C   UNL     1      -9.205  -7.878   9.252  0.00  0.00    +0.090 C 
ENDBRANCH  27   2
ENDBRANCH  16  21
BRANCH  18  22
ATOM     22  C   UNL     1      -6.015 -14.492  14.221  0.00  0.00    +0.165 C 
BRANCH  22   1
ATOM      1  S   UNL     1      -4.777 -15.740  13.843  0.00  0.00    -0.140 S 
BRANCH   1  28
ATOM     28  C   UNL     1      -3.464 -14.655  13.231  0.00  0.00    +0.189 C 
BRANCH  28  29
ATOM      6  O   UNL     1      -1.090 -14.583  13.637  0.00  0.00    -0.250 OA
ATOM     29  C   UNL     1      -2.210 -14.896  14.020  0.00  0.00    +0.315 C 
BRANCH  29   5
ATOM      5  O   UNL     1      -2.450 -15.485  15.219  0.00  0.00    -0.480 OA
ATOM     31  H   UNL     1      -2.227 -14.893  15.969  0.00  0.00    +0.295 HD
ENDBRANCH  29   5
ENDBRANCH  28  29
ENDBRANCH   1  28
ENDBRANCH  22   1
ENDBRANCH  18  22
TORSDOF 7
ENDMDL
MODEL 7
REMARK VINA RESULT:      -5.6      3.864      8.352
REMARK  Name = 7144230
REMARK  8 active torsions:
REMARK  status: ('A' for Active; 'I' for Inactive)
REMARK    1  A    between atoms: S_1  and  C_22
REMARK    2  A    between atoms: S_1  and  C_28
REMARK    3  A    between atoms: S_2  and  C_27
REMARK    4  A    between atoms: S_2  and  C_30
REMARK    5  A    between atoms: O_5  and  C_29
REMARK    6  A    between atoms: C_16  and  C_21
REMARK    7  A    between atoms: C_18  and  C_22
REMARK    8  A    between atoms: C_28  and  C_29
REMARK                            x       y       z     vdW  Elec       q    Type
REMARK                         _______ _______ _______ _____ _____    ______ ____
ROOT
ATOM      3  O   UNL     1      13.460   7.049   6.174  0.00  0.00    -0.268 OA
ATOM      4  O   UNL     1       9.127   7.134   3.178  0.00  0.00    -0.275 OA
ATOM      7  N   UNL     1       8.551   7.486   5.402  0.00  0.00    -0.300 N 
ATOM      8  N   UNL     1      11.320   7.576   6.967  0.00  0.00    -0.311 N 
ATOM      9  C   UNL     1       9.446   5.827   7.029  0.00  0.00    +0.027 C 
ATOM     10  C   UNL     1       9.000   8.130   7.764  0.00  0.00    +0.054 C 
ATOM     11  C   UNL     1       8.901   6.662   8.177  0.00  0.00    +0.018 C 
ATOM     12  C   UNL     1       8.633   6.067   5.746  0.00  0.00    +0.113 C 
ATOM     13  C   UNL     1      10.925   6.165   6.841  0.00  0.00    +0.130 C 
ATOM     14  C   UNL     1       8.142   8.368   6.503  0.00  0.00    +0.117 C 
ATOM     15  C   UNL     1      10.450   8.547   7.503  0.00  0.00    +0.034 A 
ATOM     16  C   UNL     1      10.906   9.804   7.743  0.00  0.00    +0.002 A 
ATOM     17  C   UNL     1      12.655   7.862   6.631  0.00  0.00    +0.252 A 
ATOM     18  C   UNL     1       8.785   7.894   4.088  0.00  0.00    +0.225 C 
ATOM     19  C   UNL     1      12.277  10.137   7.405  0.00  0.00    +0.015 A 
ATOM     20  C   UNL     1      13.114   9.248   6.869  0.00  0.00    +0.071 A 
ENDROOT
BRANCH  16  21
ATOM     21  C   UNL     1      10.036  10.851   8.322  0.00  0.00    -0.016 A 
ATOM     23  C   UNL     1       9.858  10.916   9.700  0.00  0.00    +0.009 A 
ATOM     24  C   UNL     1       9.402  11.763   7.484  0.00  0.00    +0.009 A 
ATOM     25  C   UNL     1       9.036  11.903  10.246  0.00  0.00    +0.015 A 
ATOM     26  C   UNL     1       8.581  12.750   8.030  0.00  0.00    +0.015 A 
ATOM     27  C   UNL     1       8.399  12.819   9.410  0.00  0.00    +0.008 A 
BRANCH  27   2
ATOM      2  S   UNL     1       7.349  14.079  10.108  0.00  0.00    -0.129 S 
ATOM     30  C   UNL     1       5.704  13.523   9.581  0.00  0.00    +0.090 C 
ENDBRANCH  27   2
ENDBRANCH  16  21
BRANCH  18  22
ATOM     22  C   UNL     1       8.609   9.362   3.795  0.00  0.00    +0.165 C 
BRANCH  22   1
ATOM      1  S   UNL     1       7.312   9.522   2.560  0.00  0.00    -0.140 S 
BRANCH   1  28
ATOM     28  C   UNL     1       5.955  10.029   3.645  0.00  0.00    +0.189 C 
BRANCH  28  29
ATOM      6  O   UNL     1       4.608  11.755   2.637  0.00  0.00    -0.250 OA
ATOM     29  C   UNL     1       4.824  10.563   2.814  0.00  0.00    +0.315 C 
BRANCH  29   5
ATOM      5  O   UNL     1       4.071   9.579   2.260  0.00  0.00    -0.480 OA
ATOM     31  H   UNL     1       4.049   8.774   2.821  0.00  0.00    +0.295 HD
ENDBRANCH  29   5
ENDBRANCH  28  29
ENDBRANCH   1  28
ENDBRANCH  22   1
ENDBRANCH  18  22
TORSDOF 7
ENDMDL
MODEL 8
REMARK VINA RESULT:      -5.6     25.342     27.973
REMARK  Name = 7144230
REMARK  8 active torsions:
REMARK  status: ('A' for Active; 'I' for Inactive)
REMARK    1  A    between atoms: S_1  and  C_22
REMARK    2  A    between atoms: S_1  and  C_28
REMARK    3  A    between atoms: S_2  and  C_27
REMARK    4  A    between atoms: S_2  and  C_30
REMARK    5  A    between atoms: O_5  and  C_29
REMARK    6  A    between atoms: C_16  and  C_21
REMARK    7  A    between atoms: C_18  and  C_22
REMARK    8  A    between atoms: C_28  and  C_29
REMARK                            x       y       z     vdW  Elec       q    Type
REMARK                         _______ _______ _______ _____ _____    ______ ____
ROOT
ATOM      3  O   UNL     1      -6.785 -15.055  17.134  0.00  0.00    -0.268 OA
ATOM      4  O   UNL     1      -8.556 -10.369  18.765  0.00  0.00    -0.275 OA
ATOM      7  N   UNL     1      -6.588 -10.089  17.560  0.00  0.00    -0.300 N 
ATOM      8  N   UNL     1      -5.825 -13.004  16.537  0.00  0.00    -0.311 N 
ATOM      9  C   UNL     1      -4.670 -11.509  18.271  0.00  0.00    +0.027 C 
ATOM     10  C   UNL     1      -4.834 -10.773  15.932  0.00  0.00    +0.054 C 
ATOM     11  C   UNL     1      -3.861 -11.007  17.086  0.00  0.00    +0.018 C 
ATOM     12  C   UNL     1      -5.735 -10.479  18.682  0.00  0.00    +0.113 C 
ATOM     13  C   UNL     1      -5.292 -12.856  17.899  0.00  0.00    +0.130 C 
ATOM     14  C   UNL     1      -5.868  -9.702  16.340  0.00  0.00    +0.117 C 
ATOM     15  C   UNL     1      -5.546 -12.066  15.523  0.00  0.00    +0.034 A 
ATOM     16  C   UNL     1      -5.930 -12.318  14.244  0.00  0.00    +0.002 A 
ATOM     17  C   UNL     1      -6.527 -14.197  16.289  0.00  0.00    +0.252 A 
ATOM     18  C   UNL     1      -7.972 -10.040  17.729  0.00  0.00    +0.225 C 
ATOM     19  C   UNL     1      -6.660 -13.538  13.951  0.00  0.00    +0.015 A 
ATOM     20  C   UNL     1      -6.965 -14.429  14.895  0.00  0.00    +0.071 A 
ENDROOT
BRANCH  16  21
ATOM     21  C   UNL     1      -5.643 -11.373  13.143  0.00  0.00    -0.016 A 
ATOM     23  C   UNL     1      -4.452 -11.484  12.432  0.00  0.00    +0.009 A 
ATOM     24  C   UNL     1      -6.565 -10.380  12.828  0.00  0.00    +0.009 A 
ATOM     25  C   UNL     1      -4.181 -10.592  11.394  0.00  0.00    +0.015 A 
ATOM     26  C   UNL     1      -6.293  -9.488  11.790  0.00  0.00    +0.015 A 
ATOM     27  C   UNL     1      -5.102  -9.594  11.073  0.00  0.00    +0.008 A 
BRANCH  27   2
ATOM      2  S   UNL     1      -4.754  -8.454   9.748  0.00  0.00    -0.129 S 
ATOM     30  C   UNL     1      -4.938  -9.517   8.289  0.00  0.00    +0.090 C 
ENDBRANCH  27   2
ENDBRANCH  16  21
BRANCH  18  22
ATOM     22  C   UNL     1      -8.780  -9.558  16.550  0.00  0.00    +0.165 C 
BRANCH  22   1
ATOM      1  S   UNL     1      -9.767  -8.159  17.099  0.00  0.00    -0.140 S 
BRANCH   1  28
ATOM     28  C   UNL     1     -10.351  -7.580  15.487  0.00  0.00    +0.189 C 
BRANCH  28  29
ATOM      6  O   UNL     1     -11.468  -5.589  14.715  0.00  0.00    -0.250 OA
ATOM     29  C   UNL     1     -10.987  -6.229  15.641  0.00  0.00    +0.315 C 
BRANCH  29   5
ATOM      5  O   UNL     1     -10.988  -5.795  16.927  0.00  0.00    -0.480 OA
ATOM     31  H   UNL     1     -11.028  -6.539  17.565  0.00  0.00    +0.295 HD
ENDBRANCH  29   5
ENDBRANCH  28  29
ENDBRANCH   1  28
ENDBRANCH  22   1
ENDBRANCH  18  22
TORSDOF 7
ENDMDL
MODEL 9
REMARK VINA RESULT:      -5.5     24.532     26.934
REMARK  Name = 7144230
REMARK  8 active torsions:
REMARK  status: ('A' for Active; 'I' for Inactive)
REMARK    1  A    between atoms: S_1  and  C_22
REMARK    2  A    between atoms: S_1  and  C_28
REMARK    3  A    between atoms: S_2  and  C_27
REMARK    4  A    between atoms: S_2  and  C_30
REMARK    5  A    between atoms: O_5  and  C_29
REMARK    6  A    between atoms: C_16  and  C_21
REMARK    7  A    between atoms: C_18  and  C_22
REMARK    8  A    between atoms: C_28  and  C_29
REMARK                            x       y       z     vdW  Elec       q    Type
REMARK                         _______ _______ _______ _____ _____    ______ ____
ROOT
ATOM      3  O   UNL     1      -1.662 -15.118  13.015  0.00  0.00    -0.268 OA
ATOM      4  O   UNL     1      -4.743 -13.123  16.793  0.00  0.00    -0.275 OA
ATOM      7  N   UNL     1      -4.085 -11.431  15.342  0.00  0.00    -0.300 N 
ATOM      8  N   UNL     1      -2.407 -12.899  13.071  0.00  0.00    -0.311 N 
ATOM      9  C   UNL     1      -1.640 -11.273  14.899  0.00  0.00    +0.027 C 
ATOM     10  C   UNL     1      -3.235 -10.527  13.184  0.00  0.00    +0.054 C 
ATOM     11  C   UNL     1      -1.900 -10.201  13.853  0.00  0.00    +0.018 C 
ATOM     12  C   UNL     1      -2.762 -11.295  15.950  0.00  0.00    +0.113 C 
ATOM     13  C   UNL     1      -1.495 -12.619  14.189  0.00  0.00    +0.130 C 
ATOM     14  C   UNL     1      -4.360 -10.499  14.241  0.00  0.00    +0.117 C 
ATOM     15  C   UNL     1      -3.199 -11.890  12.487  0.00  0.00    +0.034 A 
ATOM     16  C   UNL     1      -3.912 -12.157  11.361  0.00  0.00    +0.002 A 
ATOM     17  C   UNL     1      -2.346 -14.205  12.553  0.00  0.00    +0.252 A 
ATOM     18  C   UNL     1      -4.996 -12.349  15.866  0.00  0.00    +0.225 C 
ATOM     19  C   UNL     1      -3.875 -13.494  10.800  0.00  0.00    +0.015 A 
ATOM     20  C   UNL     1      -3.160 -14.477  11.348  0.00  0.00    +0.071 A 
ENDROOT
BRANCH  16  21
ATOM     21  C   UNL     1      -4.742 -11.125  10.702  0.00  0.00    -0.016 A 
ATOM     23  C   UNL     1      -6.092 -11.018  11.021  0.00  0.00    +0.009 A 
ATOM     24  C   UNL     1      -4.166 -10.270   9.767  0.00  0.00    +0.009 A 
ATOM     25  C   UNL     1      -6.875 -10.045  10.397  0.00  0.00    +0.015 A 
ATOM     26  C   UNL     1      -4.949  -9.298   9.144  0.00  0.00    +0.015 A 
ATOM     27  C   UNL     1      -6.303  -9.185   9.460  0.00  0.00    +0.008 A 
BRANCH  27   2
ATOM      2  S   UNL     1      -7.303  -7.944   8.663  0.00  0.00    -0.129 S 
ATOM     30  C   UNL     1      -8.967  -8.387   9.237  0.00  0.00    +0.090 C 
ENDBRANCH  27   2
ENDBRANCH  16  21
BRANCH  18  22
ATOM     22  C   UNL     1      -6.364 -12.380  15.233  0.00  0.00    +0.165 C 
BRANCH  22   1
ATOM      1  S   UNL     1      -7.529 -12.956  16.477  0.00  0.00    -0.140 S 
BRANCH   1  28
ATOM     28  C   UNL     1      -7.672 -11.437  17.451  0.00  0.00    +0.189 C 
BRANCH  28  29
ATOM      6  O   UNL     1      -7.353 -10.902  19.778  0.00  0.00    -0.250 OA
ATOM     29  C   UNL     1      -7.243 -11.708  18.863  0.00  0.00    +0.315 C 
BRANCH  29   5
ATOM      5  O   UNL     1      -6.733 -12.955  19.026  0.00  0.00    -0.480 OA
ATOM     31  H   UNL     1      -7.435 -13.617  19.208  0.00  0.00    +0.295 HD
ENDBRANCH  29   5
ENDBRANCH  28  29
ENDBRANCH   1  28
ENDBRANCH  22   1
ENDBRANCH  18  22
TORSDOF 7
ENDMDL
MODEL 10
REMARK VINA RESULT:      -5.5      3.558      7.192
REMARK  Name = 7144230
REMARK  8 active torsions:
REMARK  status: ('A' for Active; 'I' for Inactive)
REMARK    1  A    between atoms: S_1  and  C_22
REMARK    2  A    between atoms: S_1  and  C_28
REMARK    3  A    between atoms: S_2  and  C_27
REMARK    4  A    between atoms: S_2  and  C_30
REMARK    5  A    between atoms: O_5  and  C_29
REMARK    6  A    between atoms: C_16  and  C_21
REMARK    7  A    between atoms: C_18  and  C_22
REMARK    8  A    between atoms: C_28  and  C_29
REMARK                            x       y       z     vdW  Elec       q    Type
REMARK                         _______ _______ _______ _____ _____    ______ ____
ROOT
ATOM      3  O   UNL     1      13.661   6.953   6.505  0.00  0.00    -0.268 OA
ATOM      4  O   UNL     1       9.450   6.578   3.361  0.00  0.00    -0.275 OA
ATOM      7  N   UNL     1       8.774   7.126   5.516  0.00  0.00    -0.300 N 
ATOM      8  N   UNL     1      11.475   7.474   7.164  0.00  0.00    -0.311 N 
ATOM      9  C   UNL     1       9.660   5.671   7.333  0.00  0.00    +0.027 C 
ATOM     10  C   UNL     1       9.108   8.016   7.817  0.00  0.00    +0.054 C 
ATOM     11  C   UNL     1       9.043   6.594   8.371  0.00  0.00    +0.018 C 
ATOM     12  C   UNL     1       8.892   5.752   6.003  0.00  0.00    +0.113 C 
ATOM     13  C   UNL     1      11.134   6.045   7.165  0.00  0.00    +0.130 C 
ATOM     14  C   UNL     1       8.293   8.096   6.508  0.00  0.00    +0.117 C 
ATOM     15  C   UNL     1      10.552   8.460   7.568  0.00  0.00    +0.034 A 
ATOM     16  C   UNL     1      10.955   9.751   7.697  0.00  0.00    +0.002 A 
ATOM     17  C   UNL     1      12.812   7.776   6.849  0.00  0.00    +0.252 A 
ATOM     18  C   UNL     1       9.047   7.410   4.178  0.00  0.00    +0.225 C 
ATOM     19  C   UNL     1      12.327  10.100   7.378  0.00  0.00    +0.015 A 
ATOM     20  C   UNL     1      13.214   9.195   6.964  0.00  0.00    +0.071 A 
ENDROOT
BRANCH  16  21
ATOM     21  C   UNL     1      10.028  10.817   8.137  0.00  0.00    -0.016 A 
ATOM     23  C   UNL     1       9.433  11.646   7.192  0.00  0.00    +0.009 A 
ATOM     24  C   UNL     1       9.758  10.981   9.492  0.00  0.00    +0.009 A 
ATOM     25  C   UNL     1       8.559  12.652   7.606  0.00  0.00    +0.015 A 
ATOM     26  C   UNL     1       8.884  11.987   9.906  0.00  0.00    +0.015 A 
ATOM     27  C   UNL     1       8.285  12.822   8.963  0.00  0.00    +0.008 A 
BRANCH  27   2
ATOM      2  S   UNL     1       7.170  14.107   9.493  0.00  0.00    -0.129 S 
ATOM     30  C   UNL     1       5.952  14.117   8.147  0.00  0.00    +0.090 C 
ENDBRANCH  27   2
ENDBRANCH  16  21
BRANCH  18  22
ATOM     22  C   UNL     1       8.833   8.835   3.733  0.00  0.00    +0.165 C 
BRANCH  22   1
ATOM      1  S   UNL     1      10.133   9.243   2.559  0.00  0.00    -0.140 S 
BRANCH   1  28
ATOM     28  C   UNL     1      11.543   9.244   3.694  0.00  0.00    +0.189 C 
BRANCH  28  29
ATOM      6  O   UNL     1      13.521   8.661   2.447  0.00  0.00    -0.250 OA
ATOM     29  C   UNL     1      12.601   8.313   3.176  0.00  0.00    +0.315 C 
BRANCH  29   5
ATOM      5  O   UNL     1      12.439   7.040   3.615  0.00  0.00    -0.480 OA
ATOM     31  H   UNL     1      12.216   7.007   4.570  0.00  0.00    +0.295 HD
ENDBRANCH  29   5
ENDBRANCH  28  29
ENDBRANCH   1  28
ENDBRANCH  22   1
ENDBRANCH  18  22
TORSDOF 7
ENDMDL
