MODEL 1
REMARK VINA RESULT:      -6.1      0.000      0.000
REMARK  Name = 75536655
REMARK  8 active torsions:
REMARK  status: ('A' for Active; 'I' for Inactive)
REMARK    1  A    between atoms: S_1  and  N_9
REMARK    2  A    between atoms: S_1  and  C_22
REMARK    3  A    between atoms: O_3  and  C_12
REMARK    4  A    between atoms: N_7  and  C_10
REMARK    5  A    between atoms: N_7  and  C_11
REMARK    6  A    between atoms: N_9  and  C_19
REMARK    7  A    between atoms: C_13  and  C_19
REMARK    8  A    between atoms: C_20  and  C_21
REMARK                            x       y       z     vdW  Elec       q    Type
REMARK                         _______ _______ _______ _____ _____    ______ ____
ROOT
ATOM      2  O   UNL     1      12.190  10.450  20.176  0.00  0.00    -0.371 OA
ATOM     10  C   UNL     1      12.580   8.365  21.244  0.00  0.00    +0.111 C 
ATOM     12  C   UNL     1      12.142   9.379  22.284  0.00  0.00    +0.164 C 
ATOM     13  C   UNL     1      11.452  10.417  21.410  0.00  0.00    +0.164 C 
ATOM     14  C   UNL     1      13.011   9.272  20.103  0.00  0.00    +0.181 C 
ENDROOT
BRANCH  12   3
ATOM      3  O   UNL     1      11.261   8.830  23.245  0.00  0.00    -0.388 OA
ATOM     24  H   UNL     1      11.763   8.211  23.802  0.00  0.00    +0.210 HD
ENDBRANCH  12   3
BRANCH  10   7
ATOM      7  N   UNL     1      13.644   7.484  21.700  0.00  0.00    -0.306 NA
ATOM     23  H   UNL     1      13.322   6.517  21.703  0.00  0.00    +0.123 HD
BRANCH   7  11
ATOM      4  O   UNL     1      18.990   5.125  19.788  0.00  0.00    -0.276 OA
ATOM      8  N   UNL     1      17.560   6.904  20.222  0.00  0.00    -0.302 N 
ATOM     11  C   UNL     1      14.825   7.614  20.850  0.00  0.00    +0.057 C 
ATOM     15  C   UNL     1      15.181   6.256  20.232  0.00  0.00    +0.037 C 
ATOM     16  C   UNL     1      16.004   8.158  21.667  0.00  0.00    +0.037 C 
ATOM     17  C   UNL     1      16.470   6.349  19.416  0.00  0.00    +0.109 C 
ATOM     18  C   UNL     1      17.277   8.213  20.823  0.00  0.00    +0.109 C 
ATOM     20  C   UNL     1      18.764   6.208  20.333  0.00  0.00    +0.212 C 
ATOM     21  C   UNL     1      19.835   6.843  21.183  0.00  0.00    +0.109 C 
ENDBRANCH   7  11
ENDBRANCH  10   7
BRANCH  13  19
ATOM     19  C   UNL     1      11.426  11.803  22.030  0.00  0.00    +0.139 C 
BRANCH  19   9
ATOM      9  N   UNL     1      10.453  11.830  23.140  0.00  0.00    -0.192 NA
ATOM     25  H   UNL     1       9.706  11.129  23.044  0.00  0.00    +0.148 HD
BRANCH   9   1
ATOM      1  S   UNL     1      11.009  12.129  24.725  0.00  0.00    +0.027 S 
ATOM      5  O   UNL     1      11.194  10.875  25.426  0.00  0.00    -0.158 OA
ATOM      6  O   UNL     1      10.204  13.190  25.300  0.00  0.00    -0.158 OA
ATOM     22  C   UNL     1      12.616  12.809  24.385  0.00  0.00    +0.214 C 
ENDBRANCH   9   1
ENDBRANCH  19   9
ENDBRANCH  13  19
TORSDOF 6
ENDMDL
MODEL 2
REMARK VINA RESULT:      -6.0      4.081      7.532
REMARK  Name = 75536655
REMARK  8 active torsions:
REMARK  status: ('A' for Active; 'I' for Inactive)
REMARK    1  A    between atoms: S_1  and  N_9
REMARK    2  A    between atoms: S_1  and  C_22
REMARK    3  A    between atoms: O_3  and  C_12
REMARK    4  A    between atoms: N_7  and  C_10
REMARK    5  A    between atoms: N_7  and  C_11
REMARK    6  A    between atoms: N_9  and  C_19
REMARK    7  A    between atoms: C_13  and  C_19
REMARK    8  A    between atoms: C_20  and  C_21
REMARK                            x       y       z     vdW  Elec       q    Type
REMARK                         _______ _______ _______ _____ _____    ______ ____
ROOT
ATOM      2  O   UNL     1      13.012   7.089  20.913  0.00  0.00    -0.371 OA
ATOM     10  C   UNL     1      10.948   8.197  21.301  0.00  0.00    +0.111 C 
ATOM     12  C   UNL     1      11.390   8.461  19.874  0.00  0.00    +0.164 C 
ATOM     13  C   UNL     1      12.361   7.310  19.650  0.00  0.00    +0.164 C 
ATOM     14  C   UNL     1      12.250   7.746  21.940  0.00  0.00    +0.181 C 
ENDROOT
BRANCH  12   3
ATOM      3  O   UNL     1      10.316   8.430  18.954  0.00  0.00    -0.388 OA
ATOM     24  H   UNL     1      10.468   9.117  18.283  0.00  0.00    +0.210 HD
ENDBRANCH  12   3
BRANCH  10   7
ATOM      7  N   UNL     1      10.368   9.359  21.957  0.00  0.00    -0.306 NA
ATOM     23  H   UNL     1       9.747   9.064  22.710  0.00  0.00    +0.123 HD
BRANCH   7  11
ATOM      4  O   UNL     1      11.844  14.394  25.162  0.00  0.00    -0.276 OA
ATOM      8  N   UNL     1      12.257  12.799  23.523  0.00  0.00    -0.302 N 
ATOM     11  C   UNL     1      11.413  10.232  22.484  0.00  0.00    +0.057 C 
ATOM     15  C   UNL     1      11.055  10.681  23.908  0.00  0.00    +0.037 C 
ATOM     16  C   UNL     1      11.595  11.449  21.568  0.00  0.00    +0.037 C 
ATOM     17  C   UNL     1      12.088  11.671  24.442  0.00  0.00    +0.109 C 
ATOM     18  C   UNL     1      12.617  12.426  22.150  0.00  0.00    +0.109 C 
ATOM     20  C   UNL     1      12.112  14.104  23.993  0.00  0.00    +0.212 C 
ATOM     21  C   UNL     1      12.297  15.210  22.985  0.00  0.00    +0.109 C 
ENDBRANCH   7  11
ENDBRANCH  10   7
BRANCH  13  19
ATOM     19  C   UNL     1      13.400   7.601  18.581  0.00  0.00    +0.139 C 
BRANCH  19   9
ATOM      9  N   UNL     1      12.754   7.610  17.253  0.00  0.00    -0.192 NA
ATOM     25  H   UNL     1      11.855   7.111  17.234  0.00  0.00    +0.148 HD
BRANCH   9   1
ATOM      1  S   UNL     1      12.859   9.014  16.289  0.00  0.00    +0.027 S 
ATOM      5  O   UNL     1      13.683   8.751  15.126  0.00  0.00    -0.158 OA
ATOM      6  O   UNL     1      13.134  10.144  17.154  0.00  0.00    -0.158 OA
ATOM     22  C   UNL     1      11.173   9.161  15.742  0.00  0.00    +0.214 C 
ENDBRANCH   9   1
ENDBRANCH  19   9
ENDBRANCH  13  19
TORSDOF 6
ENDMDL
MODEL 3
REMARK VINA RESULT:      -5.9      3.889      5.608
REMARK  Name = 75536655
REMARK  8 active torsions:
REMARK  status: ('A' for Active; 'I' for Inactive)
REMARK    1  A    between atoms: S_1  and  N_9
REMARK    2  A    between atoms: S_1  and  C_22
REMARK    3  A    between atoms: O_3  and  C_12
REMARK    4  A    between atoms: N_7  and  C_10
REMARK    5  A    between atoms: N_7  and  C_11
REMARK    6  A    between atoms: N_9  and  C_19
REMARK    7  A    between atoms: C_13  and  C_19
REMARK    8  A    between atoms: C_20  and  C_21
REMARK                            x       y       z     vdW  Elec       q    Type
REMARK                         _______ _______ _______ _____ _____    ______ ____
ROOT
ATOM      2  O   UNL     1      16.249   6.075  19.007  0.00  0.00    -0.371 OA
ATOM     10  C   UNL     1      17.351   6.326  21.096  0.00  0.00    +0.111 C 
ATOM     12  C   UNL     1      16.016   7.046  21.152  0.00  0.00    +0.164 C 
ATOM     13  C   UNL     1      15.266   6.361  20.017  0.00  0.00    +0.164 C 
ATOM     14  C   UNL     1      17.555   6.187  19.597  0.00  0.00    +0.181 C 
ENDROOT
BRANCH  12   3
ATOM      3  O   UNL     1      15.358   6.882  22.393  0.00  0.00    -0.388 OA
ATOM     24  H   UNL     1      15.589   7.636  22.963  0.00  0.00    +0.210 HD
ENDBRANCH  12   3
BRANCH  10   7
ATOM      7  N   UNL     1      18.430   7.047  21.751  0.00  0.00    -0.306 NA
ATOM     23  H   UNL     1      18.567   6.692  22.697  0.00  0.00    +0.123 HD
BRANCH   7  11
ATOM      4  O   UNL     1      24.471   5.904  21.748  0.00  0.00    -0.276 OA
ATOM      8  N   UNL     1      22.564   6.908  20.882  0.00  0.00    -0.302 N 
ATOM     11  C   UNL     1      19.670   6.928  20.989  0.00  0.00    +0.057 C 
ATOM     15  C   UNL     1      20.486   5.730  21.493  0.00  0.00    +0.037 C 
ATOM     16  C   UNL     1      20.488   8.221  21.108  0.00  0.00    +0.037 C 
ATOM     17  C   UNL     1      21.831   5.644  20.774  0.00  0.00    +0.109 C 
ATOM     18  C   UNL     1      21.834   8.086  20.397  0.00  0.00    +0.109 C 
ATOM     20  C   UNL     1      23.867   6.913  21.380  0.00  0.00    +0.212 C 
ATOM     21  C   UNL     1      24.552   8.254  21.463  0.00  0.00    +0.109 C 
ENDBRANCH   7  11
ENDBRANCH  10   7
BRANCH  13  19
ATOM     19  C   UNL     1      14.157   7.216  19.428  0.00  0.00    +0.139 C 
BRANCH  19   9
ATOM      9  N   UNL     1      12.851   6.582  19.691  0.00  0.00    -0.192 NA
ATOM     25  H   UNL     1      12.882   5.554  19.659  0.00  0.00    +0.148 HD
BRANCH   9   1
ATOM      1  S   UNL     1      11.815   7.268  20.861  0.00  0.00    +0.027 S 
ATOM      5  O   UNL     1      10.734   7.977  20.206  0.00  0.00    -0.158 OA
ATOM      6  O   UNL     1      12.630   7.921  21.867  0.00  0.00    -0.158 OA
ATOM     22  C   UNL     1      11.138   5.799  21.600  0.00  0.00    +0.214 C 
ENDBRANCH   9   1
ENDBRANCH  19   9
ENDBRANCH  13  19
TORSDOF 6
ENDMDL
MODEL 4
REMARK VINA RESULT:      -5.8      3.688      6.271
REMARK  Name = 75536655
REMARK  8 active torsions:
REMARK  status: ('A' for Active; 'I' for Inactive)
REMARK    1  A    between atoms: S_1  and  N_9
REMARK    2  A    between atoms: S_1  and  C_22
REMARK    3  A    between atoms: O_3  and  C_12
REMARK    4  A    between atoms: N_7  and  C_10
REMARK    5  A    between atoms: N_7  and  C_11
REMARK    6  A    between atoms: N_9  and  C_19
REMARK    7  A    between atoms: C_13  and  C_19
REMARK    8  A    between atoms: C_20  and  C_21
REMARK                            x       y       z     vdW  Elec       q    Type
REMARK                         _______ _______ _______ _____ _____    ______ ____
ROOT
ATOM      2  O   UNL     1      16.151   5.743  18.937  0.00  0.00    -0.371 OA
ATOM     10  C   UNL     1      18.178   6.105  20.120  0.00  0.00    +0.111 C 
ATOM     12  C   UNL     1      17.141   7.103  20.599  0.00  0.00    +0.164 C 
ATOM     13  C   UNL     1      15.852   6.414  20.172  0.00  0.00    +0.164 C 
ATOM     14  C   UNL     1      17.580   5.662  18.795  0.00  0.00    +0.181 C 
ENDROOT
BRANCH  12   3
ATOM      3  O   UNL     1      17.188   7.312  21.997  0.00  0.00    -0.388 OA
ATOM     24  H   UNL     1      17.164   6.445  22.437  0.00  0.00    +0.210 HD
ENDBRANCH  12   3
BRANCH  10   7
ATOM      7  N   UNL     1      19.511   6.670  19.979  0.00  0.00    -0.306 NA
ATOM     23  H   UNL     1      19.493   7.668  20.188  0.00  0.00    +0.123 HD
BRANCH   7  11
ATOM      4  O   UNL     1      25.202   4.524  20.875  0.00  0.00    -0.276 OA
ATOM      8  N   UNL     1      22.910   4.503  21.249  0.00  0.00    -0.302 N 
ATOM     11  C   UNL     1      20.457   5.993  20.861  0.00  0.00    +0.057 C 
ATOM     15  C   UNL     1      21.831   6.671  20.780  0.00  0.00    +0.037 C 
ATOM     16  C   UNL     1      20.567   4.511  20.478  0.00  0.00    +0.037 C 
ATOM     17  C   UNL     1      22.861   5.919  21.623  0.00  0.00    +0.109 C 
ATOM     18  C   UNL     1      21.622   3.801  21.325  0.00  0.00    +0.109 C 
ATOM     20  C   UNL     1      24.127   3.921  20.896  0.00  0.00    +0.212 C 
ATOM     21  C   UNL     1      24.094   2.461  20.521  0.00  0.00    +0.109 C 
ENDBRANCH   7  11
ENDBRANCH  10   7
BRANCH  13  19
ATOM     19  C   UNL     1      14.696   7.378  19.966  0.00  0.00    +0.139 C 
BRANCH  19   9
ATOM      9  N   UNL     1      13.454   6.616  19.726  0.00  0.00    -0.192 NA
ATOM     25  H   UNL     1      13.603   5.600  19.668  0.00  0.00    +0.148 HD
BRANCH   9   1
ATOM      1  S   UNL     1      12.009   7.124  20.480  0.00  0.00    +0.027 S 
ATOM      5  O   UNL     1      11.321   5.981  21.044  0.00  0.00    -0.158 OA
ATOM      6  O   UNL     1      11.324   8.038  19.587  0.00  0.00    -0.158 OA
ATOM     22  C   UNL     1      12.664   8.087  21.824  0.00  0.00    +0.214 C 
ENDBRANCH   9   1
ENDBRANCH  19   9
ENDBRANCH  13  19
TORSDOF 6
ENDMDL
MODEL 5
REMARK VINA RESULT:      -5.8      4.821      8.005
REMARK  Name = 75536655
REMARK  8 active torsions:
REMARK  status: ('A' for Active; 'I' for Inactive)
REMARK    1  A    between atoms: S_1  and  N_9
REMARK    2  A    between atoms: S_1  and  C_22
REMARK    3  A    between atoms: O_3  and  C_12
REMARK    4  A    between atoms: N_7  and  C_10
REMARK    5  A    between atoms: N_7  and  C_11
REMARK    6  A    between atoms: N_9  and  C_19
REMARK    7  A    between atoms: C_13  and  C_19
REMARK    8  A    between atoms: C_20  and  C_21
REMARK                            x       y       z     vdW  Elec       q    Type
REMARK                         _______ _______ _______ _____ _____    ______ ____
ROOT
ATOM      2  O   UNL     1      17.950   5.749  19.139  0.00  0.00    -0.371 OA
ATOM     10  C   UNL     1      16.462   6.975  20.525  0.00  0.00    +0.111 C 
ATOM     12  C   UNL     1      17.741   6.701  21.294  0.00  0.00    +0.164 C 
ATOM     13  C   UNL     1      18.713   6.421  20.155  0.00  0.00    +0.164 C 
ATOM     14  C   UNL     1      16.553   5.943  19.414  0.00  0.00    +0.181 C 
ENDROOT
BRANCH  12   3
ATOM      3  O   UNL     1      18.153   7.803  22.080  0.00  0.00    -0.388 OA
ATOM     24  H   UNL     1      18.290   8.564  21.490  0.00  0.00    +0.210 HD
ENDBRANCH  12   3
BRANCH  10   7
ATOM      7  N   UNL     1      15.258   6.838  21.330  0.00  0.00    -0.306 NA
ATOM     23  H   UNL     1      15.456   7.068  22.303  0.00  0.00    +0.123 HD
BRANCH   7  11
ATOM      4  O   UNL     1      10.995   7.885  17.025  0.00  0.00    -0.276 OA
ATOM      8  N   UNL     1      12.505   8.589  18.643  0.00  0.00    -0.302 N 
ATOM     11  C   UNL     1      14.194   7.698  20.820  0.00  0.00    +0.057 C 
ATOM     15  C   UNL     1      13.026   6.845  20.307  0.00  0.00    +0.037 C 
ATOM     16  C   UNL     1      14.734   8.597  19.700  0.00  0.00    +0.037 C 
ATOM     17  C   UNL     1      11.943   7.723  19.682  0.00  0.00    +0.109 C 
ATOM     18  C   UNL     1      13.616   9.440  19.086  0.00  0.00    +0.109 C 
ATOM     20  C   UNL     1      11.953   8.584  17.363  0.00  0.00    +0.212 C 
ATOM     21  C   UNL     1      12.590   9.500  16.349  0.00  0.00    +0.109 C 
ENDBRANCH   7  11
ENDBRANCH  10   7
BRANCH  13  19
ATOM     19  C   UNL     1      19.891   5.557  20.570  0.00  0.00    +0.139 C 
BRANCH  19   9
ATOM      9  N   UNL     1      20.876   6.379  21.299  0.00  0.00    -0.192 NA
ATOM     25  H   UNL     1      20.797   7.385  21.097  0.00  0.00    +0.148 HD
BRANCH   9   1
ATOM      1  S   UNL     1      21.281   5.963  22.904  0.00  0.00    +0.027 S 
ATOM      5  O   UNL     1      21.688   4.573  22.963  0.00  0.00    -0.158 OA
ATOM      6  O   UNL     1      20.248   6.472  23.784  0.00  0.00    -0.158 OA
ATOM     22  C   UNL     1      22.728   6.967  23.147  0.00  0.00    +0.214 C 
ENDBRANCH   9   1
ENDBRANCH  19   9
ENDBRANCH  13  19
TORSDOF 6
ENDMDL
MODEL 6
REMARK VINA RESULT:      -5.6     25.357     28.039
REMARK  Name = 75536655
REMARK  8 active torsions:
REMARK  status: ('A' for Active; 'I' for Inactive)
REMARK    1  A    between atoms: S_1  and  N_9
REMARK    2  A    between atoms: S_1  and  C_22
REMARK    3  A    between atoms: O_3  and  C_12
REMARK    4  A    between atoms: N_7  and  C_10
REMARK    5  A    between atoms: N_7  and  C_11
REMARK    6  A    between atoms: N_9  and  C_19
REMARK    7  A    between atoms: C_13  and  C_19
REMARK    8  A    between atoms: C_20  and  C_21
REMARK                            x       y       z     vdW  Elec       q    Type
REMARK                         _______ _______ _______ _____ _____    ______ ____
ROOT
ATOM      2  O   UNL     1     -15.886   6.829  20.587  0.00  0.00    -0.371 OA
ATOM     10  C   UNL     1     -13.544   7.220  20.656  0.00  0.00    +0.111 C 
ATOM     12  C   UNL     1     -13.909   6.210  21.728  0.00  0.00    +0.164 C 
ATOM     13  C   UNL     1     -15.247   5.701  21.209  0.00  0.00    +0.164 C 
ATOM     14  C   UNL     1     -14.896   7.848  20.362  0.00  0.00    +0.181 C 
ENDROOT
BRANCH  12   3
ATOM      3  O   UNL     1     -12.959   5.168  21.844  0.00  0.00    -0.388 OA
ATOM     24  H   UNL     1     -12.077   5.538  21.665  0.00  0.00    +0.210 HD
ENDBRANCH  12   3
BRANCH  10   7
ATOM      7  N   UNL     1     -12.549   8.190  21.083  0.00  0.00    -0.306 NA
ATOM     23  H   UNL     1     -12.195   7.947  22.007  0.00  0.00    +0.123 HD
BRANCH   7  11
ATOM      4  O   UNL     1     -10.095  10.845  16.109  0.00  0.00    -0.276 OA
ATOM      8  N   UNL     1     -10.400   9.045  17.546  0.00  0.00    -0.302 N 
ATOM     11  C   UNL     1     -11.446   8.256  20.127  0.00  0.00    +0.057 C 
ATOM     15  C   UNL     1     -11.112   9.719  19.808  0.00  0.00    +0.037 C 
ATOM     16  C   UNL     1     -11.814   7.497  18.845  0.00  0.00    +0.037 C 
ATOM     17  C   UNL     1     -10.025   9.809  18.738  0.00  0.00    +0.109 C 
ATOM     18  C   UNL     1     -10.713   7.632  17.793  0.00  0.00    +0.109 C 
ATOM     20  C   UNL     1     -10.398   9.664  16.296  0.00  0.00    +0.212 C 
ATOM     21  C   UNL     1     -10.799   8.811  15.119  0.00  0.00    +0.109 C 
ENDBRANCH   7  11
ENDBRANCH  10   7
BRANCH  13  19
ATOM     19  C   UNL     1     -16.142   5.142  22.302  0.00  0.00    +0.139 C 
BRANCH  19   9
ATOM      9  N   UNL     1     -15.539   3.914  22.855  0.00  0.00    -0.192 NA
ATOM     25  H   UNL     1     -14.614   4.068  23.279  0.00  0.00    +0.148 HD
BRANCH   9   1
ATOM      1  S   UNL     1     -16.543   2.772  23.630  0.00  0.00    +0.027 S 
ATOM      5  O   UNL     1     -15.906   2.301  24.844  0.00  0.00    -0.158 OA
ATOM      6  O   UNL     1     -17.026   1.836  22.633  0.00  0.00    -0.158 OA
ATOM     22  C   UNL     1     -17.913   3.805  24.096  0.00  0.00    +0.214 C 
ENDBRANCH   9   1
ENDBRANCH  19   9
ENDBRANCH  13  19
TORSDOF 6
ENDMDL
MODEL 7
REMARK VINA RESULT:      -5.6      3.373      7.608
REMARK  Name = 75536655
REMARK  8 active torsions:
REMARK  status: ('A' for Active; 'I' for Inactive)
REMARK    1  A    between atoms: S_1  and  N_9
REMARK    2  A    between atoms: S_1  and  C_22
REMARK    3  A    between atoms: O_3  and  C_12
REMARK    4  A    between atoms: N_7  and  C_10
REMARK    5  A    between atoms: N_7  and  C_11
REMARK    6  A    between atoms: N_9  and  C_19
REMARK    7  A    between atoms: C_13  and  C_19
REMARK    8  A    between atoms: C_20  and  C_21
REMARK                            x       y       z     vdW  Elec       q    Type
REMARK                         _______ _______ _______ _____ _____    ______ ____
ROOT
ATOM      2  O   UNL     1      17.964   6.222  19.362  0.00  0.00    -0.371 OA
ATOM     10  C   UNL     1      15.813   6.838  20.157  0.00  0.00    +0.111 C 
ATOM     12  C   UNL     1      16.811   6.951  21.294  0.00  0.00    +0.164 C 
ATOM     13  C   UNL     1      18.121   7.052  20.525  0.00  0.00    +0.164 C 
ATOM     14  C   UNL     1      16.565   5.944  19.185  0.00  0.00    +0.181 C 
ENDROOT
BRANCH  12   3
ATOM      3  O   UNL     1      16.588   8.087  22.107  0.00  0.00    -0.388 OA
ATOM     24  H   UNL     1      17.067   7.962  22.944  0.00  0.00    +0.210 HD
ENDBRANCH  12   3
BRANCH  10   7
ATOM      7  N   UNL     1      14.530   6.284  20.560  0.00  0.00    -0.306 NA
ATOM     23  H   UNL     1      14.534   6.076  21.558  0.00  0.00    +0.123 HD
BRANCH   7  11
ATOM      4  O   UNL     1      12.470  12.076  20.455  0.00  0.00    -0.276 OA
ATOM      8  N   UNL     1      12.154   9.778  20.590  0.00  0.00    -0.302 N 
ATOM     11  C   UNL     1      13.445   7.209  20.247  0.00  0.00    +0.057 C 
ATOM     15  C   UNL     1      14.008   8.484  19.606  0.00  0.00    +0.037 C 
ATOM     16  C   UNL     1      12.660   7.551  21.521  0.00  0.00    +0.037 C 
ATOM     17  C   UNL     1      12.899   9.506  19.359  0.00  0.00    +0.109 C 
ATOM     18  C   UNL     1      11.578   8.592  21.236  0.00  0.00    +0.109 C 
ATOM     20  C   UNL     1      12.007  11.092  21.036  0.00  0.00    +0.212 C 
ATOM     21  C   UNL     1      11.229  11.288  22.313  0.00  0.00    +0.109 C 
ENDBRANCH   7  11
ENDBRANCH  10   7
BRANCH  13  19
ATOM     19  C   UNL     1      19.326   6.591  21.327  0.00  0.00    +0.139 C 
BRANCH  19   9
ATOM      9  N   UNL     1      19.268   7.168  22.684  0.00  0.00    -0.192 NA
ATOM     25  H   UNL     1      18.364   7.019  23.152  0.00  0.00    +0.148 HD
BRANCH   9   1
ATOM      1  S   UNL     1      20.653   7.095  23.678  0.00  0.00    +0.027 S 
ATOM      5  O   UNL     1      20.290   6.606  24.993  0.00  0.00    -0.158 OA
ATOM      6  O   UNL     1      21.393   8.332  23.524  0.00  0.00    -0.158 OA
ATOM     22  C   UNL     1      21.578   5.818  22.856  0.00  0.00    +0.214 C 
ENDBRANCH   9   1
ENDBRANCH  19   9
ENDBRANCH  13  19
TORSDOF 6
ENDMDL
MODEL 8
REMARK VINA RESULT:      -5.6      3.278      4.753
REMARK  Name = 75536655
REMARK  8 active torsions:
REMARK  status: ('A' for Active; 'I' for Inactive)
REMARK    1  A    between atoms: S_1  and  N_9
REMARK    2  A    between atoms: S_1  and  C_22
REMARK    3  A    between atoms: O_3  and  C_12
REMARK    4  A    between atoms: N_7  and  C_10
REMARK    5  A    between atoms: N_7  and  C_11
REMARK    6  A    between atoms: N_9  and  C_19
REMARK    7  A    between atoms: C_13  and  C_19
REMARK    8  A    between atoms: C_20  and  C_21
REMARK                            x       y       z     vdW  Elec       q    Type
REMARK                         _______ _______ _______ _____ _____    ______ ____
ROOT
ATOM      2  O   UNL     1      11.664   6.912  19.621  0.00  0.00    -0.371 OA
ATOM     10  C   UNL     1      12.671   7.835  21.563  0.00  0.00    +0.111 C 
ATOM     12  C   UNL     1      12.492   8.932  20.530  0.00  0.00    +0.164 C 
ATOM     13  C   UNL     1      11.412   8.327  19.644  0.00  0.00    +0.164 C 
ATOM     14  C   UNL     1      12.555   6.589  20.702  0.00  0.00    +0.181 C 
ENDROOT
BRANCH  12   3
ATOM      3  O   UNL     1      12.080  10.159  21.101  0.00  0.00    -0.388 OA
ATOM     24  H   UNL     1      11.113  10.224  21.019  0.00  0.00    +0.210 HD
ENDBRANCH  12   3
BRANCH  10   7
ATOM      7  N   UNL     1      13.932   7.912  22.283  0.00  0.00    -0.306 NA
ATOM     23  H   UNL     1      14.038   7.104  22.896  0.00  0.00    +0.123 HD
BRANCH   7  11
ATOM      4  O   UNL     1      19.823   6.609  21.097  0.00  0.00    -0.276 OA
ATOM      8  N   UNL     1      17.904   7.894  20.840  0.00  0.00    -0.302 N 
ATOM     11  C   UNL     1      15.056   7.983  21.354  0.00  0.00    +0.057 C 
ATOM     15  C   UNL     1      15.834   6.661  21.365  0.00  0.00    +0.037 C 
ATOM     16  C   UNL     1      15.977   9.151  21.729  0.00  0.00    +0.037 C 
ATOM     17  C   UNL     1      17.070   6.748  20.470  0.00  0.00    +0.109 C 
ATOM     18  C   UNL     1      17.211   9.189  20.828  0.00  0.00    +0.109 C 
ATOM     20  C   UNL     1      19.255   7.704  21.129  0.00  0.00    +0.212 C 
ATOM     21  C   UNL     1      20.045   8.933  21.504  0.00  0.00    +0.109 C 
ENDBRANCH   7  11
ENDBRANCH  10   7
BRANCH  13  19
ATOM     19  C   UNL     1      11.421   8.874  18.227  0.00  0.00    +0.139 C 
BRANCH  19   9
ATOM      9  N   UNL     1      12.157   7.948  17.344  0.00  0.00    -0.192 NA
ATOM     25  H   UNL     1      11.570   7.530  16.611  0.00  0.00    +0.148 HD
BRANCH   9   1
ATOM      1  S   UNL     1      13.763   8.321  16.903  0.00  0.00    +0.027 S 
ATOM      5  O   UNL     1      13.925   8.177  15.470  0.00  0.00    -0.158 OA
ATOM      6  O   UNL     1      14.659   7.649  17.823  0.00  0.00    -0.158 OA
ATOM     22  C   UNL     1      13.812  10.057  17.288  0.00  0.00    +0.214 C 
ENDBRANCH   9   1
ENDBRANCH  19   9
ENDBRANCH  13  19
TORSDOF 6
ENDMDL
MODEL 9
REMARK VINA RESULT:      -5.5      1.738      2.046
REMARK  Name = 75536655
REMARK  8 active torsions:
REMARK  status: ('A' for Active; 'I' for Inactive)
REMARK    1  A    between atoms: S_1  and  N_9
REMARK    2  A    between atoms: S_1  and  C_22
REMARK    3  A    between atoms: O_3  and  C_12
REMARK    4  A    between atoms: N_7  and  C_10
REMARK    5  A    between atoms: N_7  and  C_11
REMARK    6  A    between atoms: N_9  and  C_19
REMARK    7  A    between atoms: C_13  and  C_19
REMARK    8  A    between atoms: C_20  and  C_21
REMARK                            x       y       z     vdW  Elec       q    Type
REMARK                         _______ _______ _______ _____ _____    ______ ____
ROOT
ATOM      2  O   UNL     1      11.268  10.800  21.463  0.00  0.00    -0.371 OA
ATOM     10  C   UNL     1      11.066   8.533  20.784  0.00  0.00    +0.111 C 
ATOM     12  C   UNL     1      10.887   8.616  22.288  0.00  0.00    +0.164 C 
ATOM     13  C   UNL     1      10.518  10.083  22.458  0.00  0.00    +0.164 C 
ATOM     14  C   UNL     1      11.749   9.858  20.489  0.00  0.00    +0.181 C 
ENDROOT
BRANCH  12   3
ATOM      3  O   UNL     1       9.870   7.758  22.766  0.00  0.00    -0.388 OA
ATOM     24  H   UNL     1      10.177   6.839  22.675  0.00  0.00    +0.210 HD
ENDBRANCH  12   3
BRANCH  10   7
ATOM      7  N   UNL     1      11.847   7.384  20.352  0.00  0.00    -0.306 NA
ATOM     23  H   UNL     1      11.396   6.929  19.560  0.00  0.00    +0.123 HD
BRANCH   7  11
ATOM      4  O   UNL     1      17.463   5.728  18.475  0.00  0.00    -0.276 OA
ATOM      8  N   UNL     1      15.998   7.139  19.598  0.00  0.00    -0.302 N 
ATOM     11  C   UNL     1      13.204   7.787  19.990  0.00  0.00    +0.057 C 
ATOM     15  C   UNL     1      13.681   6.990  18.768  0.00  0.00    +0.037 C 
ATOM     16  C   UNL     1      14.152   7.570  21.176  0.00  0.00    +0.037 C 
ATOM     17  C   UNL     1      15.133   7.327  18.431  0.00  0.00    +0.109 C 
ATOM     18  C   UNL     1      15.596   7.894  20.791  0.00  0.00    +0.109 C 
ATOM     20  C   UNL     1      17.125   6.323  19.501  0.00  0.00    +0.212 C 
ATOM     21  C   UNL     1      17.963   6.178  20.746  0.00  0.00    +0.109 C 
ENDBRANCH   7  11
ENDBRANCH  10   7
BRANCH  13  19
ATOM     19  C   UNL     1      10.845  10.629  23.838  0.00  0.00    +0.139 C 
BRANCH  19   9
ATOM      9  N   UNL     1      10.104  11.886  24.061  0.00  0.00    -0.192 NA
ATOM     25  H   UNL     1       9.308  11.782  24.704  0.00  0.00    +0.148 HD
BRANCH   9   1
ATOM      1  S   UNL     1      10.970  13.353  24.165  0.00  0.00    +0.027 S 
ATOM      5  O   UNL     1      10.375  14.338  23.284  0.00  0.00    -0.158 OA
ATOM      6  O   UNL     1      12.387  13.054  24.095  0.00  0.00    -0.158 OA
ATOM     22  C   UNL     1      10.609  13.828  25.840  0.00  0.00    +0.214 C 
ENDBRANCH   9   1
ENDBRANCH  19   9
ENDBRANCH  13  19
TORSDOF 6
ENDMDL
MODEL 10
REMARK VINA RESULT:      -5.5     27.106     28.569
REMARK  Name = 75536655
REMARK  8 active torsions:
REMARK  status: ('A' for Active; 'I' for Inactive)
REMARK    1  A    between atoms: S_1  and  N_9
REMARK    2  A    between atoms: S_1  and  C_22
REMARK    3  A    between atoms: O_3  and  C_12
REMARK    4  A    between atoms: N_7  and  C_10
REMARK    5  A    between atoms: N_7  and  C_11
REMARK    6  A    between atoms: N_9  and  C_19
REMARK    7  A    between atoms: C_13  and  C_19
REMARK    8  A    between atoms: C_20  and  C_21
REMARK                            x       y       z     vdW  Elec       q    Type
REMARK                         _______ _______ _______ _____ _____    ______ ____
ROOT
ATOM      2  O   UNL     1      -5.860 -10.176  17.568  0.00  0.00    -0.371 OA
ATOM     10  C   UNL     1      -3.912 -11.277  16.772  0.00  0.00    +0.111 C 
ATOM     12  C   UNL     1      -4.267 -11.829  18.140  0.00  0.00    +0.164 C 
ATOM     13  C   UNL     1      -5.736 -11.442  18.240  0.00  0.00    +0.164 C 
ATOM     14  C   UNL     1      -4.686  -9.970  16.765  0.00  0.00    +0.181 C 
ENDROOT
BRANCH  12   3
ATOM      3  O   UNL     1      -4.084 -13.229  18.230  0.00  0.00    -0.388 OA
ATOM     24  H   UNL     1      -3.488 -13.506  17.513  0.00  0.00    +0.210 HD
ENDBRANCH  12   3
BRANCH  10   7
ATOM      7  N   UNL     1      -2.484 -11.093  16.570  0.00  0.00    -0.306 NA
ATOM     23  H   UNL     1      -1.959 -11.644  17.248  0.00  0.00    +0.123 HD
BRANCH   7  11
ATOM      4  O   UNL     1      -2.952 -10.067  10.526  0.00  0.00    -0.276 OA
ATOM      8  N   UNL     1      -2.590 -11.446  12.360  0.00  0.00    -0.302 N 
ATOM     11  C   UNL     1      -2.099 -11.472  15.213  0.00  0.00    +0.057 C 
ATOM     15  C   UNL     1      -1.850 -10.218  14.366  0.00  0.00    +0.037 C 
ATOM     16  C   UNL     1      -3.193 -12.340  14.578  0.00  0.00    +0.037 C 
ATOM     17  C   UNL     1      -1.539 -10.591  12.917  0.00  0.00    +0.109 C 
ATOM     18  C   UNL     1      -2.857 -12.671  13.124  0.00  0.00    +0.109 C 
ATOM     20  C   UNL     1      -3.220 -11.085  11.169  0.00  0.00    +0.212 C 
ATOM     21  C   UNL     1      -4.293 -12.016  10.663  0.00  0.00    +0.109 C 
ENDBRANCH   7  11
ENDBRANCH  10   7
BRANCH  13  19
ATOM     19  C   UNL     1      -6.227 -11.313  19.672  0.00  0.00    +0.139 C 
BRANCH  19   9
ATOM      9  N   UNL     1      -7.439 -10.470  19.705  0.00  0.00    -0.192 NA
ATOM     25  H   UNL     1      -7.300  -9.540  19.289  0.00  0.00    +0.148 HD
BRANCH   9   1
ATOM      1  S   UNL     1      -8.962 -11.194  19.443  0.00  0.00    +0.027 S 
ATOM      5  O   UNL     1      -9.283 -11.164  18.030  0.00  0.00    -0.158 OA
ATOM      6  O   UNL     1      -9.891 -10.675  20.427  0.00  0.00    -0.158 OA
ATOM     22  C   UNL     1      -8.604 -12.878  19.887  0.00  0.00    +0.214 C 
ENDBRANCH   9   1
ENDBRANCH  19   9
ENDBRANCH  13  19
TORSDOF 6
ENDMDL
