MODEL 1
REMARK VINA RESULT:      -7.2      0.000      0.000
REMARK  Name = 75367657
REMARK  7 active torsions:
REMARK  status: ('A' for Active; 'I' for Inactive)
REMARK    1  A    between atoms: O_5  and  C_9
REMARK    2  A    between atoms: O_5  and  C_15
REMARK    3  A    between atoms: O_6  and  C_22
REMARK    4  A    between atoms: O_6  and  C_27
REMARK    5  A    between atoms: N_7  and  C_12
REMARK    6  A    between atoms: C_12  and  C_14
REMARK    7  A    between atoms: C_25  and  C_26
REMARK                            x       y       z     vdW  Elec       q    Type
REMARK                         _______ _______ _______ _____ _____    ______ ____
ROOT
ATOM      4  O   UNL     1      13.080   9.125  16.725  0.00  0.00    -0.375 OA
ATOM      7  N   UNL     1      11.913   8.439  19.265  0.00  0.00    -0.292 NA
ATOM      8  C   UNL     1      12.773   7.272  19.073  0.00  0.00    +0.131 C 
ATOM      9  C   UNL     1      14.110   7.675  18.435  0.00  0.00    +0.213 C 
ATOM     10  C   UNL     1      11.091   8.787  18.101  0.00  0.00    +0.113 C 
ATOM     11  C   UNL     1      14.037   8.101  16.971  0.00  0.00    +0.205 C 
ATOM     13  C   UNL     1      11.747   8.631  16.731  0.00  0.00    +0.175 C 
ENDROOT
BRANCH   9   5
ATOM      5  O   UNL     1      14.999   6.563  18.538  0.00  0.00    -0.485 OA
BRANCH   5  15
ATOM     15  C   UNL     1      16.085   6.723  19.355  0.00  0.00    +0.121 A 
ATOM     18  C   UNL     1      16.067   7.694  20.356  0.00  0.00    +0.046 A 
ATOM     19  C   UNL     1      17.210   5.916  19.186  0.00  0.00    +0.046 A 
ATOM     23  C   UNL     1      17.174   7.859  21.188  0.00  0.00    +0.016 A 
ATOM     24  C   UNL     1      18.318   6.082  20.018  0.00  0.00    +0.016 A 
ATOM     25  C   UNL     1      18.300   7.053  21.019  0.00  0.00    +0.055 A 
BRANCH  25  26
ATOM      1  F   UNL     1      19.352   8.254  22.800  0.00  0.00    -0.166 F 
ATOM      2  F   UNL     1      20.642   7.493  21.232  0.00  0.00    -0.166 F 
ATOM      3  F   UNL     1      19.745   6.121  22.660  0.00  0.00    -0.166 F 
ATOM     26  C   UNL     1      19.484   7.229  21.907  0.00  0.00    +0.417 C 
ENDBRANCH  25  26
ENDBRANCH   5  15
ENDBRANCH   9   5
BRANCH   7  12
ATOM     12  C   UNL     1      11.066   8.291  20.450  0.00  0.00    +0.119 C 
BRANCH  12  14
ATOM     14  C   UNL     1      11.225   9.446  21.402  0.00  0.00    -0.033 A 
ATOM     16  C   UNL     1      10.718   9.357  22.698  0.00  0.00    +0.008 A 
ATOM     17  C   UNL     1      11.879  10.606  20.987  0.00  0.00    +0.008 A 
ATOM     20  C   UNL     1      10.865  10.427  23.580  0.00  0.00    +0.046 A 
ATOM     21  C   UNL     1      12.027  11.677  21.868  0.00  0.00    +0.046 A 
ATOM     22  C   UNL     1      11.520  11.587  23.165  0.00  0.00    +0.120 A 
BRANCH  22   6
ATOM      6  O   UNL     1      11.663  12.632  24.025  0.00  0.00    -0.495 OA
ATOM     27  C   UNL     1      10.844  12.627  25.194  0.00  0.00    +0.277 C 
ENDBRANCH  22   6
ENDBRANCH  12  14
ENDBRANCH   7  12
TORSDOF 6
ENDMDL
MODEL 2
REMARK VINA RESULT:      -6.5     28.230     30.870
REMARK  Name = 75367657
REMARK  7 active torsions:
REMARK  status: ('A' for Active; 'I' for Inactive)
REMARK    1  A    between atoms: O_5  and  C_9
REMARK    2  A    between atoms: O_5  and  C_15
REMARK    3  A    between atoms: O_6  and  C_22
REMARK    4  A    between atoms: O_6  and  C_27
REMARK    5  A    between atoms: N_7  and  C_12
REMARK    6  A    between atoms: C_12  and  C_14
REMARK    7  A    between atoms: C_25  and  C_26
REMARK                            x       y       z     vdW  Elec       q    Type
REMARK                         _______ _______ _______ _____ _____    ______ ____
ROOT
ATOM      4  O   UNL     1     -17.199   1.853  22.856  0.00  0.00    -0.375 OA
ATOM      7  N   UNL     1     -16.556   4.598  23.435  0.00  0.00    -0.292 NA
ATOM      8  C   UNL     1     -17.344   4.280  24.625  0.00  0.00    +0.131 C 
ATOM      9  C   UNL     1     -17.057   2.851  25.107  0.00  0.00    +0.213 C 
ATOM     10  C   UNL     1     -17.177   4.197  22.167  0.00  0.00    +0.113 C 
ATOM     11  C   UNL     1     -17.598   1.736  24.216  0.00  0.00    +0.205 C 
ATOM     13  C   UNL     1     -17.923   2.864  22.166  0.00  0.00    +0.175 C 
ENDROOT
BRANCH   9   5
ATOM      5  O   UNL     1     -17.624   2.705  26.409  0.00  0.00    -0.485 OA
BRANCH   5  15
ATOM     15  C   UNL     1     -16.747   2.482  27.435  0.00  0.00    +0.121 A 
ATOM     18  C   UNL     1     -16.105   3.557  28.050  0.00  0.00    +0.046 A 
ATOM     19  C   UNL     1     -16.494   1.180  27.866  0.00  0.00    +0.046 A 
ATOM     23  C   UNL     1     -15.210   3.330  29.095  0.00  0.00    +0.016 A 
ATOM     24  C   UNL     1     -15.599   0.953  28.911  0.00  0.00    +0.016 A 
ATOM     25  C   UNL     1     -14.957   2.028  29.526  0.00  0.00    +0.055 A 
BRANCH  25  26
ATOM      1  F   UNL     1     -13.005   2.716  30.725  0.00  0.00    -0.166 F 
ATOM      2  F   UNL     1     -13.354   0.582  30.559  0.00  0.00    -0.166 F 
ATOM      3  F   UNL     1     -14.607   1.788  31.865  0.00  0.00    -0.166 F 
ATOM     26  C   UNL     1     -14.000   1.784  30.643  0.00  0.00    +0.417 C 
ENDBRANCH  25  26
ENDBRANCH   5  15
ENDBRANCH   9   5
BRANCH   7  12
ATOM     12  C   UNL     1     -16.202   6.018  23.390  0.00  0.00    +0.119 C 
BRANCH  12  14
ATOM     14  C   UNL     1     -14.951   6.260  22.589  0.00  0.00    -0.033 A 
ATOM     16  C   UNL     1     -14.832   7.410  21.810  0.00  0.00    +0.008 A 
ATOM     17  C   UNL     1     -13.910   5.331  22.625  0.00  0.00    +0.008 A 
ATOM     20  C   UNL     1     -13.673   7.633  21.067  0.00  0.00    +0.046 A 
ATOM     21  C   UNL     1     -12.751   5.554  21.882  0.00  0.00    +0.046 A 
ATOM     22  C   UNL     1     -12.632   6.705  21.104  0.00  0.00    +0.120 A 
BRANCH  22   6
ATOM      6  O   UNL     1     -11.501   6.922  20.378  0.00  0.00    -0.495 OA
ATOM     27  C   UNL     1     -11.665   7.460  19.066  0.00  0.00    +0.277 C 
ENDBRANCH  22   6
ENDBRANCH  12  14
ENDBRANCH   7  12
TORSDOF 6
ENDMDL
MODEL 3
REMARK VINA RESULT:      -6.3     28.536     31.232
REMARK  Name = 75367657
REMARK  7 active torsions:
REMARK  status: ('A' for Active; 'I' for Inactive)
REMARK    1  A    between atoms: O_5  and  C_9
REMARK    2  A    between atoms: O_5  and  C_15
REMARK    3  A    between atoms: O_6  and  C_22
REMARK    4  A    between atoms: O_6  and  C_27
REMARK    5  A    between atoms: N_7  and  C_12
REMARK    6  A    between atoms: C_12  and  C_14
REMARK    7  A    between atoms: C_25  and  C_26
REMARK                            x       y       z     vdW  Elec       q    Type
REMARK                         _______ _______ _______ _____ _____    ______ ____
ROOT
ATOM      4  O   UNL     1     -17.167   0.440  24.575  0.00  0.00    -0.375 OA
ATOM      7  N   UNL     1     -17.111   3.309  24.340  0.00  0.00    -0.292 NA
ATOM      8  C   UNL     1     -17.718   3.188  25.665  0.00  0.00    +0.131 C 
ATOM      9  C   UNL     1     -17.085   2.034  26.456  0.00  0.00    +0.213 C 
ATOM     10  C   UNL     1     -17.719   2.456  23.312  0.00  0.00    +0.113 C 
ATOM     11  C   UNL     1     -17.427   0.632  25.960  0.00  0.00    +0.205 C 
ATOM     13  C   UNL     1     -18.147   1.058  23.750  0.00  0.00    +0.175 C 
ENDROOT
BRANCH   9   5
ATOM      5  O   UNL     1     -17.507   2.150  27.815  0.00  0.00    -0.485 OA
BRANCH   5  15
ATOM     15  C   UNL     1     -16.530   2.405  28.738  0.00  0.00    +0.121 A 
ATOM     18  C   UNL     1     -15.966   1.356  29.464  0.00  0.00    +0.046 A 
ATOM     19  C   UNL     1     -16.100   3.714  28.955  0.00  0.00    +0.046 A 
ATOM     23  C   UNL     1     -14.971   1.616  30.406  0.00  0.00    +0.016 A 
ATOM     24  C   UNL     1     -15.105   3.974  29.898  0.00  0.00    +0.016 A 
ATOM     25  C   UNL     1     -14.540   2.925  30.623  0.00  0.00    +0.055 A 
BRANCH  25  26
ATOM      1  F   UNL     1     -13.224   2.152  32.465  0.00  0.00    -0.166 F 
ATOM      2  F   UNL     1     -13.767   4.251  32.458  0.00  0.00    -0.166 F 
ATOM      3  F   UNL     1     -12.278   3.512  31.057  0.00  0.00    -0.166 F 
ATOM     26  C   UNL     1     -13.477   3.203  31.630  0.00  0.00    +0.417 C 
ENDBRANCH  25  26
ENDBRANCH   5  15
ENDBRANCH   9   5
BRANCH   7  12
ATOM     12  C   UNL     1     -17.088   4.700  23.887  0.00  0.00    +0.119 C 
BRANCH  12  14
ATOM     14  C   UNL     1     -15.801   5.039  23.184  0.00  0.00    -0.033 A 
ATOM     16  C   UNL     1     -14.579   4.674  23.749  0.00  0.00    +0.008 A 
ATOM     17  C   UNL     1     -15.828   5.721  21.967  0.00  0.00    +0.008 A 
ATOM     20  C   UNL     1     -13.386   4.988  23.099  0.00  0.00    +0.046 A 
ATOM     21  C   UNL     1     -14.636   6.036  21.316  0.00  0.00    +0.046 A 
ATOM     22  C   UNL     1     -13.415   5.669  21.882  0.00  0.00    +0.120 A 
BRANCH  22   6
ATOM      6  O   UNL     1     -12.251   5.977  21.247  0.00  0.00    -0.495 OA
ATOM     27  C   UNL     1     -12.032   7.350  20.924  0.00  0.00    +0.277 C 
ENDBRANCH  22   6
ENDBRANCH  12  14
ENDBRANCH   7  12
TORSDOF 6
ENDMDL
MODEL 4
REMARK VINA RESULT:      -6.3     27.963     30.578
REMARK  Name = 75367657
REMARK  7 active torsions:
REMARK  status: ('A' for Active; 'I' for Inactive)
REMARK    1  A    between atoms: O_5  and  C_9
REMARK    2  A    between atoms: O_5  and  C_15
REMARK    3  A    between atoms: O_6  and  C_22
REMARK    4  A    between atoms: O_6  and  C_27
REMARK    5  A    between atoms: N_7  and  C_12
REMARK    6  A    between atoms: C_12  and  C_14
REMARK    7  A    between atoms: C_25  and  C_26
REMARK                            x       y       z     vdW  Elec       q    Type
REMARK                         _______ _______ _______ _____ _____    ______ ____
ROOT
ATOM      4  O   UNL     1     -17.525   5.870  25.577  0.00  0.00    -0.375 OA
ATOM      7  N   UNL     1     -16.905   3.167  26.349  0.00  0.00    -0.292 NA
ATOM      8  C   UNL     1     -16.780   3.037  24.898  0.00  0.00    +0.131 C 
ATOM      9  C   UNL     1     -16.136   4.291  24.288  0.00  0.00    +0.213 C 
ATOM     10  C   UNL     1     -18.129   3.841  26.796  0.00  0.00    +0.113 C 
ATOM     11  C   UNL     1     -17.006   5.544  24.293  0.00  0.00    +0.205 C 
ATOM     13  C   UNL     1     -18.604   5.023  25.954  0.00  0.00    +0.175 C 
ENDROOT
BRANCH   9   5
ATOM      5  O   UNL     1     -15.783   3.990  22.937  0.00  0.00    -0.485 OA
BRANCH   5  15
ATOM     15  C   UNL     1     -14.898   4.840  22.334  0.00  0.00    +0.121 A 
ATOM     18  C   UNL     1     -15.361   5.827  21.464  0.00  0.00    +0.046 A 
ATOM     19  C   UNL     1     -13.531   4.721  22.588  0.00  0.00    +0.046 A 
ATOM     23  C   UNL     1     -14.459   6.694  20.847  0.00  0.00    +0.016 A 
ATOM     24  C   UNL     1     -12.629   5.587  21.971  0.00  0.00    +0.016 A 
ATOM     25  C   UNL     1     -13.092   6.574  21.101  0.00  0.00    +0.055 A 
BRANCH  25  26
ATOM      1  F   UNL     1     -12.101   7.386  19.081  0.00  0.00    -0.166 F 
ATOM      2  F   UNL     1     -10.832   7.314  20.838  0.00  0.00    -0.166 F 
ATOM      3  F   UNL     1     -12.402   8.812  20.695  0.00  0.00    -0.166 F 
ATOM     26  C   UNL     1     -12.127   7.499  20.442  0.00  0.00    +0.417 C 
ENDBRANCH  25  26
ENDBRANCH   5  15
ENDBRANCH   9   5
BRANCH   7  12
ATOM     12  C   UNL     1     -16.776   1.871  27.016  0.00  0.00    +0.119 C 
BRANCH  12  14
ATOM     14  C   UNL     1     -16.029   1.982  28.317  0.00  0.00    -0.033 A 
ATOM     16  C   UNL     1     -16.019   0.910  29.210  0.00  0.00    +0.008 A 
ATOM     17  C   UNL     1     -15.346   3.157  28.632  0.00  0.00    +0.008 A 
ATOM     20  C   UNL     1     -15.327   1.013  30.417  0.00  0.00    +0.046 A 
ATOM     21  C   UNL     1     -14.654   3.261  29.838  0.00  0.00    +0.046 A 
ATOM     22  C   UNL     1     -14.645   2.189  30.731  0.00  0.00    +0.120 A 
BRANCH  22   6
ATOM      6  O   UNL     1     -13.971   2.290  31.909  0.00  0.00    -0.495 OA
ATOM     27  C   UNL     1     -14.582   1.706  33.059  0.00  0.00    +0.277 C 
ENDBRANCH  22   6
ENDBRANCH  12  14
ENDBRANCH   7  12
TORSDOF 6
ENDMDL
MODEL 5
REMARK VINA RESULT:      -6.2     27.178     28.787
REMARK  Name = 75367657
REMARK  7 active torsions:
REMARK  status: ('A' for Active; 'I' for Inactive)
REMARK    1  A    between atoms: O_5  and  C_9
REMARK    2  A    between atoms: O_5  and  C_15
REMARK    3  A    between atoms: O_6  and  C_22
REMARK    4  A    between atoms: O_6  and  C_27
REMARK    5  A    between atoms: N_7  and  C_12
REMARK    6  A    between atoms: C_12  and  C_14
REMARK    7  A    between atoms: C_25  and  C_26
REMARK                            x       y       z     vdW  Elec       q    Type
REMARK                         _______ _______ _______ _____ _____    ______ ____
ROOT
ATOM      4  O   UNL     1      -2.996 -13.238  12.486  0.00  0.00    -0.375 OA
ATOM      7  N   UNL     1      -2.793 -11.365  14.663  0.00  0.00    -0.292 NA
ATOM      8  C   UNL     1      -2.422 -10.486  13.554  0.00  0.00    +0.131 C 
ATOM      9  C   UNL     1      -3.263 -10.792  12.307  0.00  0.00    +0.213 C 
ATOM     10  C   UNL     1      -2.091 -12.654  14.679  0.00  0.00    +0.113 C 
ATOM     11  C   UNL     1      -2.952 -12.116  11.613  0.00  0.00    +0.205 C 
ATOM     13  C   UNL     1      -1.850 -13.316  13.324  0.00  0.00    +0.175 C 
ENDROOT
BRANCH   9   5
ATOM      5  O   UNL     1      -3.062  -9.733  11.371  0.00  0.00    -0.485 OA
BRANCH   5  15
ATOM     15  C   UNL     1      -4.147  -9.362  10.626  0.00  0.00    +0.121 A 
ATOM     18  C   UNL     1      -4.050  -9.296   9.236  0.00  0.00    +0.046 A 
ATOM     19  C   UNL     1      -5.352  -9.047  11.256  0.00  0.00    +0.046 A 
ATOM     23  C   UNL     1      -5.156  -8.916   8.476  0.00  0.00    +0.016 A 
ATOM     24  C   UNL     1      -6.457  -8.667  10.496  0.00  0.00    +0.016 A 
ATOM     25  C   UNL     1      -6.360  -8.602   9.106  0.00  0.00    +0.055 A 
BRANCH  25  26
ATOM      1  F   UNL     1      -7.395  -8.426   6.957  0.00  0.00    -0.166 F 
ATOM      2  F   UNL     1      -7.846  -6.866   8.395  0.00  0.00    -0.166 F 
ATOM      3  F   UNL     1      -8.680  -8.857   8.656  0.00  0.00    -0.166 F 
ATOM     26  C   UNL     1      -7.543  -8.195   8.295  0.00  0.00    +0.417 C 
ENDBRANCH  25  26
ENDBRANCH   5  15
ENDBRANCH   9   5
BRANCH   7  12
ATOM     12  C   UNL     1      -2.635 -10.694  15.954  0.00  0.00    +0.119 C 
BRANCH  12  14
ATOM     14  C   UNL     1      -3.908 -10.718  16.757  0.00  0.00    -0.033 A 
ATOM     16  C   UNL     1      -5.042 -10.054  16.289  0.00  0.00    +0.008 A 
ATOM     17  C   UNL     1      -3.954 -11.402  17.972  0.00  0.00    +0.008 A 
ATOM     20  C   UNL     1      -6.221 -10.075  17.033  0.00  0.00    +0.046 A 
ATOM     21  C   UNL     1      -5.132 -11.424  18.717  0.00  0.00    +0.046 A 
ATOM     22  C   UNL     1      -6.266 -10.761  18.247  0.00  0.00    +0.120 A 
BRANCH  22   6
ATOM      6  O   UNL     1      -7.416 -10.781  18.975  0.00  0.00    -0.495 OA
ATOM     27  C   UNL     1      -7.795 -12.029  19.556  0.00  0.00    +0.277 C 
ENDBRANCH  22   6
ENDBRANCH  12  14
ENDBRANCH   7  12
TORSDOF 6
ENDMDL
MODEL 6
REMARK VINA RESULT:      -6.2     27.965     31.178
REMARK  Name = 75367657
REMARK  7 active torsions:
REMARK  status: ('A' for Active; 'I' for Inactive)
REMARK    1  A    between atoms: O_5  and  C_9
REMARK    2  A    between atoms: O_5  and  C_15
REMARK    3  A    between atoms: O_6  and  C_22
REMARK    4  A    between atoms: O_6  and  C_27
REMARK    5  A    between atoms: N_7  and  C_12
REMARK    6  A    between atoms: C_12  and  C_14
REMARK    7  A    between atoms: C_25  and  C_26
REMARK                            x       y       z     vdW  Elec       q    Type
REMARK                         _______ _______ _______ _____ _____    ______ ____
ROOT
ATOM      4  O   UNL     1     -17.149   6.497  32.580  0.00  0.00    -0.375 OA
ATOM      7  N   UNL     1     -14.762   8.039  33.037  0.00  0.00    -0.292 NA
ATOM      8  C   UNL     1     -14.376   6.796  33.703  0.00  0.00    +0.131 C 
ATOM      9  C   UNL     1     -14.888   5.575  32.926  0.00  0.00    +0.213 C 
ATOM     10  C   UNL     1     -16.092   8.539  33.404  0.00  0.00    +0.113 C 
ATOM     11  C   UNL     1     -16.397   5.354  32.968  0.00  0.00    +0.205 C 
ATOM     13  C   UNL     1     -17.186   7.491  33.596  0.00  0.00    +0.175 C 
ENDROOT
BRANCH   9   5
ATOM      5  O   UNL     1     -14.245   4.415  33.457  0.00  0.00    -0.485 OA
BRANCH   5  15
ATOM     15  C   UNL     1     -14.261   3.295  32.672  0.00  0.00    +0.121 A 
ATOM     18  C   UNL     1     -14.859   2.125  33.139  0.00  0.00    +0.046 A 
ATOM     19  C   UNL     1     -13.678   3.323  31.405  0.00  0.00    +0.046 A 
ATOM     23  C   UNL     1     -14.874   0.982  32.340  0.00  0.00    +0.016 A 
ATOM     24  C   UNL     1     -13.693   2.179  30.606  0.00  0.00    +0.016 A 
ATOM     25  C   UNL     1     -14.291   1.009  31.073  0.00  0.00    +0.055 A 
BRANCH  25  26
ATOM      1  F   UNL     1     -14.670   0.029  28.924  0.00  0.00    -0.166 F 
ATOM      2  F   UNL     1     -15.170  -1.177  30.655  0.00  0.00    -0.166 F 
ATOM      3  F   UNL     1     -13.087  -0.820  30.148  0.00  0.00    -0.166 F 
ATOM     26  C   UNL     1     -14.306  -0.212  30.218  0.00  0.00    +0.417 C 
ENDBRANCH  25  26
ENDBRANCH   5  15
ENDBRANCH   9   5
BRANCH   7  12
ATOM     12  C   UNL     1     -13.760   9.087  33.238  0.00  0.00    +0.119 C 
BRANCH  12  14
ATOM     14  C   UNL     1     -13.127   9.514  31.941  0.00  0.00    -0.033 A 
ATOM     16  C   UNL     1     -11.797   9.188  31.673  0.00  0.00    +0.008 A 
ATOM     17  C   UNL     1     -13.869  10.237  31.006  0.00  0.00    +0.008 A 
ATOM     20  C   UNL     1     -11.210   9.583  30.472  0.00  0.00    +0.046 A 
ATOM     21  C   UNL     1     -13.282  10.633  29.805  0.00  0.00    +0.046 A 
ATOM     22  C   UNL     1     -11.952  10.306  29.538  0.00  0.00    +0.120 A 
BRANCH  22   6
ATOM      6  O   UNL     1     -11.379  10.693  28.365  0.00  0.00    -0.495 OA
ATOM     27  C   UNL     1     -11.139   9.676  27.393  0.00  0.00    +0.277 C 
ENDBRANCH  22   6
ENDBRANCH  12  14
ENDBRANCH   7  12
TORSDOF 6
ENDMDL
MODEL 7
REMARK VINA RESULT:      -6.2     15.003     17.271
REMARK  Name = 75367657
REMARK  7 active torsions:
REMARK  status: ('A' for Active; 'I' for Inactive)
REMARK    1  A    between atoms: O_5  and  C_9
REMARK    2  A    between atoms: O_5  and  C_15
REMARK    3  A    between atoms: O_6  and  C_22
REMARK    4  A    between atoms: O_6  and  C_27
REMARK    5  A    between atoms: N_7  and  C_12
REMARK    6  A    between atoms: C_12  and  C_14
REMARK    7  A    between atoms: C_25  and  C_26
REMARK                            x       y       z     vdW  Elec       q    Type
REMARK                         _______ _______ _______ _____ _____    ______ ____
ROOT
ATOM      4  O   UNL     1       8.454   7.748   5.851  0.00  0.00    -0.375 OA
ATOM      7  N   UNL     1      11.085   6.901   6.656  0.00  0.00    -0.292 NA
ATOM      8  C   UNL     1      10.743   5.800   5.757  0.00  0.00    +0.131 C 
ATOM      9  C   UNL     1       9.966   6.310   4.535  0.00  0.00    +0.213 C 
ATOM     10  C   UNL     1      10.043   7.235   7.634  0.00  0.00    +0.113 C 
ATOM     11  C   UNL     1       8.541   6.780   4.812  0.00  0.00    +0.205 C 
ATOM     13  C   UNL     1       8.599   7.169   7.142  0.00  0.00    +0.175 C 
ENDROOT
BRANCH   9   5
ATOM      5  O   UNL     1       9.916   5.254   3.574  0.00  0.00    -0.485 OA
BRANCH   5  15
ATOM     15  C   UNL     1      11.082   4.969   2.920  0.00  0.00    +0.121 A 
ATOM     18  C   UNL     1      11.366   3.656   2.542  0.00  0.00    +0.046 A 
ATOM     19  C   UNL     1      11.989   5.989   2.632  0.00  0.00    +0.046 A 
ATOM     23  C   UNL     1      12.556   3.364   1.876  0.00  0.00    +0.016 A 
ATOM     24  C   UNL     1      13.179   5.696   1.966  0.00  0.00    +0.016 A 
ATOM     25  C   UNL     1      13.463   4.384   1.588  0.00  0.00    +0.055 A 
BRANCH  25  26
ATOM      1  F   UNL     1      15.506   3.143   1.514  0.00  0.00    -0.166 F 
ATOM      2  F   UNL     1      15.550   5.157   0.710  0.00  0.00    -0.166 F 
ATOM      3  F   UNL     1      14.528   3.576  -0.378  0.00  0.00    -0.166 F 
ATOM     26  C   UNL     1      14.735   4.072   0.876  0.00  0.00    +0.417 C 
ENDBRANCH  25  26
ENDBRANCH   5  15
ENDBRANCH   9   5
BRANCH   7  12
ATOM     12  C   UNL     1      12.355   6.657   7.341  0.00  0.00    +0.119 C 
BRANCH  12  14
ATOM     14  C   UNL     1      13.414   7.645   6.929  0.00  0.00    -0.033 A 
ATOM     16  C   UNL     1      13.130   9.010   6.923  0.00  0.00    +0.008 A 
ATOM     17  C   UNL     1      14.678   7.195   6.550  0.00  0.00    +0.008 A 
ATOM     20  C   UNL     1      14.110   9.926   6.540  0.00  0.00    +0.046 A 
ATOM     21  C   UNL     1      15.659   8.109   6.167  0.00  0.00    +0.046 A 
ATOM     22  C   UNL     1      15.374   9.475   6.162  0.00  0.00    +0.120 A 
BRANCH  22   6
ATOM      6  O   UNL     1      16.331  10.368   5.787  0.00  0.00    -0.495 OA
ATOM     27  C   UNL     1      16.827  10.265   4.452  0.00  0.00    +0.277 C 
ENDBRANCH  22   6
ENDBRANCH  12  14
ENDBRANCH   7  12
TORSDOF 6
ENDMDL
MODEL 8
REMARK VINA RESULT:      -6.2     28.338     30.150
REMARK  Name = 75367657
REMARK  7 active torsions:
REMARK  status: ('A' for Active; 'I' for Inactive)
REMARK    1  A    between atoms: O_5  and  C_9
REMARK    2  A    between atoms: O_5  and  C_15
REMARK    3  A    between atoms: O_6  and  C_22
REMARK    4  A    between atoms: O_6  and  C_27
REMARK    5  A    between atoms: N_7  and  C_12
REMARK    6  A    between atoms: C_12  and  C_14
REMARK    7  A    between atoms: C_25  and  C_26
REMARK                            x       y       z     vdW  Elec       q    Type
REMARK                         _______ _______ _______ _____ _____    ______ ____
ROOT
ATOM      4  O   UNL     1      -5.737 -10.951  12.063  0.00  0.00    -0.375 OA
ATOM      7  N   UNL     1      -4.912 -10.908  14.820  0.00  0.00    -0.292 NA
ATOM      8  C   UNL     1      -5.989  -9.921  14.877  0.00  0.00    +0.131 C 
ATOM      9  C   UNL     1      -7.163 -10.338  13.980  0.00  0.00    +0.213 C 
ATOM     10  C   UNL     1      -3.960 -10.709  13.721  0.00  0.00    +0.113 C 
ATOM     11  C   UNL     1      -6.906 -10.254  12.478  0.00  0.00    +0.205 C 
ATOM     13  C   UNL     1      -4.545 -10.248  12.388  0.00  0.00    +0.175 C 
ENDROOT
BRANCH   9   5
ATOM      5  O   UNL     1      -8.276  -9.500  14.296  0.00  0.00    -0.485 OA
BRANCH   5  15
ATOM     15  C   UNL     1      -8.875  -9.712  15.508  0.00  0.00    +0.121 A 
ATOM     18  C   UNL     1      -9.102 -11.013  15.956  0.00  0.00    +0.046 A 
ATOM     19  C   UNL     1      -9.259  -8.626  16.295  0.00  0.00    +0.046 A 
ATOM     23  C   UNL     1      -9.714 -11.229  17.190  0.00  0.00    +0.016 A 
ATOM     24  C   UNL     1      -9.871  -8.843  17.529  0.00  0.00    +0.016 A 
ATOM     25  C   UNL     1     -10.099 -10.144  17.977  0.00  0.00    +0.055 A 
BRANCH  25  26
ATOM      1  F   UNL     1     -11.399 -11.574  19.386  0.00  0.00    -0.166 F 
ATOM      2  F   UNL     1     -11.697  -9.437  19.611  0.00  0.00    -0.166 F 
ATOM      3  F   UNL     1      -9.865 -10.359  20.333  0.00  0.00    -0.166 F 
ATOM     26  C   UNL     1     -10.753 -10.374  19.297  0.00  0.00    +0.417 C 
ENDBRANCH  25  26
ENDBRANCH   5  15
ENDBRANCH   9   5
BRANCH   7  12
ATOM     12  C   UNL     1      -4.195 -10.992  16.094  0.00  0.00    +0.119 C 
BRANCH  12  14
ATOM     14  C   UNL     1      -5.108 -11.374  17.228  0.00  0.00    -0.033 A 
ATOM     16  C   UNL     1      -5.744 -12.615  17.224  0.00  0.00    +0.008 A 
ATOM     17  C   UNL     1      -5.321 -10.486  18.282  0.00  0.00    +0.008 A 
ATOM     20  C   UNL     1      -6.591 -12.969  18.273  0.00  0.00    +0.046 A 
ATOM     21  C   UNL     1      -6.168 -10.839  19.332  0.00  0.00    +0.046 A 
ATOM     22  C   UNL     1      -6.803 -12.081  19.328  0.00  0.00    +0.120 A 
BRANCH  22   6
ATOM      6  O   UNL     1      -7.630 -12.426  20.352  0.00  0.00    -0.495 OA
ATOM     27  C   UNL     1      -8.618 -13.420  20.082  0.00  0.00    +0.277 C 
ENDBRANCH  22   6
ENDBRANCH  12  14
ENDBRANCH   7  12
TORSDOF 6
ENDMDL
MODEL 9
REMARK VINA RESULT:      -6.1     25.781     27.862
REMARK  Name = 75367657
REMARK  7 active torsions:
REMARK  status: ('A' for Active; 'I' for Inactive)
REMARK    1  A    between atoms: O_5  and  C_9
REMARK    2  A    between atoms: O_5  and  C_15
REMARK    3  A    between atoms: O_6  and  C_22
REMARK    4  A    between atoms: O_6  and  C_27
REMARK    5  A    between atoms: N_7  and  C_12
REMARK    6  A    between atoms: C_12  and  C_14
REMARK    7  A    between atoms: C_25  and  C_26
REMARK                            x       y       z     vdW  Elec       q    Type
REMARK                         _______ _______ _______ _____ _____    ______ ____
ROOT
ATOM      4  O   UNL     1     -11.378  12.759  17.409  0.00  0.00    -0.375 OA
ATOM      7  N   UNL     1     -11.009  10.231  16.082  0.00  0.00    -0.292 NA
ATOM      8  C   UNL     1     -10.402   9.915  17.374  0.00  0.00    +0.131 C 
ATOM      9  C   UNL     1     -11.185  10.566  18.523  0.00  0.00    +0.213 C 
ATOM     10  C   UNL     1     -10.555  11.494  15.488  0.00  0.00    +0.113 C 
ATOM     11  C   UNL     1     -11.065  12.084  18.622  0.00  0.00    +0.205 C 
ATOM     13  C   UNL     1     -10.332  12.659  16.450  0.00  0.00    +0.175 C 
ENDROOT
BRANCH   9   5
ATOM      5  O   UNL     1     -10.724   9.995  19.748  0.00  0.00    -0.485 OA
BRANCH   5  15
ATOM     15  C   UNL     1     -11.504   9.013  20.295  0.00  0.00    +0.121 A 
ATOM     18  C   UNL     1     -11.191   7.672  20.078  0.00  0.00    +0.046 A 
ATOM     19  C   UNL     1     -12.614   9.354  21.069  0.00  0.00    +0.046 A 
ATOM     23  C   UNL     1     -11.987   6.670  20.634  0.00  0.00    +0.016 A 
ATOM     24  C   UNL     1     -13.410   8.353  21.625  0.00  0.00    +0.016 A 
ATOM     25  C   UNL     1     -13.097   7.011  21.408  0.00  0.00    +0.055 A 
BRANCH  25  26
ATOM      1  F   UNL     1     -14.918   5.481  21.160  0.00  0.00    -0.166 F 
ATOM      2  F   UNL     1     -14.615   6.336  23.130  0.00  0.00    -0.166 F 
ATOM      3  F   UNL     1     -13.230   4.842  22.370  0.00  0.00    -0.166 F 
ATOM     26  C   UNL     1     -13.948   5.942  22.003  0.00  0.00    +0.417 C 
ENDBRANCH  25  26
ENDBRANCH   5  15
ENDBRANCH   9   5
BRANCH   7  12
ATOM     12  C   UNL     1     -10.834   9.137  15.126  0.00  0.00    +0.119 C 
BRANCH  12  14
ATOM     14  C   UNL     1     -12.142   8.475  14.785  0.00  0.00    -0.033 A 
ATOM     16  C   UNL     1     -13.230   8.593  15.649  0.00  0.00    +0.008 A 
ATOM     17  C   UNL     1     -12.266   7.740  13.606  0.00  0.00    +0.008 A 
ATOM     20  C   UNL     1     -14.442   7.979  15.335  0.00  0.00    +0.046 A 
ATOM     21  C   UNL     1     -13.477   7.125  13.290  0.00  0.00    +0.046 A 
ATOM     22  C   UNL     1     -14.565   7.245  14.155  0.00  0.00    +0.120 A 
BRANCH  22   6
ATOM      6  O   UNL     1     -15.747   6.644  13.848  0.00  0.00    -0.495 OA
ATOM     27  C   UNL     1     -16.506   6.111  14.933  0.00  0.00    +0.277 C 
ENDBRANCH  22   6
ENDBRANCH  12  14
ENDBRANCH   7  12
TORSDOF 6
ENDMDL
MODEL 10
REMARK VINA RESULT:      -6.1     22.321     25.989
REMARK  Name = 75367657
REMARK  7 active torsions:
REMARK  status: ('A' for Active; 'I' for Inactive)
REMARK    1  A    between atoms: O_5  and  C_9
REMARK    2  A    between atoms: O_5  and  C_15
REMARK    3  A    between atoms: O_6  and  C_22
REMARK    4  A    between atoms: O_6  and  C_27
REMARK    5  A    between atoms: N_7  and  C_12
REMARK    6  A    between atoms: C_12  and  C_14
REMARK    7  A    between atoms: C_25  and  C_26
REMARK                            x       y       z     vdW  Elec       q    Type
REMARK                         _______ _______ _______ _____ _____    ______ ____
ROOT
ATOM      4  O   UNL     1      -1.309  11.496   6.486  0.00  0.00    -0.375 OA
ATOM      7  N   UNL     1      -0.652  10.889   3.750  0.00  0.00    -0.292 NA
ATOM      8  C   UNL     1      -0.910   9.536   4.240  0.00  0.00    +0.131 C 
ATOM      9  C   UNL     1      -2.088   9.525   5.224  0.00  0.00    +0.213 C 
ATOM     10  C   UNL     1       0.236  11.687   4.603  0.00  0.00    +0.113 C 
ATOM     11  C   UNL     1      -1.819  10.171   6.580  0.00  0.00    +0.205 C 
ATOM     13  C   UNL     1       0.062  11.521   6.111  0.00  0.00    +0.175 C 
ENDROOT
BRANCH   9   5
ATOM      5  O   UNL     1      -2.468   8.165   5.438  0.00  0.00    -0.485 OA
BRANCH   5  15
ATOM     15  C   UNL     1      -3.746   7.826   5.087  0.00  0.00    +0.121 A 
ATOM     18  C   UNL     1      -4.597   8.785   4.538  0.00  0.00    +0.046 A 
ATOM     19  C   UNL     1      -4.199   6.520   5.280  0.00  0.00    +0.046 A 
ATOM     23  C   UNL     1      -5.900   8.440   4.182  0.00  0.00    +0.016 A 
ATOM     24  C   UNL     1      -5.503   6.175   4.924  0.00  0.00    +0.016 A 
ATOM     25  C   UNL     1      -6.354   7.135   4.374  0.00  0.00    +0.055 A 
BRANCH  25  26
ATOM      1  F   UNL     1      -8.249   7.509   2.965  0.00  0.00    -0.166 F 
ATOM      2  F   UNL     1      -8.649   6.910   5.010  0.00  0.00    -0.166 F 
ATOM      3  F   UNL     1      -7.854   5.465   3.593  0.00  0.00    -0.166 F 
ATOM     26  C   UNL     1      -7.747   6.765   3.994  0.00  0.00    +0.417 C 
ENDBRANCH  25  26
ENDBRANCH   5  15
ENDBRANCH   9   5
BRANCH   7  12
ATOM     12  C   UNL     1      -0.143  10.873   2.377  0.00  0.00    +0.119 C 
BRANCH  12  14
ATOM     14  C   UNL     1      -1.204  10.464   1.391  0.00  0.00    -0.033 A 
ATOM     16  C   UNL     1      -0.878   9.631   0.321  0.00  0.00    +0.008 A 
ATOM     17  C   UNL     1      -2.514  10.919   1.546  0.00  0.00    +0.008 A 
ATOM     20  C   UNL     1      -1.861   9.252  -0.593  0.00  0.00    +0.046 A 
ATOM     21  C   UNL     1      -3.497  10.541   0.632  0.00  0.00    +0.046 A 
ATOM     22  C   UNL     1      -3.170   9.707  -0.437  0.00  0.00    +0.120 A 
BRANCH  22   6
ATOM      6  O   UNL     1      -4.130   9.338  -1.330  0.00  0.00    -0.495 OA
ATOM     27  C   UNL     1      -4.309  10.175  -2.473  0.00  0.00    +0.277 C 
ENDBRANCH  22   6
ENDBRANCH  12  14
ENDBRANCH   7  12
TORSDOF 6
ENDMDL
