REMARK  Name = 71693460
REMARK  8 active torsions:
REMARK  status: ('A' for Active; 'I' for Inactive)
REMARK    1  A    between atoms: O_5  and  C_13
REMARK    2  A    between atoms: N_8  and  C_15
REMARK    3  A    between atoms: N_9  and  C_23
REMARK    4  A    between atoms: C_11  and  C_13
REMARK    5  A    between atoms: C_12  and  C_14
REMARK    6  A    between atoms: C_15  and  C_18
REMARK    7  A    between atoms: C_28  and  C_29
REMARK    8  A    between atoms: C_32  and  C_35
REMARK                            x       y       z     vdW  Elec       q    Type
REMARK                         _______ _______ _______ _____ _____    ______ ____
ROOT
ATOM     14  C   UNL     1       2.151  -1.796  -0.214  0.00  0.00    -0.017 A 
ATOM     19  C   UNL     1       1.599  -0.777  -0.989  0.00  0.00    +0.008 A 
ATOM     20  C   UNL     1       1.336  -2.546   0.634  0.00  0.00    +0.008 A 
ATOM     21  C   UNL     1       0.232  -0.507  -0.916  0.00  0.00    +0.023 A 
ATOM     22  C   UNL     1      -0.030  -2.277   0.707  0.00  0.00    +0.023 A 
ATOM     23  C   UNL     1      -0.583  -1.258  -0.068  0.00  0.00    +0.034 A 
ENDROOT
BRANCH  14  12
ATOM      4  O   UNL     1       4.042  -1.848  -1.645  0.00  0.00    -0.361 OA
ATOM      6  O   UNL     1       6.436   0.598  -1.644  0.00  0.00    -0.273 OA
ATOM      8  N   UNL     1       5.120  -0.125   0.143  0.00  0.00    -0.287 N 
ATOM     11  C   UNL     1       4.429  -1.266   0.755  0.00  0.00    +0.135 C 
ATOM     12  C   UNL     1       3.637  -2.090  -0.294  0.00  0.00    +0.171 C 
ATOM     16  C   UNL     1       5.718  -0.245  -1.108  0.00  0.00    +0.242 C 
ATOM     17  C   UNL     1       5.419  -1.562  -1.784  0.00  0.00    +0.256 C 
BRANCH  11  13
ATOM     13  C   UNL     1       5.420  -2.151   1.522  0.00  0.00    +0.181 C 
BRANCH  13   5
ATOM      5  O   UNL     1       5.766  -1.490   2.722  0.00  0.00    -0.393 OA
ATOM     36  H   UNL     1       6.388  -2.065   3.199  0.00  0.00    +0.209 HD
ENDBRANCH  13   5
ENDBRANCH  11  13
BRANCH   8  15
ATOM     15  C   UNL     1       5.277   1.085   0.936  0.00  0.00    +0.143 C 
BRANCH  15  18
ATOM     10  N   UNL     1       2.118   3.905   0.210  0.00  0.00    -0.263 NA
ATOM     18  C   UNL     1       4.173   2.070   0.682  0.00  0.00    -0.027 A 
ATOM     24  C   UNL     1       4.160   2.817  -0.491  0.00  0.00    +0.025 A 
ATOM     25  C   UNL     1       3.160   2.240   1.619  0.00  0.00    +0.025 A 
ATOM     26  C   UNL     1       3.119   3.713  -0.677  0.00  0.00    +0.111 A 
ATOM     27  C   UNL     1       2.164   3.161   1.338  0.00  0.00    +0.111 A 
ENDBRANCH  15  18
ENDBRANCH   8  15
ENDBRANCH  14  12
BRANCH  23   9
ATOM      7  O   UNL     1      -2.232   0.793  -1.505  0.00  0.00    -0.270 OA
ATOM      9  N   UNL     1      -1.950  -0.988   0.004  0.00  0.00    -0.282 N 
ATOM     28  C   UNL     1      -2.675  -0.012  -0.693  0.00  0.00    +0.248 C 
ATOM     37  H   UNL     1      -2.459  -1.620   0.615  0.00  0.00    +0.155 HD
BRANCH  28  29
ATOM     29  C   UNL     1      -4.136   0.011  -0.421  0.00  0.00    +0.037 A 
ATOM     30  C   UNL     1      -5.018   0.490  -1.389  0.00  0.00    +0.013 A 
ATOM     31  C   UNL     1      -4.624  -0.445   0.803  0.00  0.00    +0.013 A 
ATOM     32  C   UNL     1      -6.878   0.056   0.091  0.00  0.00    +0.055 A 
ATOM     33  C   UNL     1      -6.389   0.512  -1.133  0.00  0.00    +0.013 A 
ATOM     34  C   UNL     1      -5.995  -0.422   1.060  0.00  0.00    +0.013 A 
BRANCH  32  35
ATOM      1  F   UNL     1      -8.687   0.848   1.441  0.00  0.00    -0.166 F 
ATOM      2  F   UNL     1      -8.873  -1.152   0.622  0.00  0.00    -0.166 F 
ATOM      3  F   UNL     1      -9.065   0.577  -0.683  0.00  0.00    -0.166 F 
ATOM     35  C   UNL     1      -8.344   0.081   0.364  0.00  0.00    +0.417 C 
ENDBRANCH  32  35
ENDBRANCH  28  29
ENDBRANCH  23   9
TORSDOF 8
