MODEL 1
REMARK VINA RESULT:      -7.0      0.000      0.000
REMARK  Name = 75537049
REMARK  5 active torsions:
REMARK  status: ('A' for Active; 'I' for Inactive)
REMARK    1  A    between atoms: O_2  and  C_21
REMARK    2  A    between atoms: O_2  and  C_25
REMARK    3  A    between atoms: N_4  and  C_12
REMARK    4  A    between atoms: N_5  and  C_13
REMARK    5  A    between atoms: C_12  and  C_14
REMARK                            x       y       z     vdW  Elec       q    Type
REMARK                         _______ _______ _______ _____ _____    ______ ____
ROOT
ATOM      1  O   UNL     1     -16.410   4.848  21.003  0.00  0.00    -0.252 OA
ATOM      3  N   UNL     1     -16.188   3.811  23.078  0.00  0.00    -0.278 N 
ATOM      4  N   UNL     1     -16.934   2.716  25.561  0.00  0.00    -0.295 NA
ATOM      5  N   UNL     1     -14.578   5.286  22.479  0.00  0.00    -0.254 N 
ATOM      6  C   UNL     1     -15.200   3.706  24.123  0.00  0.00    +0.109 C 
ATOM      7  C   UNL     1     -15.866   3.735  25.498  0.00  0.00    +0.109 C 
ATOM      8  C   UNL     1     -14.260   4.871  23.840  0.00  0.00    +0.139 C 
ATOM      9  C   UNL     1     -17.359   2.960  23.125  0.00  0.00    +0.125 C 
ATOM     10  C   UNL     1     -17.962   2.971  24.532  0.00  0.00    +0.104 C 
ATOM     11  C   UNL     1     -15.792   4.675  22.044  0.00  0.00    +0.309 C 
ENDROOT
BRANCH   5  13
ATOM     13  C   UNL     1     -13.792   6.238  21.766  0.00  0.00    +0.038 A 
ATOM     15  C   UNL     1     -12.465   5.948  21.449  0.00  0.00    +0.023 A 
ATOM     16  C   UNL     1     -14.349   7.459  21.387  0.00  0.00    +0.023 A 
ATOM     19  C   UNL     1     -11.695   6.880  20.752  0.00  0.00    +0.002 A 
ATOM     20  C   UNL     1     -13.580   8.390  20.690  0.00  0.00    +0.002 A 
ATOM     23  C   UNL     1     -12.253   8.100  20.373  0.00  0.00    +0.000 A 
ENDBRANCH   5  13
BRANCH   4  12
ATOM     12  C   UNL     1     -17.538   2.694  26.892  0.00  0.00    +0.119 C 
BRANCH  12  14
ATOM     14  C   UNL     1     -16.521   2.416  27.966  0.00  0.00    -0.030 A 
ATOM     17  C   UNL     1     -16.188   1.100  28.287  0.00  0.00    +0.050 A 
ATOM     18  C   UNL     1     -15.912   3.474  28.642  0.00  0.00    +0.005 A 
ATOM     21  C   UNL     1     -15.245   0.843  29.283  0.00  0.00    +0.120 A 
ATOM     22  C   UNL     1     -14.970   3.216  29.638  0.00  0.00    +0.004 A 
ATOM     24  C   UNL     1     -14.637   1.900  29.958  0.00  0.00    +0.045 A 
BRANCH  21   2
ATOM      2  O   UNL     1     -14.921  -0.442  29.597  0.00  0.00    -0.495 OA
ATOM     25  C   UNL     1     -13.551  -0.817  29.466  0.00  0.00    +0.277 C 
ENDBRANCH  21   2
ENDBRANCH  12  14
ENDBRANCH   4  12
TORSDOF 4
ENDMDL
MODEL 2
REMARK VINA RESULT:      -6.6     30.150     35.265
REMARK  Name = 75537049
REMARK  5 active torsions:
REMARK  status: ('A' for Active; 'I' for Inactive)
REMARK    1  A    between atoms: O_2  and  C_21
REMARK    2  A    between atoms: O_2  and  C_25
REMARK    3  A    between atoms: N_4  and  C_12
REMARK    4  A    between atoms: N_5  and  C_13
REMARK    5  A    between atoms: C_12  and  C_14
REMARK                            x       y       z     vdW  Elec       q    Type
REMARK                         _______ _______ _______ _____ _____    ______ ____
ROOT
ATOM      1  O   UNL     1      12.287   7.354   5.662  0.00  0.00    -0.252 OA
ATOM      3  N   UNL     1      11.916   6.203   3.669  0.00  0.00    -0.278 N 
ATOM      4  N   UNL     1      11.614   5.764   0.906  0.00  0.00    -0.295 NA
ATOM      5  N   UNL     1      10.662   5.608   5.459  0.00  0.00    -0.254 N 
ATOM      6  C   UNL     1      11.175   5.050   3.220  0.00  0.00    +0.109 C 
ATOM      7  C   UNL     1      10.566   5.307   1.842  0.00  0.00    +0.109 C 
ATOM      8  C   UNL     1      10.164   4.822   4.337  0.00  0.00    +0.139 C 
ATOM      9  C   UNL     1      12.866   6.827   2.771  0.00  0.00    +0.125 C 
ATOM     10  C   UNL     1      12.238   7.013   1.388  0.00  0.00    +0.104 C 
ATOM     11  C   UNL     1      11.696   6.492   5.026  0.00  0.00    +0.309 C 
ENDROOT
BRANCH   5  13
ATOM     13  C   UNL     1      10.096   5.523   6.764  0.00  0.00    +0.038 A 
ATOM     15  C   UNL     1      10.155   4.322   7.472  0.00  0.00    +0.023 A 
ATOM     16  C   UNL     1       9.482   6.638   7.333  0.00  0.00    +0.023 A 
ATOM     19  C   UNL     1       9.601   4.236   8.749  0.00  0.00    +0.002 A 
ATOM     20  C   UNL     1       8.928   6.553   8.610  0.00  0.00    +0.002 A 
ATOM     23  C   UNL     1       8.987   5.352   9.318  0.00  0.00    +0.000 A 
ENDBRANCH   5  13
BRANCH   4  12
ATOM     12  C   UNL     1      11.054   5.955  -0.431  0.00  0.00    +0.119 C 
BRANCH  12  14
ATOM     14  C   UNL     1      11.156   4.707  -1.266  0.00  0.00    -0.030 A 
ATOM     17  C   UNL     1      10.218   4.462  -2.270  0.00  0.00    +0.050 A 
ATOM     18  C   UNL     1      12.185   3.794  -1.035  0.00  0.00    +0.005 A 
ATOM     21  C   UNL     1      10.312   3.305  -3.043  0.00  0.00    +0.120 A 
ATOM     22  C   UNL     1      12.277   2.636  -1.808  0.00  0.00    +0.004 A 
ATOM     24  C   UNL     1      11.341   2.392  -2.812  0.00  0.00    +0.045 A 
BRANCH  21   2
ATOM      2  O   UNL     1       9.397   3.065  -4.022  0.00  0.00    -0.495 OA
ATOM     25  C   UNL     1       9.119   4.133  -4.927  0.00  0.00    +0.277 C 
ENDBRANCH  21   2
ENDBRANCH  12  14
ENDBRANCH   4  12
TORSDOF 4
ENDMDL
MODEL 3
REMARK VINA RESULT:      -6.6     20.101     22.693
REMARK  Name = 75537049
REMARK  5 active torsions:
REMARK  status: ('A' for Active; 'I' for Inactive)
REMARK    1  A    between atoms: O_2  and  C_21
REMARK    2  A    between atoms: O_2  and  C_25
REMARK    3  A    between atoms: N_4  and  C_12
REMARK    4  A    between atoms: N_5  and  C_13
REMARK    5  A    between atoms: C_12  and  C_14
REMARK                            x       y       z     vdW  Elec       q    Type
REMARK                         _______ _______ _______ _____ _____    ______ ____
ROOT
ATOM      1  O   UNL     1      -1.996 -11.106  16.019  0.00  0.00    -0.252 OA
ATOM      3  N   UNL     1      -2.901 -10.957  13.877  0.00  0.00    -0.278 N 
ATOM      4  N   UNL     1      -3.151 -10.202  11.177  0.00  0.00    -0.295 NA
ATOM      5  N   UNL     1      -4.348 -10.910  15.618  0.00  0.00    -0.254 N 
ATOM      6  C   UNL     1      -4.204 -10.982  13.260  0.00  0.00    +0.109 C 
ATOM      7  C   UNL     1      -4.274  -9.977  12.111  0.00  0.00    +0.109 C 
ATOM      8  C   UNL     1      -5.151 -10.697  14.420  0.00  0.00    +0.139 C 
ATOM      9  C   UNL     1      -1.722 -11.018  13.039  0.00  0.00    +0.125 C 
ATOM     10  C   UNL     1      -1.856 -10.041  11.868  0.00  0.00    +0.104 C 
ATOM     11  C   UNL     1      -2.965 -11.010  15.279  0.00  0.00    +0.309 C 
ENDROOT
BRANCH   5  13
ATOM     13  C   UNL     1      -4.914 -10.921  16.926  0.00  0.00    +0.038 A 
ATOM     15  C   UNL     1      -4.301 -11.651  17.945  0.00  0.00    +0.023 A 
ATOM     16  C   UNL     1      -6.081 -10.204  17.188  0.00  0.00    +0.023 A 
ATOM     19  C   UNL     1      -4.854 -11.664  19.225  0.00  0.00    +0.002 A 
ATOM     20  C   UNL     1      -6.635 -10.217  18.468  0.00  0.00    +0.002 A 
ATOM     23  C   UNL     1      -6.021 -10.947  19.486  0.00  0.00    +0.000 A 
ENDBRANCH   5  13
BRANCH   4  12
ATOM     12  C   UNL     1      -3.242  -9.286  10.042  0.00  0.00    +0.119 C 
BRANCH  12  14
ATOM     14  C   UNL     1      -4.536  -9.448   9.291  0.00  0.00    -0.030 A 
ATOM     17  C   UNL     1      -5.534  -8.479   9.403  0.00  0.00    +0.050 A 
ATOM     18  C   UNL     1      -4.739 -10.568   8.484  0.00  0.00    +0.005 A 
ATOM     21  C   UNL     1      -6.734  -8.630   8.708  0.00  0.00    +0.120 A 
ATOM     22  C   UNL     1      -5.940 -10.719   7.790  0.00  0.00    +0.004 A 
ATOM     24  C   UNL     1      -6.937  -9.749   7.901  0.00  0.00    +0.045 A 
BRANCH  21   2
ATOM      2  O   UNL     1      -7.707  -7.685   8.819  0.00  0.00    -0.495 OA
ATOM     25  C   UNL     1      -8.997  -8.127   9.238  0.00  0.00    +0.277 C 
ENDBRANCH  21   2
ENDBRANCH  12  14
ENDBRANCH   4  12
TORSDOF 4
ENDMDL
MODEL 4
REMARK VINA RESULT:      -6.5     15.520     16.711
REMARK  Name = 75537049
REMARK  5 active torsions:
REMARK  status: ('A' for Active; 'I' for Inactive)
REMARK    1  A    between atoms: O_2  and  C_21
REMARK    2  A    between atoms: O_2  and  C_25
REMARK    3  A    between atoms: N_4  and  C_12
REMARK    4  A    between atoms: N_5  and  C_13
REMARK    5  A    between atoms: C_12  and  C_14
REMARK                            x       y       z     vdW  Elec       q    Type
REMARK                         _______ _______ _______ _____ _____    ______ ____
ROOT
ATOM      1  O   UNL     1     -12.540  -8.473  12.912  0.00  0.00    -0.252 OA
ATOM      3  N   UNL     1     -10.907  -8.500  14.575  0.00  0.00    -0.278 N 
ATOM      4  N   UNL     1      -9.395  -9.434  16.757  0.00  0.00    -0.295 NA
ATOM      5  N   UNL     1     -11.927  -6.522  14.156  0.00  0.00    -0.254 N 
ATOM      6  C   UNL     1     -10.193  -7.549  15.390  0.00  0.00    +0.109 C 
ATOM      7  C   UNL     1     -10.006  -8.090  16.808  0.00  0.00    +0.109 C 
ATOM      8  C   UNL     1     -11.042  -6.288  15.292  0.00  0.00    +0.139 C 
ATOM      9  C   UNL     1     -10.483  -9.885  14.569  0.00  0.00    +0.125 C 
ATOM     10  C   UNL     1     -10.251 -10.370  16.002  0.00  0.00    +0.104 C 
ATOM     11  C   UNL     1     -11.879  -7.893  13.763  0.00  0.00    +0.309 C 
ENDROOT
BRANCH   5  13
ATOM     13  C   UNL     1     -12.761  -5.502  13.614  0.00  0.00    +0.038 A 
ATOM     15  C   UNL     1     -14.139  -5.539  13.832  0.00  0.00    +0.023 A 
ATOM     16  C   UNL     1     -12.202  -4.466  12.866  0.00  0.00    +0.023 A 
ATOM     19  C   UNL     1     -14.957  -4.542  13.301  0.00  0.00    +0.002 A 
ATOM     20  C   UNL     1     -13.019  -3.469  12.335  0.00  0.00    +0.002 A 
ATOM     23  C   UNL     1     -14.397  -3.507  12.553  0.00  0.00    +0.000 A 
ENDBRANCH   5  13
BRANCH   4  12
ATOM     12  C   UNL     1      -9.156  -9.936  18.109  0.00  0.00    +0.119 C 
BRANCH  12  14
ATOM     14  C   UNL     1      -7.720 -10.341  18.312  0.00  0.00    -0.030 A 
ATOM     17  C   UNL     1      -6.759  -9.998  17.361  0.00  0.00    +0.050 A 
ATOM     18  C   UNL     1      -7.352 -11.061  19.449  0.00  0.00    +0.005 A 
ATOM     21  C   UNL     1      -5.428 -10.374  17.549  0.00  0.00    +0.120 A 
ATOM     22  C   UNL     1      -6.022 -11.437  19.636  0.00  0.00    +0.004 A 
ATOM     24  C   UNL     1      -5.060 -11.093  18.686  0.00  0.00    +0.045 A 
BRANCH  21   2
ATOM      2  O   UNL     1      -4.490 -10.041  16.621  0.00  0.00    -0.495 OA
ATOM     25  C   UNL     1      -3.353 -10.896  16.510  0.00  0.00    +0.277 C 
ENDBRANCH  21   2
ENDBRANCH  12  14
ENDBRANCH   4  12
TORSDOF 4
ENDMDL
MODEL 5
REMARK VINA RESULT:      -6.4      1.953      3.718
REMARK  Name = 75537049
REMARK  5 active torsions:
REMARK  status: ('A' for Active; 'I' for Inactive)
REMARK    1  A    between atoms: O_2  and  C_21
REMARK    2  A    between atoms: O_2  and  C_25
REMARK    3  A    between atoms: N_4  and  C_12
REMARK    4  A    between atoms: N_5  and  C_13
REMARK    5  A    between atoms: C_12  and  C_14
REMARK                            x       y       z     vdW  Elec       q    Type
REMARK                         _______ _______ _______ _____ _____    ______ ____
ROOT
ATOM      1  O   UNL     1     -15.112   7.904  19.374  0.00  0.00    -0.252 OA
ATOM      3  N   UNL     1     -15.045   6.268  21.032  0.00  0.00    -0.278 N 
ATOM      4  N   UNL     1     -15.798   4.815  23.321  0.00  0.00    -0.295 NA
ATOM      5  N   UNL     1     -13.068   7.144  20.359  0.00  0.00    -0.254 N 
ATOM      6  C   UNL     1     -14.052   5.482  21.721  0.00  0.00    +0.109 C 
ATOM      7  C   UNL     1     -14.418   5.327  23.197  0.00  0.00    +0.109 C 
ATOM      8  C   UNL     1     -12.755   6.238  21.458  0.00  0.00    +0.139 C 
ATOM      9  C   UNL     1     -16.446   5.947  21.206  0.00  0.00    +0.125 C 
ATOM     10  C   UNL     1     -16.759   5.742  22.690  0.00  0.00    +0.104 C 
ATOM     11  C   UNL     1     -14.478   7.198  20.145  0.00  0.00    +0.309 C 
ENDROOT
BRANCH   5  13
ATOM     13  C   UNL     1     -12.068   7.905  19.687  0.00  0.00    +0.038 A 
ATOM     15  C   UNL     1     -11.587   9.082  20.259  0.00  0.00    +0.023 A 
ATOM     16  C   UNL     1     -11.570   7.473  18.458  0.00  0.00    +0.023 A 
ATOM     19  C   UNL     1     -10.608   9.829  19.602  0.00  0.00    +0.002 A 
ATOM     20  C   UNL     1     -10.592   8.219  17.801  0.00  0.00    +0.002 A 
ATOM     23  C   UNL     1     -10.111   9.397  18.373  0.00  0.00    +0.000 A 
ENDBRANCH   5  13
BRANCH   4  12
ATOM     12  C   UNL     1     -16.139   4.606  24.728  0.00  0.00    +0.119 C 
BRANCH  12  14
ATOM     14  C   UNL     1     -16.609   3.200  24.988  0.00  0.00    -0.030 A 
ATOM     17  C   UNL     1     -16.271   2.563  26.183  0.00  0.00    +0.050 A 
ATOM     18  C   UNL     1     -17.380   2.534  24.036  0.00  0.00    +0.005 A 
ATOM     21  C   UNL     1     -16.706   1.259  26.424  0.00  0.00    +0.120 A 
ATOM     22  C   UNL     1     -17.814   1.230  24.277  0.00  0.00    +0.004 A 
ATOM     24  C   UNL     1     -17.477   0.593  25.472  0.00  0.00    +0.045 A 
BRANCH  21   2
ATOM      2  O   UNL     1     -16.376   0.637  27.589  0.00  0.00    -0.495 OA
ATOM     25  C   UNL     1     -16.852   1.227  28.798  0.00  0.00    +0.277 C 
ENDBRANCH  21   2
ENDBRANCH  12  14
ENDBRANCH   4  12
TORSDOF 4
ENDMDL
MODEL 6
REMARK VINA RESULT:      -6.4     17.305     18.943
REMARK  Name = 75537049
REMARK  5 active torsions:
REMARK  status: ('A' for Active; 'I' for Inactive)
REMARK    1  A    between atoms: O_2  and  C_21
REMARK    2  A    between atoms: O_2  and  C_25
REMARK    3  A    between atoms: N_4  and  C_12
REMARK    4  A    between atoms: N_5  and  C_13
REMARK    5  A    between atoms: C_12  and  C_14
REMARK                            x       y       z     vdW  Elec       q    Type
REMARK                         _______ _______ _______ _____ _____    ______ ____
ROOT
ATOM      1  O   UNL     1      -5.055 -11.966  18.427  0.00  0.00    -0.252 OA
ATOM      3  N   UNL     1      -6.781 -10.539  17.782  0.00  0.00    -0.278 N 
ATOM      4  N   UNL     1      -9.403  -9.581  17.427  0.00  0.00    -0.295 NA
ATOM      5  N   UNL     1      -5.023 -10.745  16.369  0.00  0.00    -0.254 N 
ATOM      6  C   UNL     1      -7.038  -9.569  16.747  0.00  0.00    +0.109 C 
ATOM      7  C   UNL     1      -8.487  -9.662  16.270  0.00  0.00    +0.109 C 
ATOM      8  C   UNL     1      -5.992  -9.893  15.688  0.00  0.00    +0.139 C 
ATOM      9  C   UNL     1      -7.705 -10.650  18.892  0.00  0.00    +0.125 C 
ATOM     10  C   UNL     1      -9.146 -10.682  18.377  0.00  0.00    +0.104 C 
ATOM     11  C   UNL     1      -5.542 -11.182  17.625  0.00  0.00    +0.309 C 
ENDROOT
BRANCH   5  13
ATOM     13  C   UNL     1      -3.785 -11.122  15.773  0.00  0.00    +0.038 A 
ATOM     15  C   UNL     1      -2.598 -10.522  16.195  0.00  0.00    +0.023 A 
ATOM     16  C   UNL     1      -3.759 -12.089  14.769  0.00  0.00    +0.023 A 
ATOM     19  C   UNL     1      -1.385 -10.890  15.612  0.00  0.00    +0.002 A 
ATOM     20  C   UNL     1      -2.547 -12.457  14.186  0.00  0.00    +0.002 A 
ATOM     23  C   UNL     1      -1.360 -11.857  14.608  0.00  0.00    +0.000 A 
ENDBRANCH   5  13
BRANCH   4  12
ATOM     12  C   UNL     1     -10.794  -9.610  16.977  0.00  0.00    +0.119 C 
BRANCH  12  14
ATOM     14  C   UNL     1     -11.179  -8.342  16.262  0.00  0.00    -0.030 A 
ATOM     17  C   UNL     1     -11.805  -8.407  15.017  0.00  0.00    +0.050 A 
ATOM     18  C   UNL     1     -10.908  -7.103  16.843  0.00  0.00    +0.005 A 
ATOM     21  C   UNL     1     -12.161  -7.232  14.354  0.00  0.00    +0.120 A 
ATOM     22  C   UNL     1     -11.263  -5.929  16.179  0.00  0.00    +0.004 A 
ATOM     24  C   UNL     1     -11.890  -5.994  14.935  0.00  0.00    +0.045 A 
BRANCH  21   2
ATOM      2  O   UNL     1     -12.770  -7.296  13.138  0.00  0.00    -0.495 OA
ATOM     25  C   UNL     1     -12.592  -6.183  12.263  0.00  0.00    +0.277 C 
ENDBRANCH  21   2
ENDBRANCH  12  14
ENDBRANCH   4  12
TORSDOF 4
ENDMDL
MODEL 7
REMARK VINA RESULT:      -6.3      7.420     10.796
REMARK  Name = 75537049
REMARK  5 active torsions:
REMARK  status: ('A' for Active; 'I' for Inactive)
REMARK    1  A    between atoms: O_2  and  C_21
REMARK    2  A    between atoms: O_2  and  C_25
REMARK    3  A    between atoms: N_4  and  C_12
REMARK    4  A    between atoms: N_5  and  C_13
REMARK    5  A    between atoms: C_12  and  C_14
REMARK                            x       y       z     vdW  Elec       q    Type
REMARK                         _______ _______ _______ _____ _____    ______ ____
ROOT
ATOM      1  O   UNL     1     -17.304   4.263  32.372  0.00  0.00    -0.252 OA
ATOM      3  N   UNL     1     -15.525   5.628  33.008  0.00  0.00    -0.278 N 
ATOM      4  N   UNL     1     -14.026   7.977  33.402  0.00  0.00    -0.295 NA
ATOM      5  N   UNL     1     -15.015   3.627  32.077  0.00  0.00    -0.254 N 
ATOM      6  C   UNL     1     -14.091   5.533  33.126  0.00  0.00    +0.109 C 
ATOM      7  C   UNL     1     -13.427   6.835  32.681  0.00  0.00    +0.109 C 
ATOM      8  C   UNL     1     -13.745   4.314  32.280  0.00  0.00    +0.139 C 
ATOM      9  C   UNL     1     -16.203   6.788  33.548  0.00  0.00    +0.125 C 
ATOM     10  C   UNL     1     -15.475   8.067  33.129  0.00  0.00    +0.104 C 
ATOM     11  C   UNL     1     -16.102   4.465  32.473  0.00  0.00    +0.309 C 
ENDROOT
BRANCH   5  13
ATOM     13  C   UNL     1     -15.100   2.335  31.484  0.00  0.00    +0.038 A 
ATOM     15  C   UNL     1     -15.468   2.206  30.144  0.00  0.00    +0.023 A 
ATOM     16  C   UNL     1     -14.815   1.199  32.241  0.00  0.00    +0.023 A 
ATOM     19  C   UNL     1     -15.552   0.940  29.562  0.00  0.00    +0.002 A 
ATOM     20  C   UNL     1     -14.899  -0.066  31.659  0.00  0.00    +0.002 A 
ATOM     23  C   UNL     1     -15.267  -0.195  30.320  0.00  0.00    +0.000 A 
ENDBRANCH   5  13
BRANCH   4  12
ATOM     12  C   UNL     1     -13.358   9.223  33.028  0.00  0.00    +0.119 C 
BRANCH  12  14
ATOM     14  C   UNL     1     -12.028   9.375  33.717  0.00  0.00    -0.030 A 
ATOM     17  C   UNL     1     -11.918   9.118  35.084  0.00  0.00    +0.050 A 
ATOM     18  C   UNL     1     -10.907   9.773  32.989  0.00  0.00    +0.005 A 
ATOM     21  C   UNL     1     -10.686   9.259  35.723  0.00  0.00    +0.120 A 
ATOM     22  C   UNL     1      -9.675   9.916  33.629  0.00  0.00    +0.004 A 
ATOM     24  C   UNL     1      -9.565   9.658  34.995  0.00  0.00    +0.045 A 
BRANCH  21   2
ATOM      2  O   UNL     1     -10.579   9.010  37.056  0.00  0.00    -0.495 OA
ATOM     25  C   UNL     1      -9.988   7.769  37.440  0.00  0.00    +0.277 C 
ENDBRANCH  21   2
ENDBRANCH  12  14
ENDBRANCH   4  12
TORSDOF 4
ENDMDL
MODEL 8
REMARK VINA RESULT:      -6.2     29.789     34.159
REMARK  Name = 75537049
REMARK  5 active torsions:
REMARK  status: ('A' for Active; 'I' for Inactive)
REMARK    1  A    between atoms: O_2  and  C_21
REMARK    2  A    between atoms: O_2  and  C_25
REMARK    3  A    between atoms: N_4  and  C_12
REMARK    4  A    between atoms: N_5  and  C_13
REMARK    5  A    between atoms: C_12  and  C_14
REMARK                            x       y       z     vdW  Elec       q    Type
REMARK                         _______ _______ _______ _____ _____    ______ ____
ROOT
ATOM      1  O   UNL     1       9.872   6.686  -1.065  0.00  0.00    -0.252 OA
ATOM      3  N   UNL     1      10.123   6.010   1.152  0.00  0.00    -0.278 N 
ATOM      4  N   UNL     1      10.654   6.192   3.909  0.00  0.00    -0.295 NA
ATOM      5  N   UNL     1      10.843   4.585  -0.454  0.00  0.00    -0.254 N 
ATOM      6  C   UNL     1      10.499   4.820   1.872  0.00  0.00    +0.109 C 
ATOM      7  C   UNL     1      11.348   5.175   3.092  0.00  0.00    +0.109 C 
ATOM      8  C   UNL     1      11.208   3.977   0.819  0.00  0.00    +0.139 C 
ATOM      9  C   UNL     1       9.570   7.133   1.881  0.00  0.00    +0.125 C 
ATOM     10  C   UNL     1      10.415   7.420   3.124  0.00  0.00    +0.104 C 
ATOM     11  C   UNL     1      10.230   5.857  -0.240  0.00  0.00    +0.309 C 
ENDROOT
BRANCH   5  13
ATOM     13  C   UNL     1      11.156   3.983  -1.707  0.00  0.00    +0.038 A 
ATOM     15  C   UNL     1      12.415   3.416  -1.912  0.00  0.00    +0.023 A 
ATOM     16  C   UNL     1      10.207   3.961  -2.729  0.00  0.00    +0.023 A 
ATOM     19  C   UNL     1      12.723   2.828  -3.139  0.00  0.00    +0.002 A 
ATOM     20  C   UNL     1      10.515   3.373  -3.955  0.00  0.00    +0.002 A 
ATOM     23  C   UNL     1      11.773   2.806  -4.160  0.00  0.00    +0.000 A 
ENDBRANCH   5  13
BRANCH   4  12
ATOM     12  C   UNL     1      11.431   6.496   5.110  0.00  0.00    +0.119 C 
BRANCH  12  14
ATOM     14  C   UNL     1      10.560   6.572   6.336  0.00  0.00    -0.030 A 
ATOM     17  C   UNL     1      10.337   5.429   7.104  0.00  0.00    +0.050 A 
ATOM     18  C   UNL     1       9.977   7.785   6.704  0.00  0.00    +0.005 A 
ATOM     21  C   UNL     1       9.530   5.499   8.240  0.00  0.00    +0.120 A 
ATOM     22  C   UNL     1       9.169   7.854   7.839  0.00  0.00    +0.004 A 
ATOM     24  C   UNL     1       8.946   6.712   8.607  0.00  0.00    +0.045 A 
BRANCH  21   2
ATOM      2  O   UNL     1       9.311   4.384   8.988  0.00  0.00    -0.495 OA
ATOM     25  C   UNL     1       8.888   4.579  10.337  0.00  0.00    +0.277 C 
ENDBRANCH  21   2
ENDBRANCH  12  14
ENDBRANCH   4  12
TORSDOF 4
ENDMDL
MODEL 9
REMARK VINA RESULT:      -6.1      1.891      8.411
REMARK  Name = 75537049
REMARK  5 active torsions:
REMARK  status: ('A' for Active; 'I' for Inactive)
REMARK    1  A    between atoms: O_2  and  C_21
REMARK    2  A    between atoms: O_2  and  C_25
REMARK    3  A    between atoms: N_4  and  C_12
REMARK    4  A    between atoms: N_5  and  C_13
REMARK    5  A    between atoms: C_12  and  C_14
REMARK                            x       y       z     vdW  Elec       q    Type
REMARK                         _______ _______ _______ _____ _____    ______ ____
ROOT
ATOM      1  O   UNL     1     -17.938   0.418  28.297  0.00  0.00    -0.252 OA
ATOM      3  N   UNL     1     -17.379   2.075  26.755  0.00  0.00    -0.278 N 
ATOM      4  N   UNL     1     -16.869   3.281  24.265  0.00  0.00    -0.295 NA
ATOM      5  N   UNL     1     -16.224   2.039  28.703  0.00  0.00    -0.254 N 
ATOM      6  C   UNL     1     -16.557   3.258  26.706  0.00  0.00    +0.109 C 
ATOM      7  C   UNL     1     -15.868   3.377  25.347  0.00  0.00    +0.109 C 
ATOM      8  C   UNL     1     -15.615   3.085  27.891  0.00  0.00    +0.139 C 
ATOM      9  C   UNL     1     -18.293   1.803  25.665  0.00  0.00    +0.125 C 
ATOM     10  C   UNL     1     -17.581   1.989  24.323  0.00  0.00    +0.104 C 
ATOM     11  C   UNL     1     -17.265   1.388  27.975  0.00  0.00    +0.309 C 
ENDROOT
BRANCH   5  13
ATOM     13  C   UNL     1     -15.745   1.703  30.002  0.00  0.00    +0.038 A 
ATOM     15  C   UNL     1     -15.669   2.684  30.992  0.00  0.00    +0.023 A 
ATOM     16  C   UNL     1     -15.351   0.396  30.285  0.00  0.00    +0.023 A 
ATOM     19  C   UNL     1     -15.200   2.356  32.264  0.00  0.00    +0.002 A 
ATOM     20  C   UNL     1     -14.881   0.068  31.557  0.00  0.00    +0.002 A 
ATOM     23  C   UNL     1     -14.806   1.049  32.546  0.00  0.00    +0.000 A 
ENDBRANCH   5  13
BRANCH   4  12
ATOM     12  C   UNL     1     -16.229   3.453  22.962  0.00  0.00    +0.119 C 
BRANCH  12  14
ATOM     14  C   UNL     1     -15.663   4.838  22.793  0.00  0.00    -0.030 A 
ATOM     17  C   UNL     1     -14.432   5.015  22.161  0.00  0.00    +0.050 A 
ATOM     18  C   UNL     1     -16.368   5.943  23.269  0.00  0.00    +0.005 A 
ATOM     21  C   UNL     1     -13.907   6.298  22.005  0.00  0.00    +0.120 A 
ATOM     22  C   UNL     1     -15.842   7.226  23.114  0.00  0.00    +0.004 A 
ATOM     24  C   UNL     1     -14.612   7.403  22.481  0.00  0.00    +0.045 A 
BRANCH  21   2
ATOM      2  O   UNL     1     -12.705   6.471  21.390  0.00  0.00    -0.495 OA
ATOM     25  C   UNL     1     -12.376   7.793  20.966  0.00  0.00    +0.277 C 
ENDBRANCH  21   2
ENDBRANCH  12  14
ENDBRANCH   4  12
TORSDOF 4
ENDMDL
MODEL 10
REMARK VINA RESULT:      -6.1     18.905     20.834
REMARK  Name = 75537049
REMARK  5 active torsions:
REMARK  status: ('A' for Active; 'I' for Inactive)
REMARK    1  A    between atoms: O_2  and  C_21
REMARK    2  A    between atoms: O_2  and  C_25
REMARK    3  A    between atoms: N_4  and  C_12
REMARK    4  A    between atoms: N_5  and  C_13
REMARK    5  A    between atoms: C_12  and  C_14
REMARK                            x       y       z     vdW  Elec       q    Type
REMARK                         _______ _______ _______ _____ _____    ______ ____
ROOT
ATOM      1  O   UNL     1      -7.683 -11.032  19.969  0.00  0.00    -0.252 OA
ATOM      3  N   UNL     1      -6.140 -11.363  18.253  0.00  0.00    -0.278 N 
ATOM      4  N   UNL     1      -3.652 -11.476  16.944  0.00  0.00    -0.295 NA
ATOM      5  N   UNL     1      -8.118 -10.410  17.699  0.00  0.00    -0.254 N 
ATOM      6  C   UNL     1      -6.100 -11.266  16.815  0.00  0.00    +0.109 C 
ATOM      7  C   UNL     1      -4.760 -10.698  16.351  0.00  0.00    +0.109 C 
ATOM      8  C   UNL     1      -7.312 -10.404  16.484  0.00  0.00    +0.139 C 
ATOM      9  C   UNL     1      -5.028 -11.974  18.952  0.00  0.00    +0.125 C 
ATOM     10  C   UNL     1      -3.704 -11.422  18.419  0.00  0.00    +0.104 C 
ATOM     11  C   UNL     1      -7.370 -10.946  18.789  0.00  0.00    +0.309 C 
ENDROOT
BRANCH   5  13
ATOM     13  C   UNL     1      -9.434  -9.864  17.746  0.00  0.00    +0.038 A 
ATOM     15  C   UNL     1     -10.492 -10.636  18.226  0.00  0.00    +0.023 A 
ATOM     16  C   UNL     1      -9.664  -8.559  17.312  0.00  0.00    +0.023 A 
ATOM     19  C   UNL     1     -11.780 -10.103  18.273  0.00  0.00    +0.002 A 
ATOM     20  C   UNL     1     -10.952  -8.026  17.358  0.00  0.00    +0.002 A 
ATOM     23  C   UNL     1     -12.010  -8.798  17.838  0.00  0.00    +0.000 A 
ENDBRANCH   5  13
BRANCH   4  12
ATOM     12  C   UNL     1      -2.365 -10.978  16.460  0.00  0.00    +0.119 C 
BRANCH  12  14
ATOM     14  C   UNL     1      -2.194 -11.208  14.982  0.00  0.00    -0.030 A 
ATOM     17  C   UNL     1      -2.282 -12.501  14.463  0.00  0.00    +0.050 A 
ATOM     18  C   UNL     1      -1.947 -10.131  14.132  0.00  0.00    +0.005 A 
ATOM     21  C   UNL     1      -2.123 -12.714  13.094  0.00  0.00    +0.120 A 
ATOM     22  C   UNL     1      -1.787 -10.345  12.762  0.00  0.00    +0.004 A 
ATOM     24  C   UNL     1      -1.876 -11.636  12.244  0.00  0.00    +0.045 A 
BRANCH  21   2
ATOM      2  O   UNL     1      -2.207 -13.975  12.588  0.00  0.00    -0.495 OA
ATOM     25  C   UNL     1      -3.476 -14.624  12.669  0.00  0.00    +0.277 C 
ENDBRANCH  21   2
ENDBRANCH  12  14
ENDBRANCH   4  12
TORSDOF 4
ENDMDL
