MODEL 1
REMARK VINA RESULT:      -6.1      0.000      0.000
REMARK  Name = 45361451
REMARK  16 active torsions:
REMARK  status: ('A' for Active; 'I' for Inactive)
REMARK    1  A    between atoms: O_1  and  C_11
REMARK    2  A    between atoms: O_4  and  C_32
REMARK    3  A    between atoms: O_4  and  C_34
REMARK    4  A    between atoms: O_5  and  C_33
REMARK    5  A    between atoms: O_5  and  C_35
REMARK    6  A    between atoms: N_6  and  C_15
REMARK    7  A    between atoms: N_7  and  C_29
REMARK    8  A    between atoms: N_7  and  C_30
REMARK    9  A    between atoms: C_8  and  C_18
REMARK   10  A    between atoms: C_10  and  C_20
REMARK   11  A    between atoms: C_14  and  C_19
REMARK   12  A    between atoms: C_19  and  C_21
REMARK   13  A    between atoms: C_19  and  C_22
REMARK   14  A    between atoms: C_23  and  C_24
REMARK   15  A    between atoms: C_29  and  C_32
REMARK   16  A    between atoms: C_30  and  C_33
REMARK                            x       y       z     vdW  Elec       q    Type
REMARK                         _______ _______ _______ _____ _____    ______ ____
ROOT
ATOM      8  C   UNL     1      -3.739 -10.544  10.385  0.00  0.00    -0.027 C 
ATOM      9  C   UNL     1      -5.064 -10.180  11.134  0.00  0.00    +0.028 C 
ATOM     10  C   UNL     1      -5.838  -9.041  10.378  0.00  0.00    +0.012 C 
ATOM     11  C   UNL     1      -4.803  -9.922  12.646  0.00  0.00    +0.122 C 
ATOM     12  C   UNL     1      -3.060 -11.742  11.090  0.00  0.00    +0.007 C 
ATOM     13  C   UNL     1      -4.080 -10.980   8.941  0.00  0.00    +0.009 C 
ATOM     14  C   UNL     1      -4.032 -11.079  13.323  0.00  0.00    +0.029 C 
ATOM     15  C   UNL     1      -6.109  -9.460   8.906  0.00  0.00    +0.076 C 
ATOM     16  C   UNL     1      -2.768 -11.478  12.561  0.00  0.00    +0.007 C 
ATOM     17  C   UNL     1      -4.855  -9.925   8.166  0.00  0.00    +0.023 C 
ATOM     18  C   UNL     1      -2.738  -9.361  10.339  0.00  0.00    +0.011 C 
ATOM     20  C   UNL     1      -7.167  -8.652  11.047  0.00  0.00    +0.010 C 
ENDROOT
BRANCH  15   6
ATOM      3  O   UNL     1      -8.378  -9.642   7.105  0.00  0.00    -0.276 OA
ATOM      6  N   UNL     1      -6.718  -8.387   8.148  0.00  0.00    -0.312 N 
ATOM     23  C   UNL     1      -7.803  -8.577   7.312  0.00  0.00    +0.216 C 
ATOM     36  H   UNL     1      -6.289  -7.469   8.204  0.00  0.00    +0.149 HD
BRANCH  23  24
ATOM     24  C   UNL     1      -8.251  -7.297   6.667  0.00  0.00    +0.075 C 
ATOM     25  C   UNL     1      -9.558  -7.497   5.897  0.00  0.00    +0.013 C 
ATOM     26  C   UNL     1      -8.345  -6.185   7.713  0.00  0.00    +0.013 C 
ATOM     27  C   UNL     1     -10.788  -7.584   6.800  0.00  0.00    +0.001 C 
ATOM     28  C   UNL     1      -9.583  -6.302   8.602  0.00  0.00    +0.001 C 
ATOM     31  C   UNL     1     -10.860  -6.416   7.777  0.00  0.00    +0.000 C 
ENDBRANCH  23  24
ENDBRANCH  15   6
BRANCH  11   1
ATOM      1  O   UNL     1      -6.051  -9.807  13.332  0.00  0.00    -0.391 OA
ATOM     37  H   UNL     1      -5.876  -9.863  14.288  0.00  0.00    +0.210 HD
ENDBRANCH  11   1
BRANCH  14  19
ATOM     19  C   UNL     1      -3.671 -10.748  14.776  0.00  0.00    +0.078 C 
ATOM     21  C   UNL     1      -2.153 -10.804  14.950  0.00  0.00    +0.017 C 
BRANCH  19  22
ATOM      2  O   UNL     1      -4.133 -12.941  15.620  0.00  0.00    -0.275 OA
ATOM      7  N   UNL     1      -5.272 -11.212  16.653  0.00  0.00    -0.297 N 
ATOM     22  C   UNL     1      -4.369 -11.732  15.720  0.00  0.00    +0.219 C 
BRANCH   7  29
ATOM     29  C   UNL     1      -5.580  -9.798  16.860  0.00  0.00    +0.136 C 
BRANCH  29  32
ATOM     32  C   UNL     1      -7.078  -9.560  16.940  0.00  0.00    +0.178 C 
BRANCH  32   4
ATOM      4  O   UNL     1      -7.648  -9.705  15.646  0.00  0.00    -0.381 OA
ATOM     34  C   UNL     1      -9.065  -9.611  15.687  0.00  0.00    +0.194 C 
ENDBRANCH  32   4
ENDBRANCH  29  32
ENDBRANCH   7  29
BRANCH   7  30
ATOM     30  C   UNL     1      -5.969 -12.125  17.552  0.00  0.00    +0.136 C 
BRANCH  30  33
ATOM     33  C   UNL     1      -5.323 -12.159  18.925  0.00  0.00    +0.178 C 
BRANCH  33   5
ATOM      5  O   UNL     1      -6.230 -11.639  19.887  0.00  0.00    -0.381 OA
ATOM     35  C   UNL     1      -7.536 -12.171  19.713  0.00  0.00    +0.194 C 
ENDBRANCH  33   5
ENDBRANCH  30  33
ENDBRANCH   7  30
ENDBRANCH  19  22
ENDBRANCH  14  19
TORSDOF 11
ENDMDL
MODEL 2
REMARK VINA RESULT:      -5.8      2.062      8.898
REMARK  Name = 45361451
REMARK  16 active torsions:
REMARK  status: ('A' for Active; 'I' for Inactive)
REMARK    1  A    between atoms: O_1  and  C_11
REMARK    2  A    between atoms: O_4  and  C_32
REMARK    3  A    between atoms: O_4  and  C_34
REMARK    4  A    between atoms: O_5  and  C_33
REMARK    5  A    between atoms: O_5  and  C_35
REMARK    6  A    between atoms: N_6  and  C_15
REMARK    7  A    between atoms: N_7  and  C_29
REMARK    8  A    between atoms: N_7  and  C_30
REMARK    9  A    between atoms: C_8  and  C_18
REMARK   10  A    between atoms: C_10  and  C_20
REMARK   11  A    between atoms: C_14  and  C_19
REMARK   12  A    between atoms: C_19  and  C_21
REMARK   13  A    between atoms: C_19  and  C_22
REMARK   14  A    between atoms: C_23  and  C_24
REMARK   15  A    between atoms: C_29  and  C_32
REMARK   16  A    between atoms: C_30  and  C_33
REMARK                            x       y       z     vdW  Elec       q    Type
REMARK                         _______ _______ _______ _____ _____    ______ ____
ROOT
ATOM      8  C   UNL     1      -3.600 -10.319  11.157  0.00  0.00    -0.027 C 
ATOM      9  C   UNL     1      -4.902  -9.872  11.901  0.00  0.00    +0.028 C 
ATOM     10  C   UNL     1      -5.138 -10.742  13.187  0.00  0.00    +0.012 C 
ATOM     11  C   UNL     1      -6.108  -9.786  10.922  0.00  0.00    +0.122 C 
ATOM     12  C   UNL     1      -3.336  -9.372   9.963  0.00  0.00    +0.007 C 
ATOM     13  C   UNL     1      -2.400 -10.199  12.125  0.00  0.00    +0.009 C 
ATOM     14  C   UNL     1      -5.804  -8.921   9.676  0.00  0.00    +0.029 C 
ATOM     15  C   UNL     1      -3.895 -10.674  14.118  0.00  0.00    +0.076 C 
ATOM     16  C   UNL     1      -4.500  -9.316   8.981  0.00  0.00    +0.007 C 
ATOM     17  C   UNL     1      -2.583 -11.001  13.405  0.00  0.00    +0.023 C 
ATOM     18  C   UNL     1      -3.687 -11.774  10.629  0.00  0.00    +0.011 C 
ATOM     20  C   UNL     1      -6.390 -10.337  13.984  0.00  0.00    +0.010 C 
ENDROOT
BRANCH  15   6
ATOM      3  O   UNL     1      -4.133  -9.921  16.912  0.00  0.00    -0.276 OA
ATOM      6  N   UNL     1      -4.030 -11.556  15.258  0.00  0.00    -0.312 N 
ATOM     23  C   UNL     1      -4.138 -11.097  16.558  0.00  0.00    +0.216 C 
ATOM     36  H   UNL     1      -3.994 -12.556  15.086  0.00  0.00    +0.149 HD
BRANCH  23  24
ATOM     24  C   UNL     1      -4.292 -12.220  17.544  0.00  0.00    +0.075 C 
ATOM     25  C   UNL     1      -4.338 -11.689  18.978  0.00  0.00    +0.013 C 
ATOM     26  C   UNL     1      -5.513 -13.070  17.187  0.00  0.00    +0.013 C 
ATOM     27  C   UNL     1      -5.677 -11.054  19.349  0.00  0.00    +0.001 C 
ATOM     28  C   UNL     1      -6.836 -12.404  17.567  0.00  0.00    +0.001 C 
ATOM     31  C   UNL     1      -6.850 -11.973  19.028  0.00  0.00    +0.000 C 
ENDBRANCH  23  24
ENDBRANCH  15   6
BRANCH  11   1
ATOM      1  O   UNL     1      -7.216  -9.173  11.583  0.00  0.00    -0.391 OA
ATOM     37  H   UNL     1      -7.971  -9.786  11.540  0.00  0.00    +0.210 HD
ENDBRANCH  11   1
BRANCH  14  19
ATOM     19  C   UNL     1      -6.955  -8.956   8.664  0.00  0.00    +0.078 C 
ATOM     21  C   UNL     1      -6.414  -9.354   7.290  0.00  0.00    +0.017 C 
BRANCH  19  22
ATOM      2  O   UNL     1      -6.952  -6.569   8.464  0.00  0.00    -0.275 OA
ATOM      7  N   UNL     1      -9.030  -7.546   8.752  0.00  0.00    -0.297 N 
ATOM     22  C   UNL     1      -7.639  -7.587   8.610  0.00  0.00    +0.219 C 
BRANCH   7  29
ATOM     29  C   UNL     1      -9.916  -8.700   8.893  0.00  0.00    +0.136 C 
BRANCH  29  32
ATOM     32  C   UNL     1     -10.488  -8.795  10.296  0.00  0.00    +0.178 C 
BRANCH  32   4
ATOM      4  O   UNL     1      -9.910  -9.907  10.966  0.00  0.00    -0.381 OA
ATOM     34  C   UNL     1      -9.785 -11.029  10.102  0.00  0.00    +0.194 C 
ENDBRANCH  32   4
ENDBRANCH  29  32
ENDBRANCH   7  29
BRANCH   7  30
ATOM     30  C   UNL     1      -9.709  -6.256   8.727  0.00  0.00    +0.136 C 
BRANCH  30  33
ATOM     33  C   UNL     1     -10.720  -6.179   7.597  0.00  0.00    +0.178 C 
BRANCH  33   5
ATOM      5  O   UNL     1     -12.009  -5.913   8.134  0.00  0.00    -0.381 OA
ATOM     35  C   UNL     1     -11.929  -5.137   9.322  0.00  0.00    +0.194 C 
ENDBRANCH  33   5
ENDBRANCH  30  33
ENDBRANCH   7  30
ENDBRANCH  19  22
ENDBRANCH  14  19
TORSDOF 11
ENDMDL
MODEL 3
REMARK VINA RESULT:      -5.7     23.977     27.115
REMARK  Name = 45361451
REMARK  16 active torsions:
REMARK  status: ('A' for Active; 'I' for Inactive)
REMARK    1  A    between atoms: O_1  and  C_11
REMARK    2  A    between atoms: O_4  and  C_32
REMARK    3  A    between atoms: O_4  and  C_34
REMARK    4  A    between atoms: O_5  and  C_33
REMARK    5  A    between atoms: O_5  and  C_35
REMARK    6  A    between atoms: N_6  and  C_15
REMARK    7  A    between atoms: N_7  and  C_29
REMARK    8  A    between atoms: N_7  and  C_30
REMARK    9  A    between atoms: C_8  and  C_18
REMARK   10  A    between atoms: C_10  and  C_20
REMARK   11  A    between atoms: C_14  and  C_19
REMARK   12  A    between atoms: C_19  and  C_21
REMARK   13  A    between atoms: C_19  and  C_22
REMARK   14  A    between atoms: C_23  and  C_24
REMARK   15  A    between atoms: C_29  and  C_32
REMARK   16  A    between atoms: C_30  and  C_33
REMARK                            x       y       z     vdW  Elec       q    Type
REMARK                         _______ _______ _______ _____ _____    ______ ____
ROOT
ATOM      8  C   UNL     1       9.507   6.145   6.070  0.00  0.00    -0.027 C 
ATOM      9  C   UNL     1      10.527   7.218   5.563  0.00  0.00    +0.028 C 
ATOM     10  C   UNL     1      10.075   8.662   5.985  0.00  0.00    +0.012 C 
ATOM     11  C   UNL     1      10.837   7.029   4.051  0.00  0.00    +0.122 C 
ATOM     12  C   UNL     1      10.038   4.730   5.739  0.00  0.00    +0.007 C 
ATOM     13  C   UNL     1       9.385   6.252   7.608  0.00  0.00    +0.009 C 
ATOM     14  C   UNL     1      11.269   5.584   3.707  0.00  0.00    +0.029 C 
ATOM     15  C   UNL     1       9.883   8.737   7.525  0.00  0.00    +0.076 C 
ATOM     16  C   UNL     1      10.306   4.530   4.252  0.00  0.00    +0.007 C 
ATOM     17  C   UNL     1       8.974   7.640   8.078  0.00  0.00    +0.023 C 
ATOM     18  C   UNL     1       8.103   6.311   5.433  0.00  0.00    +0.011 C 
ATOM     20  C   UNL     1      11.050   9.766   5.541  0.00  0.00    +0.010 C 
ENDROOT
BRANCH  15   6
ATOM      3  O   UNL     1      11.178  10.723   9.201  0.00  0.00    -0.276 OA
ATOM      6  N   UNL     1       9.354  10.021   7.937  0.00  0.00    -0.312 N 
ATOM     23  C   UNL     1      10.054  10.902   8.742  0.00  0.00    +0.216 C 
ATOM     36  H   UNL     1       8.406  10.251   7.655  0.00  0.00    +0.149 HD
BRANCH  23  24
ATOM     24  C   UNL     1       9.287  12.168   8.995  0.00  0.00    +0.075 C 
ATOM     25  C   UNL     1      10.189  13.244   9.604  0.00  0.00    +0.013 C 
ATOM     26  C   UNL     1       8.595  12.631   7.711  0.00  0.00    +0.013 C 
ATOM     27  C   UNL     1      11.122  13.900   8.587  0.00  0.00    +0.001 C 
ATOM     28  C   UNL     1       9.556  13.279   6.715  0.00  0.00    +0.001 C 
ATOM     31  C   UNL     1      10.367  14.397   7.360  0.00  0.00    +0.000 C 
ENDBRANCH  23  24
ENDBRANCH  15   6
BRANCH  11   1
ATOM      1  O   UNL     1      11.924   7.878   3.677  0.00  0.00    -0.391 OA
ATOM     37  H   UNL     1      12.703   7.619   4.198  0.00  0.00    +0.210 HD
ENDBRANCH  11   1
BRANCH  14  19
ATOM     19  C   UNL     1      11.443   5.386   2.196  0.00  0.00    +0.078 C 
ATOM     21  C   UNL     1      10.137   4.865   1.596  0.00  0.00    +0.017 C 
BRANCH  19  22
ATOM      2  O   UNL     1      12.407   3.199   2.047  0.00  0.00    -0.275 OA
ATOM      7  N   UNL     1      13.839   4.957   1.583  0.00  0.00    -0.297 N 
ATOM     22  C   UNL     1      12.597   4.415   1.931  0.00  0.00    +0.219 C 
BRANCH   7  29
ATOM     29  C   UNL     1      14.138   6.374   1.390  0.00  0.00    +0.136 C 
BRANCH  29  32
ATOM     32  C   UNL     1      15.159   6.870   2.399  0.00  0.00    +0.178 C 
BRANCH  32   4
ATOM      4  O   UNL     1      14.563   6.916   3.689  0.00  0.00    -0.381 OA
ATOM     34  C   UNL     1      15.492   7.340   4.677  0.00  0.00    +0.194 C 
ENDBRANCH  32   4
ENDBRANCH  29  32
ENDBRANCH   7  29
BRANCH   7  30
ATOM     30  C   UNL     1      14.964   4.059   1.345  0.00  0.00    +0.136 C 
BRANCH  30  33
ATOM     33  C   UNL     1      15.446   4.139  -0.093  0.00  0.00    +0.178 C 
BRANCH  33   5
ATOM      5  O   UNL     1      14.379   3.802  -0.968  0.00  0.00    -0.381 OA
ATOM     35  C   UNL     1      14.540   4.408  -2.244  0.00  0.00    +0.194 C 
ENDBRANCH  33   5
ENDBRANCH  30  33
ENDBRANCH   7  30
ENDBRANCH  19  22
ENDBRANCH  14  19
TORSDOF 11
ENDMDL
MODEL 4
REMARK VINA RESULT:      -5.4     23.922     27.286
REMARK  Name = 45361451
REMARK  16 active torsions:
REMARK  status: ('A' for Active; 'I' for Inactive)
REMARK    1  A    between atoms: O_1  and  C_11
REMARK    2  A    between atoms: O_4  and  C_32
REMARK    3  A    between atoms: O_4  and  C_34
REMARK    4  A    between atoms: O_5  and  C_33
REMARK    5  A    between atoms: O_5  and  C_35
REMARK    6  A    between atoms: N_6  and  C_15
REMARK    7  A    between atoms: N_7  and  C_29
REMARK    8  A    between atoms: N_7  and  C_30
REMARK    9  A    between atoms: C_8  and  C_18
REMARK   10  A    between atoms: C_10  and  C_20
REMARK   11  A    between atoms: C_14  and  C_19
REMARK   12  A    between atoms: C_19  and  C_21
REMARK   13  A    between atoms: C_19  and  C_22
REMARK   14  A    between atoms: C_23  and  C_24
REMARK   15  A    between atoms: C_29  and  C_32
REMARK   16  A    between atoms: C_30  and  C_33
REMARK                            x       y       z     vdW  Elec       q    Type
REMARK                         _______ _______ _______ _____ _____    ______ ____
ROOT
ATOM      8  C   UNL     1      13.705   4.942   0.665  0.00  0.00    -0.027 C 
ATOM      9  C   UNL     1      12.149   5.091   0.735  0.00  0.00    +0.028 C 
ATOM     10  C   UNL     1      11.659   5.147   2.226  0.00  0.00    +0.012 C 
ATOM     11  C   UNL     1      11.442   4.035  -0.162  0.00  0.00    +0.122 C 
ATOM     12  C   UNL     1      14.164   5.005  -0.811  0.00  0.00    +0.007 C 
ATOM     13  C   UNL     1      14.359   6.129   1.411  0.00  0.00    +0.009 C 
ATOM     14  C   UNL     1      11.978   4.031  -1.613  0.00  0.00    +0.029 C 
ATOM     15  C   UNL     1      12.379   6.296   2.986  0.00  0.00    +0.076 C 
ATOM     16  C   UNL     1      13.503   3.946  -1.684  0.00  0.00    +0.007 C 
ATOM     17  C   UNL     1      13.901   6.250   2.857  0.00  0.00    +0.023 C 
ATOM     18  C   UNL     1      14.204   3.612   1.285  0.00  0.00    +0.011 C 
ATOM     20  C   UNL     1      10.138   5.320   2.369  0.00  0.00    +0.010 C 
ENDROOT
BRANCH  15   6
ATOM      3  O   UNL     1      11.647   8.587   4.613  0.00  0.00    -0.276 OA
ATOM      6  N   UNL     1      12.038   6.302   4.394  0.00  0.00    -0.312 N 
ATOM     23  C   UNL     1      11.701   7.454   5.083  0.00  0.00    +0.216 C 
ATOM     36  H   UNL     1      12.101   5.423   4.897  0.00  0.00    +0.149 HD
BRANCH  23  24
ATOM     24  C   UNL     1      11.369   7.176   6.520  0.00  0.00    +0.075 C 
ATOM     25  C   UNL     1      10.748   8.405   7.188  0.00  0.00    +0.013 C 
ATOM     26  C   UNL     1      10.483   5.933   6.625  0.00  0.00    +0.013 C 
ATOM     27  C   UNL     1       9.289   8.637   6.797  0.00  0.00    +0.001 C 
ATOM     28  C   UNL     1       9.032   6.198   6.223  0.00  0.00    +0.001 C 
ATOM     31  C   UNL     1       8.444   7.381   6.982  0.00  0.00    +0.000 C 
ENDBRANCH  23  24
ENDBRANCH  15   6
BRANCH  11   1
ATOM      1  O   UNL     1      10.047   4.335  -0.244  0.00  0.00    -0.391 OA
ATOM     37  H   UNL     1       9.835   4.979   0.454  0.00  0.00    +0.210 HD
ENDBRANCH  11   1
BRANCH  14  19
ATOM     19  C   UNL     1      11.362   2.898  -2.444  0.00  0.00    +0.078 C 
ATOM     21  C   UNL     1      12.108   1.594  -2.159  0.00  0.00    +0.017 C 
BRANCH  19  22
ATOM      2  O   UNL     1      12.490   3.116  -4.545  0.00  0.00    -0.275 OA
ATOM      7  N   UNL     1      10.264   3.747  -4.535  0.00  0.00    -0.297 N 
ATOM     22  C   UNL     1      11.426   3.254  -3.932  0.00  0.00    +0.219 C 
BRANCH   7  29
ATOM     29  C   UNL     1       8.961   3.908  -3.893  0.00  0.00    +0.136 C 
BRANCH  29  32
ATOM     32  C   UNL     1       8.593   5.373  -3.738  0.00  0.00    +0.178 C 
BRANCH  32   4
ATOM      4  O   UNL     1       8.877   5.791  -2.409  0.00  0.00    -0.381 OA
ATOM     34  C   UNL     1       9.660   6.977  -2.392  0.00  0.00    +0.194 C 
ENDBRANCH  32   4
ENDBRANCH  29  32
ENDBRANCH   7  29
BRANCH   7  30
ATOM     30  C   UNL     1      10.298   4.116  -5.946  0.00  0.00    +0.136 C 
BRANCH  30  33
ATOM     33  C   UNL     1       9.644   3.057  -6.815  0.00  0.00    +0.178 C 
BRANCH  33   5
ATOM      5  O   UNL     1       8.469   3.593  -7.409  0.00  0.00    -0.381 OA
ATOM     35  C   UNL     1       8.559   5.003  -7.562  0.00  0.00    +0.194 C 
ENDBRANCH  33   5
ENDBRANCH  30  33
ENDBRANCH   7  30
ENDBRANCH  19  22
ENDBRANCH  14  19
TORSDOF 11
ENDMDL
MODEL 5
REMARK VINA RESULT:      -5.3      2.537      9.002
REMARK  Name = 45361451
REMARK  16 active torsions:
REMARK  status: ('A' for Active; 'I' for Inactive)
REMARK    1  A    between atoms: O_1  and  C_11
REMARK    2  A    between atoms: O_4  and  C_32
REMARK    3  A    between atoms: O_4  and  C_34
REMARK    4  A    between atoms: O_5  and  C_33
REMARK    5  A    between atoms: O_5  and  C_35
REMARK    6  A    between atoms: N_6  and  C_15
REMARK    7  A    between atoms: N_7  and  C_29
REMARK    8  A    between atoms: N_7  and  C_30
REMARK    9  A    between atoms: C_8  and  C_18
REMARK   10  A    between atoms: C_10  and  C_20
REMARK   11  A    between atoms: C_14  and  C_19
REMARK   12  A    between atoms: C_19  and  C_21
REMARK   13  A    between atoms: C_19  and  C_22
REMARK   14  A    between atoms: C_23  and  C_24
REMARK   15  A    between atoms: C_29  and  C_32
REMARK   16  A    between atoms: C_30  and  C_33
REMARK                            x       y       z     vdW  Elec       q    Type
REMARK                         _______ _______ _______ _____ _____    ______ ____
ROOT
ATOM      8  C   UNL     1      -4.987 -11.468  17.449  0.00  0.00    -0.027 C 
ATOM      9  C   UNL     1      -6.038 -10.683  16.595  0.00  0.00    +0.028 C 
ATOM     10  C   UNL     1      -7.465 -10.773  17.245  0.00  0.00    +0.012 C 
ATOM     11  C   UNL     1      -5.959 -11.088  15.095  0.00  0.00    +0.122 C 
ATOM     12  C   UNL     1      -3.577 -11.267  16.846  0.00  0.00    +0.007 C 
ATOM     13  C   UNL     1      -4.971 -10.892  18.883  0.00  0.00    +0.009 C 
ATOM     14  C   UNL     1      -4.526 -10.983  14.524  0.00  0.00    +0.029 C 
ATOM     15  C   UNL     1      -7.421 -10.260  18.711  0.00  0.00    +0.076 C 
ATOM     16  C   UNL     1      -3.487 -11.699  15.388  0.00  0.00    +0.007 C 
ATOM     17  C   UNL     1      -6.336 -10.927  19.556  0.00  0.00    +0.023 C 
ATOM     18  C   UNL     1      -5.288 -12.988  17.512  0.00  0.00    +0.011 C 
ATOM     20  C   UNL     1      -8.544  -9.997  16.469  0.00  0.00    +0.010 C 
ENDROOT
BRANCH  15   6
ATOM      3  O   UNL     1      -8.881 -12.740  19.099  0.00  0.00    -0.276 OA
ATOM      6  N   UNL     1      -8.694 -10.436  19.378  0.00  0.00    -0.312 N 
ATOM     23  C   UNL     1      -9.312 -11.667  19.512  0.00  0.00    +0.216 C 
ATOM     36  H   UNL     1      -9.168  -9.604  19.715  0.00  0.00    +0.149 HD
BRANCH  23  24
ATOM     24  C   UNL     1     -10.607 -11.571  20.266  0.00  0.00    +0.075 C 
ATOM     25  C   UNL     1     -11.205 -10.167  20.154  0.00  0.00    +0.013 C 
ATOM     26  C   UNL     1     -11.570 -12.665  19.799  0.00  0.00    +0.013 C 
ATOM     27  C   UNL     1     -11.862  -9.893  18.802  0.00  0.00    +0.001 C 
ATOM     28  C   UNL     1     -12.206 -12.362  18.442  0.00  0.00    +0.001 C 
ATOM     31  C   UNL     1     -12.857 -10.984  18.421  0.00  0.00    +0.000 C 
ENDBRANCH  23  24
ENDBRANCH  15   6
BRANCH  11   1
ATOM      1  O   UNL     1      -6.772 -10.206  14.319  0.00  0.00    -0.391 OA
ATOM     37  H   UNL     1      -7.705 -10.416  14.501  0.00  0.00    +0.210 HD
ENDBRANCH  11   1
BRANCH  14  19
ATOM     19  C   UNL     1      -4.446 -11.510  13.086  0.00  0.00    +0.078 C 
ATOM     21  C   UNL     1      -3.498 -12.709  13.033  0.00  0.00    +0.017 C 
BRANCH  19  22
ATOM      2  O   UNL     1      -2.807  -9.988  12.230  0.00  0.00    -0.275 OA
ATOM      7  N   UNL     1      -4.899  -9.860  11.249  0.00  0.00    -0.297 N 
ATOM     22  C   UNL     1      -3.972 -10.394  12.151  0.00  0.00    +0.219 C 
BRANCH   7  29
ATOM     29  C   UNL     1      -6.279 -10.305  11.067  0.00  0.00    +0.136 C 
BRANCH  29  32
ATOM     32  C   UNL     1      -7.232  -9.129  10.947  0.00  0.00    +0.178 C 
BRANCH  32   4
ATOM      4  O   UNL     1      -8.004  -9.267   9.761  0.00  0.00    -0.381 OA
ATOM     34  C   UNL     1      -8.201  -8.015   9.118  0.00  0.00    +0.194 C 
ENDBRANCH  32   4
ENDBRANCH  29  32
ENDBRANCH   7  29
BRANCH   7  30
ATOM     30  C   UNL     1      -4.485  -8.781  10.360  0.00  0.00    +0.136 C 
BRANCH  30  33
ATOM     33  C   UNL     1      -4.005  -9.313   9.022  0.00  0.00    +0.178 C 
BRANCH  33   5
ATOM      5  O   UNL     1      -5.056  -9.217   8.071  0.00  0.00    -0.381 OA
ATOM     35  C   UNL     1      -5.262 -10.449   7.393  0.00  0.00    +0.194 C 
ENDBRANCH  33   5
ENDBRANCH  30  33
ENDBRANCH   7  30
ENDBRANCH  19  22
ENDBRANCH  14  19
TORSDOF 11
ENDMDL
MODEL 6
REMARK VINA RESULT:      -5.2      2.829      8.033
REMARK  Name = 45361451
REMARK  16 active torsions:
REMARK  status: ('A' for Active; 'I' for Inactive)
REMARK    1  A    between atoms: O_1  and  C_11
REMARK    2  A    between atoms: O_4  and  C_32
REMARK    3  A    between atoms: O_4  and  C_34
REMARK    4  A    between atoms: O_5  and  C_33
REMARK    5  A    between atoms: O_5  and  C_35
REMARK    6  A    between atoms: N_6  and  C_15
REMARK    7  A    between atoms: N_7  and  C_29
REMARK    8  A    between atoms: N_7  and  C_30
REMARK    9  A    between atoms: C_8  and  C_18
REMARK   10  A    between atoms: C_10  and  C_20
REMARK   11  A    between atoms: C_14  and  C_19
REMARK   12  A    between atoms: C_19  and  C_21
REMARK   13  A    between atoms: C_19  and  C_22
REMARK   14  A    between atoms: C_23  and  C_24
REMARK   15  A    between atoms: C_29  and  C_32
REMARK   16  A    between atoms: C_30  and  C_33
REMARK                            x       y       z     vdW  Elec       q    Type
REMARK                         _______ _______ _______ _____ _____    ______ ____
ROOT
ATOM      8  C   UNL     1      -4.672 -11.248  17.192  0.00  0.00    -0.027 C 
ATOM      9  C   UNL     1      -5.436 -10.553  16.015  0.00  0.00    +0.028 C 
ATOM     10  C   UNL     1      -6.990 -10.665  16.215  0.00  0.00    +0.012 C 
ATOM     11  C   UNL     1      -4.902 -11.034  14.636  0.00  0.00    +0.122 C 
ATOM     12  C   UNL     1      -3.151 -11.022  17.025  0.00  0.00    +0.007 C 
ATOM     13  C   UNL     1      -5.100 -10.595  18.526  0.00  0.00    +0.009 C 
ATOM     14  C   UNL     1      -3.366 -10.902  14.512  0.00  0.00    +0.029 C 
ATOM     15  C   UNL     1      -7.400 -10.074  17.592  0.00  0.00    +0.076 C 
ATOM     16  C   UNL     1      -2.618 -11.528  15.690  0.00  0.00    +0.007 C 
ATOM     17  C   UNL     1      -6.602 -10.650  18.762  0.00  0.00    +0.023 C 
ATOM     18  C   UNL     1      -4.944 -12.773  17.258  0.00  0.00    +0.011 C 
ATOM     20  C   UNL     1      -7.804  -9.977  15.106  0.00  0.00    +0.010 C 
ENDROOT
BRANCH  15   6
ATOM      3  O   UNL     1      -9.490  -8.059  17.564  0.00  0.00    -0.276 OA
ATOM      6  N   UNL     1      -8.810 -10.265  17.860  0.00  0.00    -0.312 N 
ATOM     23  C   UNL     1      -9.731  -9.235  17.821  0.00  0.00    +0.216 C 
ATOM     36  H   UNL     1      -9.114 -11.194  18.135  0.00  0.00    +0.149 HD
BRANCH  23  24
ATOM     24  C   UNL     1     -11.126  -9.711  18.111  0.00  0.00    +0.075 C 
ATOM     25  C   UNL     1     -12.166  -8.792  17.468  0.00  0.00    +0.013 C 
ATOM     26  C   UNL     1     -11.282 -11.173  17.686  0.00  0.00    +0.013 C 
ATOM     27  C   UNL     1     -12.308  -8.997  15.960  0.00  0.00    +0.001 C 
ATOM     28  C   UNL     1     -11.418 -11.344  16.173  0.00  0.00    +0.001 C 
ATOM     31  C   UNL     1     -12.524 -10.464  15.604  0.00  0.00    +0.000 C 
ENDBRANCH  23  24
ENDBRANCH  15   6
BRANCH  11   1
ATOM      1  O   UNL     1      -5.465 -10.228  13.599  0.00  0.00    -0.391 OA
ATOM     37  H   UNL     1      -4.813  -9.547  13.358  0.00  0.00    +0.210 HD
ENDBRANCH  11   1
BRANCH  14  19
ATOM     19  C   UNL     1      -2.847 -11.502  13.200  0.00  0.00    +0.078 C 
ATOM     21  C   UNL     1      -1.637 -12.391  13.488  0.00  0.00    +0.017 C 
BRANCH  19  22
ATOM      2  O   UNL     1      -1.577  -9.589  12.518  0.00  0.00    -0.275 OA
ATOM      7  N   UNL     1      -3.217 -10.279  11.039  0.00  0.00    -0.297 N 
ATOM     22  C   UNL     1      -2.483 -10.378  12.226  0.00  0.00    +0.219 C 
BRANCH   7  29
ATOM     29  C   UNL     1      -4.276 -11.187  10.602  0.00  0.00    +0.136 C 
BRANCH  29  32
ATOM     32  C   UNL     1      -3.707 -12.423   9.929  0.00  0.00    +0.178 C 
BRANCH  32   4
ATOM      4  O   UNL     1      -4.271 -13.585  10.523  0.00  0.00    -0.381 OA
ATOM     34  C   UNL     1      -5.687 -13.593  10.411  0.00  0.00    +0.194 C 
ENDBRANCH  32   4
ENDBRANCH  29  32
ENDBRANCH   7  29
BRANCH   7  30
ATOM     30  C   UNL     1      -2.909  -9.206  10.100  0.00  0.00    +0.136 C 
BRANCH  30  33
ATOM     33  C   UNL     1      -4.110  -8.857   9.239  0.00  0.00    +0.178 C 
BRANCH  33   5
ATOM      5  O   UNL     1      -5.000  -8.034   9.982  0.00  0.00    -0.381 OA
ATOM     35  C   UNL     1      -6.351  -8.244   9.594  0.00  0.00    +0.194 C 
ENDBRANCH  33   5
ENDBRANCH  30  33
ENDBRANCH   7  30
ENDBRANCH  19  22
ENDBRANCH  14  19
TORSDOF 11
ENDMDL
MODEL 7
REMARK VINA RESULT:      -5.2      2.474      9.258
REMARK  Name = 45361451
REMARK  16 active torsions:
REMARK  status: ('A' for Active; 'I' for Inactive)
REMARK    1  A    between atoms: O_1  and  C_11
REMARK    2  A    between atoms: O_4  and  C_32
REMARK    3  A    between atoms: O_4  and  C_34
REMARK    4  A    between atoms: O_5  and  C_33
REMARK    5  A    between atoms: O_5  and  C_35
REMARK    6  A    between atoms: N_6  and  C_15
REMARK    7  A    between atoms: N_7  and  C_29
REMARK    8  A    between atoms: N_7  and  C_30
REMARK    9  A    between atoms: C_8  and  C_18
REMARK   10  A    between atoms: C_10  and  C_20
REMARK   11  A    between atoms: C_14  and  C_19
REMARK   12  A    between atoms: C_19  and  C_21
REMARK   13  A    between atoms: C_19  and  C_22
REMARK   14  A    between atoms: C_23  and  C_24
REMARK   15  A    between atoms: C_29  and  C_32
REMARK   16  A    between atoms: C_30  and  C_33
REMARK                            x       y       z     vdW  Elec       q    Type
REMARK                         _______ _______ _______ _____ _____    ______ ____
ROOT
ATOM      8  C   UNL     1      -3.334 -10.312  11.463  0.00  0.00    -0.027 C 
ATOM      9  C   UNL     1      -4.715  -9.886  12.065  0.00  0.00    +0.028 C 
ATOM     10  C   UNL     1      -5.089 -10.785  13.297  0.00  0.00    +0.012 C 
ATOM     11  C   UNL     1      -5.803  -9.781  10.959  0.00  0.00    +0.122 C 
ATOM     12  C   UNL     1      -2.944  -9.338  10.327  0.00  0.00    +0.007 C 
ATOM     13  C   UNL     1      -2.252 -10.211  12.562  0.00  0.00    +0.009 C 
ATOM     14  C   UNL     1      -5.365  -8.887   9.775  0.00  0.00    +0.029 C 
ATOM     15  C   UNL     1      -3.959 -10.734  14.363  0.00  0.00    +0.076 C 
ATOM     16  C   UNL     1      -3.990  -9.263   9.222  0.00  0.00    +0.007 C 
ATOM     17  C   UNL     1      -2.574 -11.042  13.795  0.00  0.00    +0.023 C 
ATOM     18  C   UNL     1      -3.354 -11.755  10.896  0.00  0.00    +0.011 C 
ATOM     20  C   UNL     1      -6.424 -10.401  13.957  0.00  0.00    +0.010 C 
ENDROOT
BRANCH  15   6
ATOM      3  O   UNL     1      -4.134 -10.083  17.187  0.00  0.00    -0.276 OA
ATOM      6  N   UNL     1      -4.217 -11.642  15.461  0.00  0.00    -0.312 N 
ATOM     23  C   UNL     1      -4.281 -11.232  16.780  0.00  0.00    +0.216 C 
ATOM     36  H   UNL     1      -4.303 -12.630  15.243  0.00  0.00    +0.149 HD
BRANCH  23  24
ATOM     24  C   UNL     1      -4.586 -12.369  17.713  0.00  0.00    +0.075 C 
ATOM     25  C   UNL     1      -4.578 -11.902  19.170  0.00  0.00    +0.013 C 
ATOM     26  C   UNL     1      -5.902 -13.040  17.312  0.00  0.00    +0.013 C 
ATOM     27  C   UNL     1      -5.830 -11.119  19.564  0.00  0.00    +0.001 C 
ATOM     28  C   UNL     1      -7.134 -12.229  17.717  0.00  0.00    +0.001 C 
ATOM     31  C   UNL     1      -7.107 -11.866  19.197  0.00  0.00    +0.000 C 
ENDBRANCH  23  24
ENDBRANCH  15   6
BRANCH  11   1
ATOM      1  O   UNL     1      -6.982  -9.186  11.504  0.00  0.00    -0.391 OA
ATOM     37  H   UNL     1      -7.754  -9.634  11.117  0.00  0.00    +0.210 HD
ENDBRANCH  11   1
BRANCH  14  19
ATOM     19  C   UNL     1      -6.395  -8.903   8.639  0.00  0.00    +0.078 C 
ATOM     21  C   UNL     1      -7.515  -7.910   8.953  0.00  0.00    +0.017 C 
BRANCH  19  22
ATOM      2  O   UNL     1      -7.824 -10.731   9.233  0.00  0.00    -0.275 OA
ATOM      7  N   UNL     1      -6.421 -11.103   7.431  0.00  0.00    -0.297 N 
ATOM     22  C   UNL     1      -6.950 -10.319   8.462  0.00  0.00    +0.219 C 
BRANCH   7  29
ATOM     29  C   UNL     1      -5.415 -10.683   6.458  0.00  0.00    +0.136 C 
BRANCH  29  32
ATOM     32  C   UNL     1      -5.740 -11.195   5.065  0.00  0.00    +0.178 C 
BRANCH  32   4
ATOM      4  O   UNL     1      -4.612 -11.884   4.542  0.00  0.00    -0.381 OA
ATOM     34  C   UNL     1      -4.919 -12.529   3.314  0.00  0.00    +0.194 C 
ENDBRANCH  32   4
ENDBRANCH  29  32
ENDBRANCH   7  29
BRANCH   7  30
ATOM     30  C   UNL     1      -6.912 -12.464   7.250  0.00  0.00    +0.136 C 
BRANCH  30  33
ATOM     33  C   UNL     1      -6.017 -13.477   7.941  0.00  0.00    +0.178 C 
BRANCH  33   5
ATOM      5  O   UNL     1      -5.374 -14.283   6.962  0.00  0.00    -0.381 OA
ATOM     35  C   UNL     1      -6.309 -14.834   6.044  0.00  0.00    +0.194 C 
ENDBRANCH  33   5
ENDBRANCH  30  33
ENDBRANCH   7  30
ENDBRANCH  19  22
ENDBRANCH  14  19
TORSDOF 11
ENDMDL
MODEL 8
REMARK VINA RESULT:      -5.2     26.096     29.137
REMARK  Name = 45361451
REMARK  16 active torsions:
REMARK  status: ('A' for Active; 'I' for Inactive)
REMARK    1  A    between atoms: O_1  and  C_11
REMARK    2  A    between atoms: O_4  and  C_32
REMARK    3  A    between atoms: O_4  and  C_34
REMARK    4  A    between atoms: O_5  and  C_33
REMARK    5  A    between atoms: O_5  and  C_35
REMARK    6  A    between atoms: N_6  and  C_15
REMARK    7  A    between atoms: N_7  and  C_29
REMARK    8  A    between atoms: N_7  and  C_30
REMARK    9  A    between atoms: C_8  and  C_18
REMARK   10  A    between atoms: C_10  and  C_20
REMARK   11  A    between atoms: C_14  and  C_19
REMARK   12  A    between atoms: C_19  and  C_21
REMARK   13  A    between atoms: C_19  and  C_22
REMARK   14  A    between atoms: C_23  and  C_24
REMARK   15  A    between atoms: C_29  and  C_32
REMARK   16  A    between atoms: C_30  and  C_33
REMARK                            x       y       z     vdW  Elec       q    Type
REMARK                         _______ _______ _______ _____ _____    ______ ____
ROOT
ATOM      8  C   UNL     1      14.476  11.245   6.589  0.00  0.00    -0.027 C 
ATOM      9  C   UNL     1      14.706   9.745   6.207  0.00  0.00    +0.028 C 
ATOM     10  C   UNL     1      16.078   9.561   5.465  0.00  0.00    +0.012 C 
ATOM     11  C   UNL     1      13.466   9.153   5.477  0.00  0.00    +0.122 C 
ATOM     12  C   UNL     1      13.175  11.374   7.415  0.00  0.00    +0.007 C 
ATOM     13  C   UNL     1      15.646  11.724   7.478  0.00  0.00    +0.009 C 
ATOM     14  C   UNL     1      12.151   9.377   6.260  0.00  0.00    +0.029 C 
ATOM     15  C   UNL     1      17.240  10.115   6.336  0.00  0.00    +0.076 C 
ATOM     16  C   UNL     1      11.952  10.831   6.686  0.00  0.00    +0.007 C 
ATOM     17  C   UNL     1      17.007  11.546   6.820  0.00  0.00    +0.023 C 
ATOM     18  C   UNL     1      14.368  12.165   5.345  0.00  0.00    +0.011 C 
ATOM     20  C   UNL     1      16.381   8.102   5.084  0.00  0.00    +0.010 C 
ENDROOT
BRANCH  15   6
ATOM      3  O   UNL     1      19.660   8.737   7.155  0.00  0.00    -0.276 OA
ATOM      6  N   UNL     1      18.505  10.068   5.634  0.00  0.00    -0.312 N 
ATOM     23  C   UNL     1      19.606   9.379   6.110  0.00  0.00    +0.216 C 
ATOM     36  H   UNL     1      18.589  10.610   4.780  0.00  0.00    +0.149 HD
BRANCH  23  24
ATOM     24  C   UNL     1      20.779   9.473   5.177  0.00  0.00    +0.075 C 
ATOM     25  C   UNL     1      21.841   8.427   5.523  0.00  0.00    +0.013 C 
ATOM     26  C   UNL     1      20.306   9.380   3.725  0.00  0.00    +0.013 C 
ATOM     27  C   UNL     1      21.473   7.015   5.070  0.00  0.00    +0.001 C 
ATOM     28  C   UNL     1      19.941   7.955   3.306  0.00  0.00    +0.001 C 
ATOM     31  C   UNL     1      21.071   6.976   3.600  0.00  0.00    +0.000 C 
ENDBRANCH  23  24
ENDBRANCH  15   6
BRANCH  11   1
ATOM      1  O   UNL     1      13.623   7.740   5.338  0.00  0.00    -0.391 OA
ATOM     37  H   UNL     1      13.000   7.306   5.946  0.00  0.00    +0.210 HD
ENDBRANCH  11   1
BRANCH  14  19
ATOM     19  C   UNL     1      10.928   8.904   5.464  0.00  0.00    +0.078 C 
ATOM     21  C   UNL     1      10.159  10.118   4.942  0.00  0.00    +0.017 C 
BRANCH  19  22
ATOM      2  O   UNL     1       9.272   8.568   7.161  0.00  0.00    -0.275 OA
ATOM      7  N   UNL     1      10.148   6.642   6.224  0.00  0.00    -0.297 N 
ATOM     22  C   UNL     1      10.038   8.031   6.353  0.00  0.00    +0.219 C 
BRANCH   7  29
ATOM     29  C   UNL     1      10.999   5.930   5.273  0.00  0.00    +0.136 C 
BRANCH  29  32
ATOM     32  C   UNL     1      10.186   5.316   4.148  0.00  0.00    +0.178 C 
BRANCH  32   4
ATOM      4  O   UNL     1      10.687   4.018   3.858  0.00  0.00    -0.381 OA
ATOM     34  C   UNL     1      11.282   3.965   2.568  0.00  0.00    +0.194 C 
ENDBRANCH  32   4
ENDBRANCH  29  32
ENDBRANCH   7  29
BRANCH   7  30
ATOM     30  C   UNL     1       9.330   5.782   7.072  0.00  0.00    +0.136 C 
BRANCH  30  33
ATOM     33  C   UNL     1      10.128   5.225   8.236  0.00  0.00    +0.178 C 
BRANCH  33   5
ATOM      5  O   UNL     1       9.371   4.214   8.887  0.00  0.00    -0.381 OA
ATOM     35  C   UNL     1       9.001   4.603  10.202  0.00  0.00    +0.194 C 
ENDBRANCH  33   5
ENDBRANCH  30  33
ENDBRANCH   7  30
ENDBRANCH  19  22
ENDBRANCH  14  19
TORSDOF 11
ENDMDL
MODEL 9
REMARK VINA RESULT:      -5.0      3.139     10.473
REMARK  Name = 45361451
REMARK  16 active torsions:
REMARK  status: ('A' for Active; 'I' for Inactive)
REMARK    1  A    between atoms: O_1  and  C_11
REMARK    2  A    between atoms: O_4  and  C_32
REMARK    3  A    between atoms: O_4  and  C_34
REMARK    4  A    between atoms: O_5  and  C_33
REMARK    5  A    between atoms: O_5  and  C_35
REMARK    6  A    between atoms: N_6  and  C_15
REMARK    7  A    between atoms: N_7  and  C_29
REMARK    8  A    between atoms: N_7  and  C_30
REMARK    9  A    between atoms: C_8  and  C_18
REMARK   10  A    between atoms: C_10  and  C_20
REMARK   11  A    between atoms: C_14  and  C_19
REMARK   12  A    between atoms: C_19  and  C_21
REMARK   13  A    between atoms: C_19  and  C_22
REMARK   14  A    between atoms: C_23  and  C_24
REMARK   15  A    between atoms: C_29  and  C_32
REMARK   16  A    between atoms: C_30  and  C_33
REMARK                            x       y       z     vdW  Elec       q    Type
REMARK                         _______ _______ _______ _____ _____    ______ ____
ROOT
ATOM      8  C   UNL     1      -5.477 -11.353  18.274  0.00  0.00    -0.027 C 
ATOM      9  C   UNL     1      -6.304 -12.114  17.184  0.00  0.00    +0.028 C 
ATOM     10  C   UNL     1      -7.024 -13.366  17.802  0.00  0.00    +0.012 C 
ATOM     11  C   UNL     1      -5.444 -12.394  15.918  0.00  0.00    +0.122 C 
ATOM     12  C   UNL     1      -4.875 -10.067  17.660  0.00  0.00    +0.007 C 
ATOM     13  C   UNL     1      -6.424 -10.929  19.419  0.00  0.00    +0.009 C 
ATOM     14  C   UNL     1      -4.760 -11.120  15.369  0.00  0.00    +0.029 C 
ATOM     15  C   UNL     1      -7.915 -12.937  19.001  0.00  0.00    +0.076 C 
ATOM     16  C   UNL     1      -4.000 -10.342  16.444  0.00  0.00    +0.007 C 
ATOM     17  C   UNL     1      -7.172 -12.099  20.041  0.00  0.00    +0.023 C 
ATOM     18  C   UNL     1      -4.326 -12.214  18.854  0.00  0.00    +0.011 C 
ATOM     20  C   UNL     1      -7.879 -14.146  16.789  0.00  0.00    +0.010 C 
ENDROOT
BRANCH  15   6
ATOM      3  O   UNL     1     -10.513 -13.083  20.289  0.00  0.00    -0.276 OA
ATOM      6  N   UNL     1      -8.503 -14.080  19.667  0.00  0.00    -0.312 N 
ATOM     23  C   UNL     1      -9.755 -14.049  20.254  0.00  0.00    +0.216 C 
ATOM     36  H   UNL     1      -7.939 -14.921  19.743  0.00  0.00    +0.149 HD
BRANCH  23  24
ATOM     24  C   UNL     1     -10.133 -15.374  20.851  0.00  0.00    +0.075 C 
ATOM     25  C   UNL     1      -8.951 -15.997  21.598  0.00  0.00    +0.013 C 
ATOM     26  C   UNL     1     -11.375 -15.219  21.731  0.00  0.00    +0.013 C 
ATOM     27  C   UNL     1      -8.684 -15.352  22.958  0.00  0.00    +0.001 C 
ATOM     28  C   UNL     1     -11.075 -14.568  23.081  0.00  0.00    +0.001 C 
ATOM     31  C   UNL     1      -9.945 -15.284  23.812  0.00  0.00    +0.000 C 
ENDBRANCH  23  24
ENDBRANCH  15   6
BRANCH  11   1
ATOM      1  O   UNL     1      -6.281 -12.890  14.873  0.00  0.00    -0.391 OA
ATOM     37  H   UNL     1      -7.185 -12.564  15.028  0.00  0.00    +0.210 HD
ENDBRANCH  11   1
BRANCH  14  19
ATOM     19  C   UNL     1      -3.815 -11.439  14.204  0.00  0.00    +0.078 C 
ATOM     21  C   UNL     1      -2.405 -10.953  14.543  0.00  0.00    +0.017 C 
BRANCH  19  22
ATOM      2  O   UNL     1      -4.979  -9.727  12.999  0.00  0.00    -0.275 OA
ATOM      7  N   UNL     1      -4.061 -11.412  11.706  0.00  0.00    -0.297 N 
ATOM     22  C   UNL     1      -4.332 -10.778  12.923  0.00  0.00    +0.219 C 
BRANCH   7  29
ATOM     29  C   UNL     1      -3.277 -12.632  11.525  0.00  0.00    +0.136 C 
BRANCH  29  32
ATOM     32  C   UNL     1      -4.166 -13.828  11.237  0.00  0.00    +0.178 C 
BRANCH  32   4
ATOM      4  O   UNL     1      -4.805 -14.242  12.437  0.00  0.00    -0.381 OA
ATOM     34  C   UNL     1      -3.931 -15.007  13.256  0.00  0.00    +0.194 C 
ENDBRANCH  32   4
ENDBRANCH  29  32
ENDBRANCH   7  29
BRANCH   7  30
ATOM     30  C   UNL     1      -4.558 -10.819  10.470  0.00  0.00    +0.136 C 
BRANCH  30  33
ATOM     33  C   UNL     1      -3.546  -9.863   9.863  0.00  0.00    +0.178 C 
BRANCH  33   5
ATOM      5  O   UNL     1      -4.227  -8.881   9.094  0.00  0.00    -0.381 OA
ATOM     35  C   UNL     1      -5.425  -8.459   9.730  0.00  0.00    +0.194 C 
ENDBRANCH  33   5
ENDBRANCH  30  33
ENDBRANCH   7  30
ENDBRANCH  19  22
ENDBRANCH  14  19
TORSDOF 11
ENDMDL
MODEL 10
REMARK VINA RESULT:      -5.0      1.604      9.100
REMARK  Name = 45361451
REMARK  16 active torsions:
REMARK  status: ('A' for Active; 'I' for Inactive)
REMARK    1  A    between atoms: O_1  and  C_11
REMARK    2  A    between atoms: O_4  and  C_32
REMARK    3  A    between atoms: O_4  and  C_34
REMARK    4  A    between atoms: O_5  and  C_33
REMARK    5  A    between atoms: O_5  and  C_35
REMARK    6  A    between atoms: N_6  and  C_15
REMARK    7  A    between atoms: N_7  and  C_29
REMARK    8  A    between atoms: N_7  and  C_30
REMARK    9  A    between atoms: C_8  and  C_18
REMARK   10  A    between atoms: C_10  and  C_20
REMARK   11  A    between atoms: C_14  and  C_19
REMARK   12  A    between atoms: C_19  and  C_21
REMARK   13  A    between atoms: C_19  and  C_22
REMARK   14  A    between atoms: C_23  and  C_24
REMARK   15  A    between atoms: C_29  and  C_32
REMARK   16  A    between atoms: C_30  and  C_33
REMARK                            x       y       z     vdW  Elec       q    Type
REMARK                         _______ _______ _______ _____ _____    ______ ____
ROOT
ATOM      8  C   UNL     1      -2.890 -10.917  13.103  0.00  0.00    -0.027 C 
ATOM      9  C   UNL     1      -4.252 -10.185  13.345  0.00  0.00    +0.028 C 
ATOM     10  C   UNL     1      -4.910 -10.659  14.691  0.00  0.00    +0.012 C 
ATOM     11  C   UNL     1      -5.166 -10.267  12.089  0.00  0.00    +0.122 C 
ATOM     12  C   UNL     1      -2.216 -10.347  11.833  0.00  0.00    +0.007 C 
ATOM     13  C   UNL     1      -1.950 -10.639  14.299  0.00  0.00    +0.009 C 
ATOM     14  C   UNL     1      -4.452  -9.792  10.802  0.00  0.00    +0.029 C 
ATOM     15  C   UNL     1      -3.927 -10.445  15.875  0.00  0.00    +0.076 C 
ATOM     16  C   UNL     1      -3.093 -10.461  10.593  0.00  0.00    +0.007 C 
ATOM     17  C   UNL     1      -2.546 -11.055  15.636  0.00  0.00    +0.023 C 
ATOM     18  C   UNL     1      -3.061 -12.448  12.932  0.00  0.00    +0.011 C 
ATOM     20  C   UNL     1      -6.242  -9.957  15.005  0.00  0.00    +0.010 C 
ENDROOT
BRANCH  15   6
ATOM      3  O   UNL     1      -4.935 -13.125  16.353  0.00  0.00    -0.276 OA
ATOM      6  N   UNL     1      -4.455 -10.978  17.113  0.00  0.00    -0.312 N 
ATOM     23  C   UNL     1      -4.914 -12.276  17.241  0.00  0.00    +0.216 C 
ATOM     36  H   UNL     1      -4.533 -10.344  17.903  0.00  0.00    +0.149 HD
BRANCH  23  24
ATOM     24  C   UNL     1      -5.384 -12.577  18.635  0.00  0.00    +0.075 C 
ATOM     25  C   UNL     1      -5.249 -11.348  19.537  0.00  0.00    +0.013 C 
ATOM     26  C   UNL     1      -6.808 -13.135  18.602  0.00  0.00    +0.013 C 
ATOM     27  C   UNL     1      -6.332 -10.297  19.296  0.00  0.00    +0.001 C 
ATOM     28  C   UNL     1      -7.866 -12.059  18.356  0.00  0.00    +0.001 C 
ATOM     31  C   UNL     1      -7.731 -10.901  19.338  0.00  0.00    +0.000 C 
ENDBRANCH  23  24
ENDBRANCH  15   6
BRANCH  11   1
ATOM      1  O   UNL     1      -6.298  -9.413  12.266  0.00  0.00    -0.391 OA
ATOM     37  H   UNL     1      -6.780  -9.372  11.422  0.00  0.00    +0.210 HD
ENDBRANCH  11   1
BRANCH  14  19
ATOM     19  C   UNL     1      -5.323 -10.003   9.557  0.00  0.00    +0.078 C 
ATOM     21  C   UNL     1      -4.458 -10.529   8.412  0.00  0.00    +0.017 C 
BRANCH  19  22
ATOM      2  O   UNL     1      -5.542  -7.619   9.589  0.00  0.00    -0.275 OA
ATOM      7  N   UNL     1      -7.148  -8.753   8.370  0.00  0.00    -0.297 N 
ATOM     22  C   UNL     1      -6.004  -8.687   9.172  0.00  0.00    +0.219 C 
BRANCH   7  29
ATOM     29  C   UNL     1      -7.737  -9.967   7.808  0.00  0.00    +0.136 C 
BRANCH  29  32
ATOM     32  C   UNL     1      -7.782  -9.913   6.291  0.00  0.00    +0.178 C 
BRANCH  32   4
ATOM      4  O   UNL     1      -9.136  -9.898   5.859  0.00  0.00    -0.381 OA
ATOM     34  C   UNL     1      -9.348  -8.928   4.843  0.00  0.00    +0.194 C 
ENDBRANCH  32   4
ENDBRANCH  29  32
ENDBRANCH   7  29
BRANCH   7  30
ATOM     30  C   UNL     1      -7.832  -7.518   8.004  0.00  0.00    +0.136 C 
BRANCH  30  33
ATOM     33  C   UNL     1      -9.082  -7.304   8.839  0.00  0.00    +0.178 C 
BRANCH  33   5
ATOM      5  O   UNL     1     -10.231  -7.495   8.025  0.00  0.00    -0.381 OA
ATOM     35  C   UNL     1     -11.380  -6.879   8.592  0.00  0.00    +0.194 C 
ENDBRANCH  33   5
ENDBRANCH  30  33
ENDBRANCH   7  30
ENDBRANCH  19  22
ENDBRANCH  14  19
TORSDOF 11
ENDMDL
