REMARK  Name = 75536154
REMARK  13 active torsions:
REMARK  status: ('A' for Active; 'I' for Inactive)
REMARK    1  A    between atoms: O_2  and  C_26
REMARK    2  A    between atoms: O_2  and  C_30
REMARK    3  A    between atoms: N_3  and  C_14
REMARK    4  A    between atoms: N_6  and  C_25
REMARK    5  A    between atoms: C_7  and  C_11
REMARK    6  A    between atoms: C_8  and  C_14
REMARK    7  A    between atoms: C_10  and  C_15
REMARK    8  A    between atoms: C_11  and  C_16
REMARK    9  A    between atoms: C_11  and  C_17
REMARK   10  A    between atoms: C_12  and  C_18
REMARK   11  A    between atoms: C_15  and  C_19
REMARK   12  A    between atoms: C_25  and  C_28
REMARK   13  A    between atoms: C_28  and  C_29
REMARK                            x       y       z     vdW  Elec       q    Type
REMARK                         _______ _______ _______ _____ _____    ______ ____
ROOT
ATOM      7  C   UNL     1       1.774   1.327  -0.989  0.00  0.00    +0.000 C 
ATOM      8  C   UNL     1       3.001   2.071  -0.407  0.00  0.00    +0.032 C 
ATOM      9  C   UNL     1       0.471   1.984  -0.510  0.00  0.00    +0.012 C 
ATOM     10  C   UNL     1       0.353   1.993   1.026  0.00  0.00    +0.022 C 
ATOM     12  C   UNL     1       1.632   2.466   1.686  0.00  0.00    -0.073 C 
ATOM     13  C   UNL     1       2.803   2.506   1.026  0.00  0.00    -0.022 C 
ATOM     18  C   UNL     1       1.525   2.934   3.111  0.00  0.00    +0.039 C 
ENDROOT
BRANCH   7  11
ATOM     11  C   UNL     1       1.804   1.291  -2.520  0.00  0.00    -0.013 C 
ATOM     16  C   UNL     1       0.992   0.109  -3.041  0.00  0.00    +0.007 C 
ATOM     17  C   UNL     1       1.280   2.603  -3.094  0.00  0.00    +0.007 C 
ENDBRANCH   7  11
BRANCH   8  14
ATOM     14  C   UNL     1       4.268   1.214  -0.509  0.00  0.00    +0.113 C 
BRANCH  14   3
ATOM      1  O   UNL     1       4.385  -1.542  -1.357  0.00  0.00    -0.253 OA
ATOM      3  N   UNL     1       4.164   0.053   0.318  0.00  0.00    -0.299 N 
ATOM      6  N   UNL     1       4.101  -2.197   0.851  0.00  0.00    -0.299 N 
ATOM     20  C   UNL     1       4.230  -1.258  -0.170  0.00  0.00    +0.300 C 
ATOM     31  H   UNL     1       4.103   0.179   1.324  0.00  0.00    +0.150 HD
ATOM     33  H   UNL     1       3.967  -1.868   1.802  0.00  0.00    +0.150 HD
BRANCH   6  25
ATOM     25  C   UNL     1       4.135  -3.621   0.614  0.00  0.00    +0.105 C 
BRANCH  25  28
ATOM     28  C   UNL     1       2.751  -4.196   0.338  0.00  0.00    +0.015 C 
ATOM     29  C   UNL     1       1.777  -3.962   1.484  0.00  0.00    +0.005 C 
ENDBRANCH  25  28
ENDBRANCH   6  25
ENDBRANCH  14   3
ENDBRANCH   8  14
BRANCH  10  15
ATOM     15  C   UNL     1      -0.062   0.616   1.555  0.00  0.00    +0.082 C 
BRANCH  15  19
ATOM      4  N   UNL     1      -2.553   0.664   1.328  0.00  0.00    -0.342 N 
ATOM      5  N   UNL     1      -1.483  -0.748  -0.014  0.00  0.00    -0.232 NA
ATOM     19  C   UNL     1      -1.348   0.153   0.933  0.00  0.00    +0.109 A 
ATOM     21  C   UNL     1      -3.531   0.052   0.587  0.00  0.00    +0.070 A 
ATOM     22  C   UNL     1      -2.838  -0.825  -0.244  0.00  0.00    +0.089 A 
ATOM     23  C   UNL     1      -4.919   0.186   0.571  0.00  0.00    +0.073 A 
ATOM     24  C   UNL     1      -3.557  -1.623  -1.149  0.00  0.00    +0.033 A 
ATOM     26  C   UNL     1      -5.619  -0.616  -0.336  0.00  0.00    +0.122 A 
ATOM     27  C   UNL     1      -4.952  -1.505  -1.182  0.00  0.00    +0.048 A 
ATOM     32  H   UNL     1      -2.699   1.368   2.040  0.00  0.00    +0.167 HD
BRANCH  26   2
ATOM      2  O   UNL     1      -6.979  -0.527  -0.395  0.00  0.00    -0.495 OA
ATOM     30  C   UNL     1      -7.605   0.398   0.492  0.00  0.00    +0.277 C 
ENDBRANCH  26   2
ENDBRANCH  15  19
ENDBRANCH  10  15
TORSDOF 8
