MODEL 1
REMARK VINA RESULT:      -7.0      0.000      0.000
REMARK  Name = 45360563
REMARK  6 active torsions:
REMARK  status: ('A' for Active; 'I' for Inactive)
REMARK    1  A    between atoms: O_3  and  C_9
REMARK    2  A    between atoms: N_4  and  C_8
REMARK    3  A    between atoms: N_5  and  C_10
REMARK    4  A    between atoms: N_5  and  C_18
REMARK    5  A    between atoms: N_6  and  C_19
REMARK    6  A    between atoms: C_18  and  C_20
REMARK                            x       y       z     vdW  Elec       q    Type
REMARK                         _______ _______ _______ _____ _____    ______ ____
ROOT
ATOM      1  O   UNL     1      14.267   9.670  18.521  0.00  0.00    -0.343 OA
ATOM      2  O   UNL     1      12.803   9.550  16.727  0.00  0.00    -0.347 OA
ATOM      8  C   UNL     1      12.005   8.925  18.922  0.00  0.00    +0.143 C 
ATOM      9  C   UNL     1      12.430   7.458  18.682  0.00  0.00    +0.156 C 
ATOM     10  C   UNL     1      13.952   7.273  18.470  0.00  0.00    +0.116 C 
ATOM     11  C   UNL     1      14.607   8.492  17.782  0.00  0.00    +0.166 C 
ATOM     12  C   UNL     1      12.906   9.884  18.121  0.00  0.00    +0.270 C 
ATOM     13  C   UNL     1      14.012   8.837  16.429  0.00  0.00    +0.196 C 
ENDROOT
BRANCH   8   4
ATOM      4  N   UNL     1      12.065   9.255  20.344  0.00  0.00    -0.290 NA
ATOM      6  N   UNL     1      11.007  10.442  22.759  0.00  0.00    -0.303 NA
ATOM     14  C   UNL     1      10.948   8.639  21.071  0.00  0.00    +0.100 C 
ATOM     15  C   UNL     1      12.066  10.710  20.543  0.00  0.00    +0.100 C 
ATOM     16  C   UNL     1      11.008   8.987  22.562  0.00  0.00    +0.099 C 
ATOM     17  C   UNL     1      12.124  11.057  22.034  0.00  0.00    +0.099 C 
ATOM     19  C   UNL     1      11.065  10.772  24.181  0.00  0.00    +0.105 C 
ENDBRANCH   8   4
BRANCH   9   3
ATOM      3  O   UNL     1      11.746   6.995  17.508  0.00  0.00    -0.388 OA
ATOM     26  H   UNL     1      11.706   7.736  16.880  0.00  0.00    +0.210 HD
ENDBRANCH   9   3
BRANCH  10   5
ATOM      5  N   UNL     1      14.629   7.055  19.753  0.00  0.00    -0.305 NA
ATOM     25  H   UNL     1      14.044   6.474  20.353  0.00  0.00    +0.123 HD
BRANCH   5  18
ATOM     18  C   UNL     1      15.922   6.425  19.548  0.00  0.00    +0.116 C 
BRANCH  18  20
ATOM      7  N   UNL     1      18.992   8.256  21.939  0.00  0.00    -0.263 NA
ATOM     20  C   UNL     1      16.996   7.067  20.384  0.00  0.00    -0.031 A 
ATOM     21  C   UNL     1      18.152   6.359  20.698  0.00  0.00    +0.024 A 
ATOM     22  C   UNL     1      16.838   8.368  20.848  0.00  0.00    +0.024 A 
ATOM     23  C   UNL     1      19.111   6.993  21.471  0.00  0.00    +0.111 A 
ATOM     24  C   UNL     1      17.856   8.912  21.614  0.00  0.00    +0.111 A 
ENDBRANCH  18  20
ENDBRANCH   5  18
ENDBRANCH  10   5
TORSDOF 5
ENDMDL
MODEL 2
REMARK VINA RESULT:      -6.4      1.559      2.291
REMARK  Name = 45360563
REMARK  6 active torsions:
REMARK  status: ('A' for Active; 'I' for Inactive)
REMARK    1  A    between atoms: O_3  and  C_9
REMARK    2  A    between atoms: N_4  and  C_8
REMARK    3  A    between atoms: N_5  and  C_10
REMARK    4  A    between atoms: N_5  and  C_18
REMARK    5  A    between atoms: N_6  and  C_19
REMARK    6  A    between atoms: C_18  and  C_20
REMARK                            x       y       z     vdW  Elec       q    Type
REMARK                         _______ _______ _______ _____ _____    ______ ____
ROOT
ATOM      1  O   UNL     1      13.276   8.932  19.511  0.00  0.00    -0.343 OA
ATOM      2  O   UNL     1      11.404   7.940  18.569  0.00  0.00    -0.347 OA
ATOM      8  C   UNL     1      11.316   8.619  20.887  0.00  0.00    +0.143 C 
ATOM      9  C   UNL     1      11.834   7.233  21.335  0.00  0.00    +0.156 C 
ATOM     10  C   UNL     1      13.252   6.895  20.812  0.00  0.00    +0.116 C 
ATOM     11  C   UNL     1      13.542   7.528  19.433  0.00  0.00    +0.166 C 
ATOM     12  C   UNL     1      11.842   8.961  19.480  0.00  0.00    +0.270 C 
ATOM     13  C   UNL     1      12.563   7.124  18.345  0.00  0.00    +0.196 C 
ENDROOT
BRANCH   8   4
ATOM      4  N   UNL     1      11.721   9.654  21.836  0.00  0.00    -0.290 NA
ATOM      6  N   UNL     1      11.247  12.032  23.410  0.00  0.00    -0.303 NA
ATOM     14  C   UNL     1      10.881   9.617  23.040  0.00  0.00    +0.100 C 
ATOM     15  C   UNL     1      11.667  10.982  21.214  0.00  0.00    +0.100 C 
ATOM     16  C   UNL     1      11.303  10.704  24.034  0.00  0.00    +0.099 C 
ATOM     17  C   UNL     1      12.088  12.070  22.209  0.00  0.00    +0.099 C 
ATOM     19  C   UNL     1      11.650  13.068  24.359  0.00  0.00    +0.105 C 
ENDBRANCH   8   4
BRANCH   9   3
ATOM      3  O   UNL     1      10.918   6.246  20.839  0.00  0.00    -0.388 OA
ATOM     26  H   UNL     1      11.146   5.397  21.254  0.00  0.00    +0.210 HD
ENDBRANCH   9   3
BRANCH  10   5
ATOM      5  N   UNL     1      14.274   7.365  21.754  0.00  0.00    -0.305 NA
ATOM     25  H   UNL     1      14.061   7.019  22.690  0.00  0.00    +0.123 HD
BRANCH   5  18
ATOM     18  C   UNL     1      15.593   6.919  21.340  0.00  0.00    +0.116 C 
BRANCH  18  20
ATOM      7  N   UNL     1      18.513  10.062  21.644  0.00  0.00    -0.263 NA
ATOM     20  C   UNL     1      16.615   8.019  21.447  0.00  0.00    -0.031 A 
ATOM     21  C   UNL     1      16.208   9.347  21.500  0.00  0.00    +0.024 A 
ATOM     22  C   UNL     1      17.970   7.711  21.492  0.00  0.00    +0.024 A 
ATOM     23  C   UNL     1      17.186  10.323  21.597  0.00  0.00    +0.111 A 
ATOM     24  C   UNL     1      18.871   8.760  21.589  0.00  0.00    +0.111 A 
ENDBRANCH  18  20
ENDBRANCH   5  18
ENDBRANCH  10   5
TORSDOF 5
ENDMDL
MODEL 3
REMARK VINA RESULT:      -6.3      2.426      5.465
REMARK  Name = 45360563
REMARK  6 active torsions:
REMARK  status: ('A' for Active; 'I' for Inactive)
REMARK    1  A    between atoms: O_3  and  C_9
REMARK    2  A    between atoms: N_4  and  C_8
REMARK    3  A    between atoms: N_5  and  C_10
REMARK    4  A    between atoms: N_5  and  C_18
REMARK    5  A    between atoms: N_6  and  C_19
REMARK    6  A    between atoms: C_18  and  C_20
REMARK                            x       y       z     vdW  Elec       q    Type
REMARK                         _______ _______ _______ _____ _____    ______ ____
ROOT
ATOM      1  O   UNL     1      12.543   9.456  20.621  0.00  0.00    -0.343 OA
ATOM      2  O   UNL     1      11.487   8.319  22.344  0.00  0.00    -0.347 OA
ATOM      8  C   UNL     1      13.738   7.679  21.736  0.00  0.00    +0.143 C 
ATOM      9  C   UNL     1      13.193   6.653  20.716  0.00  0.00    +0.156 C 
ATOM     10  C   UNL     1      12.367   7.286  19.569  0.00  0.00    +0.116 C 
ATOM     11  C   UNL     1      11.608   8.556  20.016  0.00  0.00    +0.166 C 
ATOM     12  C   UNL     1      12.749   8.848  21.903  0.00  0.00    +0.270 C 
ATOM     13  C   UNL     1      10.654   8.333  21.176  0.00  0.00    +0.196 C 
ENDROOT
BRANCH   8   4
ATOM      4  N   UNL     1      15.042   8.185  21.314  0.00  0.00    -0.290 NA
ATOM      6  N   UNL     1      17.835   8.788  21.754  0.00  0.00    -0.303 NA
ATOM     14  C   UNL     1      16.054   7.122  21.358  0.00  0.00    +0.100 C 
ATOM     15  C   UNL     1      15.455   9.321  22.147  0.00  0.00    +0.100 C 
ATOM     16  C   UNL     1      17.423   7.653  20.919  0.00  0.00    +0.099 C 
ATOM     17  C   UNL     1      16.825   9.851  21.708  0.00  0.00    +0.099 C 
ATOM     19  C   UNL     1      19.140   9.293  21.333  0.00  0.00    +0.105 C 
ENDBRANCH   8   4
BRANCH   9   3
ATOM      3  O   UNL     1      12.351   5.736  21.431  0.00  0.00    -0.388 OA
ATOM     26  H   UNL     1      12.427   5.944  22.378  0.00  0.00    +0.210 HD
ENDBRANCH   9   3
BRANCH  10   5
ATOM      5  N   UNL     1      13.240   7.647  18.446  0.00  0.00    -0.305 NA
ATOM     25  H   UNL     1      13.588   6.800  17.998  0.00  0.00    +0.123 HD
BRANCH   5  18
ATOM     18  C   UNL     1      12.521   8.466  17.485  0.00  0.00    +0.116 C 
BRANCH  18  20
ATOM      7  N   UNL     1      15.008  11.570  15.849  0.00  0.00    -0.263 NA
ATOM     20  C   UNL     1      13.392   9.552  16.912  0.00  0.00    -0.031 A 
ATOM     21  C   UNL     1      13.530  10.763  17.583  0.00  0.00    +0.024 A 
ATOM     22  C   UNL     1      14.061   9.350  15.711  0.00  0.00    +0.024 A 
ATOM     23  C   UNL     1      14.342  11.730  17.015  0.00  0.00    +0.111 A 
ATOM     24  C   UNL     1      14.850  10.380  15.225  0.00  0.00    +0.111 A 
ENDBRANCH  18  20
ENDBRANCH   5  18
ENDBRANCH  10   5
TORSDOF 5
ENDMDL
MODEL 4
REMARK VINA RESULT:      -5.7      2.334      3.837
REMARK  Name = 45360563
REMARK  6 active torsions:
REMARK  status: ('A' for Active; 'I' for Inactive)
REMARK    1  A    between atoms: O_3  and  C_9
REMARK    2  A    between atoms: N_4  and  C_8
REMARK    3  A    between atoms: N_5  and  C_10
REMARK    4  A    between atoms: N_5  and  C_18
REMARK    5  A    between atoms: N_6  and  C_19
REMARK    6  A    between atoms: C_18  and  C_20
REMARK                            x       y       z     vdW  Elec       q    Type
REMARK                         _______ _______ _______ _____ _____    ______ ____
ROOT
ATOM      1  O   UNL     1      13.382  11.305  22.621  0.00  0.00    -0.343 OA
ATOM      2  O   UNL     1      12.703  12.755  20.944  0.00  0.00    -0.347 OA
ATOM      8  C   UNL     1      12.685  10.377  20.503  0.00  0.00    +0.143 C 
ATOM      9  C   UNL     1      14.139  10.442  19.980  0.00  0.00    +0.156 C 
ATOM     10  C   UNL     1      15.168  10.896  21.044  0.00  0.00    +0.116 C 
ATOM     11  C   UNL     1      14.567  11.887  22.067  0.00  0.00    +0.166 C 
ATOM     12  C   UNL     1      12.442  11.479  21.552  0.00  0.00    +0.270 C 
ATOM     13  C   UNL     1      13.989  13.146  21.446  0.00  0.00    +0.196 C 
ENDROOT
BRANCH   8   4
ATOM      4  N   UNL     1      12.402   9.066  21.082  0.00  0.00    -0.290 NA
ATOM      6  N   UNL     1      11.184   6.444  21.046  0.00  0.00    -0.303 NA
ATOM     14  C   UNL     1      12.926   7.993  20.228  0.00  0.00    +0.100 C 
ATOM     15  C   UNL     1      10.960   8.892  21.298  0.00  0.00    +0.100 C 
ATOM     16  C   UNL     1      12.626   6.618  20.832  0.00  0.00    +0.099 C 
ATOM     17  C   UNL     1      10.661   7.515  21.902  0.00  0.00    +0.099 C 
ATOM     19  C   UNL     1      10.899   5.132  21.623  0.00  0.00    +0.105 C 
ENDBRANCH   8   4
BRANCH   9   3
ATOM      3  O   UNL     1      14.167  11.376  18.891  0.00  0.00    -0.388 OA
ATOM     26  H   UNL     1      13.613  11.014  18.178  0.00  0.00    +0.210 HD
ENDBRANCH   9   3
BRANCH  10   5
ATOM      5  N   UNL     1      15.692   9.740  21.781  0.00  0.00    -0.305 NA
ATOM     25  H   UNL     1      15.249   8.888  21.438  0.00  0.00    +0.123 HD
BRANCH   5  18
ATOM     18  C   UNL     1      17.134   9.653  21.635  0.00  0.00    +0.116 C 
BRANCH  18  20
ATOM      7  N   UNL     1      18.351   5.890  19.944  0.00  0.00    -0.263 NA
ATOM     20  C   UNL     1      17.559   8.336  21.043  0.00  0.00    -0.031 A 
ATOM     21  C   UNL     1      18.826   7.828  21.310  0.00  0.00    +0.024 A 
ATOM     22  C   UNL     1      16.689   7.623  20.228  0.00  0.00    +0.024 A 
ATOM     23  C   UNL     1      19.171   6.612  20.742  0.00  0.00    +0.111 A 
ATOM     24  C   UNL     1      17.128   6.416  19.707  0.00  0.00    +0.111 A 
ENDBRANCH  18  20
ENDBRANCH   5  18
ENDBRANCH  10   5
TORSDOF 5
ENDMDL
MODEL 5
REMARK VINA RESULT:      -5.7     13.395     16.181
REMARK  Name = 45360563
REMARK  6 active torsions:
REMARK  status: ('A' for Active; 'I' for Inactive)
REMARK    1  A    between atoms: O_3  and  C_9
REMARK    2  A    between atoms: N_4  and  C_8
REMARK    3  A    between atoms: N_5  and  C_10
REMARK    4  A    between atoms: N_5  and  C_18
REMARK    5  A    between atoms: N_6  and  C_19
REMARK    6  A    between atoms: C_18  and  C_20
REMARK                            x       y       z     vdW  Elec       q    Type
REMARK                         _______ _______ _______ _____ _____    ______ ____
ROOT
ATOM      1  O   UNL     1       9.955   8.086   5.393  0.00  0.00    -0.343 OA
ATOM      2  O   UNL     1       8.998   8.241   7.500  0.00  0.00    -0.347 OA
ATOM      8  C   UNL     1      11.361   7.756   7.329  0.00  0.00    +0.143 C 
ATOM      9  C   UNL     1      11.069   6.238   7.301  0.00  0.00    +0.156 C 
ATOM     10  C   UNL     1      10.225   5.785   6.084  0.00  0.00    +0.116 C 
ATOM     11  C   UNL     1       9.231   6.871   5.614  0.00  0.00    +0.166 C 
ATOM     12  C   UNL     1      10.177   8.543   6.735  0.00  0.00    +0.270 C 
ATOM     13  C   UNL     1       8.254   7.324   6.684  0.00  0.00    +0.196 C 
ENDROOT
BRANCH   8   4
ATOM      4  N   UNL     1      12.584   8.062   6.591  0.00  0.00    -0.290 NA
ATOM      6  N   UNL     1      15.375   8.799   6.423  0.00  0.00    -0.303 NA
ATOM     14  C   UNL     1      13.647   7.105   6.922  0.00  0.00    +0.100 C 
ATOM     15  C   UNL     1      13.027   9.435   6.861  0.00  0.00    +0.100 C 
ATOM     16  C   UNL     1      14.931   7.426   6.151  0.00  0.00    +0.099 C 
ATOM     17  C   UNL     1      14.312   9.755   6.090  0.00  0.00    +0.099 C 
ATOM     19  C   UNL     1      16.599   9.105   5.686  0.00  0.00    +0.105 C 
ENDBRANCH   8   4
BRANCH   9   3
ATOM      3  O   UNL     1      10.351   5.912   8.500  0.00  0.00    -0.388 OA
ATOM     26  H   UNL     1       9.769   5.159   8.299  0.00  0.00    +0.210 HD
ENDBRANCH   9   3
BRANCH  10   5
ATOM      5  N   UNL     1      11.095   5.441   4.954  0.00  0.00    -0.305 NA
ATOM     25  H   UNL     1      11.989   5.096   5.304  0.00  0.00    +0.123 HD
BRANCH   5  18
ATOM     18  C   UNL     1      10.464   4.441   4.110  0.00  0.00    +0.116 C 
BRANCH  18  20
ATOM      7  N   UNL     1      11.780   4.730   0.026  0.00  0.00    -0.263 NA
ATOM     20  C   UNL     1      10.925   4.542   2.681  0.00  0.00    -0.031 A 
ATOM     21  C   UNL     1      10.374   5.499   1.836  0.00  0.00    +0.024 A 
ATOM     22  C   UNL     1      11.902   3.679   2.199  0.00  0.00    +0.024 A 
ATOM     23  C   UNL     1      10.831   5.552   0.529  0.00  0.00    +0.111 A 
ATOM     24  C   UNL     1      12.292   3.813   0.876  0.00  0.00    +0.111 A 
ENDBRANCH  18  20
ENDBRANCH   5  18
ENDBRANCH  10   5
TORSDOF 5
ENDMDL
MODEL 6
REMARK VINA RESULT:      -5.7     13.235     15.576
REMARK  Name = 45360563
REMARK  6 active torsions:
REMARK  status: ('A' for Active; 'I' for Inactive)
REMARK    1  A    between atoms: O_3  and  C_9
REMARK    2  A    between atoms: N_4  and  C_8
REMARK    3  A    between atoms: N_5  and  C_10
REMARK    4  A    between atoms: N_5  and  C_18
REMARK    5  A    between atoms: N_6  and  C_19
REMARK    6  A    between atoms: C_18  and  C_20
REMARK                            x       y       z     vdW  Elec       q    Type
REMARK                         _______ _______ _______ _____ _____    ______ ____
ROOT
ATOM      1  O   UNL     1       8.864   6.295   6.871  0.00  0.00    -0.343 OA
ATOM      2  O   UNL     1       9.916   5.447   8.756  0.00  0.00    -0.347 OA
ATOM      8  C   UNL     1      10.791   7.461   7.744  0.00  0.00    +0.143 C 
ATOM      9  C   UNL     1      11.725   6.626   6.838  0.00  0.00    +0.156 C 
ATOM     10  C   UNL     1      10.976   5.684   5.864  0.00  0.00    +0.116 C 
ATOM     11  C   UNL     1       9.640   5.169   6.446  0.00  0.00    +0.166 C 
ATOM     12  C   UNL     1       9.522   6.659   8.093  0.00  0.00    +0.270 C 
ATOM     13  C   UNL     1       9.782   4.422   7.760  0.00  0.00    +0.196 C 
ENDROOT
BRANCH   8   4
ATOM      4  N   UNL     1      10.424   8.716   7.091  0.00  0.00    -0.290 NA
ATOM      6  N   UNL     1      10.588  11.582   6.745  0.00  0.00    -0.303 NA
ATOM     14  C   UNL     1      11.597   9.343   6.470  0.00  0.00    +0.100 C 
ATOM     15  C   UNL     1       9.796   9.636   8.047  0.00  0.00    +0.100 C 
ATOM     16  C   UNL     1      11.214  10.661   5.788  0.00  0.00    +0.099 C 
ATOM     17  C   UNL     1       9.414  10.955   7.365  0.00  0.00    +0.099 C 
ATOM     19  C   UNL     1      10.222  12.837   6.093  0.00  0.00    +0.105 C 
ENDBRANCH   8   4
BRANCH   9   3
ATOM      3  O   UNL     1      12.558   5.828   7.692  0.00  0.00    -0.388 OA
ATOM     26  H   UNL     1      12.145   4.951   7.770  0.00  0.00    +0.210 HD
ENDBRANCH   9   3
BRANCH  10   5
ATOM      5  N   UNL     1      10.689   6.373   4.601  0.00  0.00    -0.305 NA
ATOM     25  H   UNL     1      11.507   6.905   4.308  0.00  0.00    +0.123 HD
BRANCH   5  18
ATOM     18  C   UNL     1      10.314   5.417   3.572  0.00  0.00    +0.116 C 
BRANCH  18  20
ATOM      7  N   UNL     1      13.726   4.040   1.345  0.00  0.00    -0.263 NA
ATOM     20  C   UNL     1      11.508   4.936   2.793  0.00  0.00    -0.031 A 
ATOM     21  C   UNL     1      11.611   3.597   2.430  0.00  0.00    +0.024 A 
ATOM     22  C   UNL     1      12.513   5.827   2.432  0.00  0.00    +0.024 A 
ATOM     23  C   UNL     1      12.729   3.203   1.714  0.00  0.00    +0.111 A 
ATOM     24  C   UNL     1      13.591   5.334   1.716  0.00  0.00    +0.111 A 
ENDBRANCH  18  20
ENDBRANCH   5  18
ENDBRANCH  10   5
TORSDOF 5
ENDMDL
MODEL 7
REMARK VINA RESULT:      -5.5     27.572     30.163
REMARK  Name = 45360563
REMARK  6 active torsions:
REMARK  status: ('A' for Active; 'I' for Inactive)
REMARK    1  A    between atoms: O_3  and  C_9
REMARK    2  A    between atoms: N_4  and  C_8
REMARK    3  A    between atoms: N_5  and  C_10
REMARK    4  A    between atoms: N_5  and  C_18
REMARK    5  A    between atoms: N_6  and  C_19
REMARK    6  A    between atoms: C_18  and  C_20
REMARK                            x       y       z     vdW  Elec       q    Type
REMARK                         _______ _______ _______ _____ _____    ______ ____
ROOT
ATOM      1  O   UNL     1      -8.169 -11.028  20.035  0.00  0.00    -0.343 OA
ATOM      2  O   UNL     1      -9.233 -13.067  19.734  0.00  0.00    -0.347 OA
ATOM      8  C   UNL     1      -7.783 -12.243  17.984  0.00  0.00    +0.143 C 
ATOM      9  C   UNL     1      -8.971 -11.516  17.313  0.00  0.00    +0.156 C 
ATOM     10  C   UNL     1      -9.612 -10.416  18.194  0.00  0.00    +0.116 C 
ATOM     11  C   UNL     1      -9.532 -10.743  19.702  0.00  0.00    +0.166 C 
ATOM     12  C   UNL     1      -8.008 -12.351  19.504  0.00  0.00    +0.270 C 
ATOM     13  C   UNL     1     -10.189 -12.057  20.089  0.00  0.00    +0.196 C 
ENDROOT
BRANCH   8   4
ATOM      4  N   UNL     1      -6.529 -11.543  17.714  0.00  0.00    -0.290 NA
ATOM      6  N   UNL     1      -3.862 -11.370  16.610  0.00  0.00    -0.303 NA
ATOM     14  C   UNL     1      -6.309 -11.403  16.269  0.00  0.00    +0.100 C 
ATOM     15  C   UNL     1      -5.398 -12.238  18.340  0.00  0.00    +0.100 C 
ATOM     16  C   UNL     1      -4.993 -10.672  15.985  0.00  0.00    +0.099 C 
ATOM     17  C   UNL     1      -4.081 -11.508  18.054  0.00  0.00    +0.099 C 
ATOM     19  C   UNL     1      -2.608 -10.671  16.339  0.00  0.00    +0.105 C 
ENDBRANCH   8   4
BRANCH   9   3
ATOM      3  O   UNL     1      -9.970 -12.502  17.015  0.00  0.00    -0.388 OA
ATOM     26  H   UNL     1     -10.839 -12.103  17.192  0.00  0.00    +0.210 HD
ENDBRANCH   9   3
BRANCH  10   5
ATOM      5  N   UNL     1      -8.949  -9.126  17.971  0.00  0.00    -0.305 NA
ATOM     25  H   UNL     1      -8.021  -9.142  18.392  0.00  0.00    +0.123 HD
BRANCH   5  18
ATOM     18  C   UNL     1      -8.853  -8.842  16.549  0.00  0.00    +0.116 C 
BRANCH  18  20
ATOM      7  N   UNL     1     -12.223  -6.572  15.139  0.00  0.00    -0.263 NA
ATOM     20  C   UNL     1     -10.032  -8.048  16.055  0.00  0.00    -0.031 A 
ATOM     21  C   UNL     1     -10.458  -6.923  16.754  0.00  0.00    +0.024 A 
ATOM     22  C   UNL     1     -10.700  -8.435  14.899  0.00  0.00    +0.024 A 
ATOM     23  C   UNL     1     -11.548  -6.226  16.259  0.00  0.00    +0.111 A 
ATOM     24  C   UNL     1     -11.780  -7.671  14.487  0.00  0.00    +0.111 A 
ENDBRANCH  18  20
ENDBRANCH   5  18
ENDBRANCH  10   5
TORSDOF 5
ENDMDL
MODEL 8
REMARK VINA RESULT:      -5.5     27.354     29.466
REMARK  Name = 45360563
REMARK  6 active torsions:
REMARK  status: ('A' for Active; 'I' for Inactive)
REMARK    1  A    between atoms: O_3  and  C_9
REMARK    2  A    between atoms: N_4  and  C_8
REMARK    3  A    between atoms: N_5  and  C_10
REMARK    4  A    between atoms: N_5  and  C_18
REMARK    5  A    between atoms: N_6  and  C_19
REMARK    6  A    between atoms: C_18  and  C_20
REMARK                            x       y       z     vdW  Elec       q    Type
REMARK                         _______ _______ _______ _____ _____    ______ ____
ROOT
ATOM      1  O   UNL     1      -9.701 -12.368  17.472  0.00  0.00    -0.343 OA
ATOM      2  O   UNL     1      -9.531 -12.457  19.783  0.00  0.00    -0.347 OA
ATOM      8  C   UNL     1      -9.563 -10.294  18.702  0.00  0.00    +0.143 C 
ATOM      9  C   UNL     1      -8.022 -10.308  18.581  0.00  0.00    +0.156 C 
ATOM     10  C   UNL     1      -7.472 -11.461  17.706  0.00  0.00    +0.116 C 
ATOM     11  C   UNL     1      -8.350 -12.731  17.778  0.00  0.00    +0.166 C 
ATOM     12  C   UNL     1     -10.116 -11.732  18.689  0.00  0.00    +0.270 C 
ATOM     13  C   UNL     1      -8.526 -13.286  19.180  0.00  0.00    +0.196 C 
ENDROOT
BRANCH   8   4
ATOM      4  N   UNL     1     -10.161  -9.520  17.616  0.00  0.00    -0.290 NA
ATOM      6  N   UNL     1     -11.528  -7.205  16.554  0.00  0.00    -0.303 NA
ATOM     14  C   UNL     1      -9.469  -8.236  17.448  0.00  0.00    +0.100 C 
ATOM     15  C   UNL     1     -11.593  -9.304  17.856  0.00  0.00    +0.100 C 
ATOM     16  C   UNL     1     -10.096  -7.422  16.312  0.00  0.00    +0.099 C 
ATOM     17  C   UNL     1     -12.220  -8.488  16.720  0.00  0.00    +0.099 C 
ATOM     19  C   UNL     1     -12.126  -6.429  15.469  0.00  0.00    +0.105 C 
ENDBRANCH   8   4
BRANCH   9   3
ATOM      3  O   UNL     1      -7.484 -10.443  19.905  0.00  0.00    -0.388 OA
ATOM     26  H   UNL     1      -6.525 -10.291  19.849  0.00  0.00    +0.210 HD
ENDBRANCH   9   3
BRANCH  10   5
ATOM      5  N   UNL     1      -7.384 -11.045  16.302  0.00  0.00    -0.305 NA
ATOM     25  H   UNL     1      -8.318 -10.845  15.946  0.00  0.00    +0.123 HD
BRANCH   5  18
ATOM     18  C   UNL     1      -6.532  -9.876  16.169  0.00  0.00    +0.116 C 
BRANCH  18  20
ATOM      7  N   UNL     1      -2.553 -10.924  14.920  0.00  0.00    -0.263 NA
ATOM     20  C   UNL     1      -5.140 -10.243  15.732  0.00  0.00    -0.031 A 
ATOM     21  C   UNL     1      -4.127 -10.386  16.674  0.00  0.00    +0.024 A 
ATOM     22  C   UNL     1      -4.860 -10.440  14.384  0.00  0.00    +0.024 A 
ATOM     23  C   UNL     1      -2.862 -10.724  16.222  0.00  0.00    +0.111 A 
ATOM     24  C   UNL     1      -3.562 -10.776  14.033  0.00  0.00    +0.111 A 
ENDBRANCH  18  20
ENDBRANCH   5  18
ENDBRANCH  10   5
TORSDOF 5
ENDMDL
MODEL 9
REMARK VINA RESULT:      -5.4     26.531     28.184
REMARK  Name = 45360563
REMARK  6 active torsions:
REMARK  status: ('A' for Active; 'I' for Inactive)
REMARK    1  A    between atoms: O_3  and  C_9
REMARK    2  A    between atoms: N_4  and  C_8
REMARK    3  A    between atoms: N_5  and  C_10
REMARK    4  A    between atoms: N_5  and  C_18
REMARK    5  A    between atoms: N_6  and  C_19
REMARK    6  A    between atoms: C_18  and  C_20
REMARK                            x       y       z     vdW  Elec       q    Type
REMARK                         _______ _______ _______ _____ _____    ______ ____
ROOT
ATOM      1  O   UNL     1      -3.913 -13.055  13.113  0.00  0.00    -0.343 OA
ATOM      2  O   UNL     1      -2.337 -14.150  14.414  0.00  0.00    -0.347 OA
ATOM      8  C   UNL     1      -3.440 -12.198  15.321  0.00  0.00    +0.143 C 
ATOM      9  C   UNL     1      -2.337 -11.281  14.744  0.00  0.00    +0.156 C 
ATOM     10  C   UNL     1      -2.240 -11.311  13.199  0.00  0.00    +0.116 C 
ATOM     11  C   UNL     1      -2.626 -12.686  12.608  0.00  0.00    +0.166 C 
ATOM     12  C   UNL     1      -3.598 -13.461  14.452  0.00  0.00    +0.270 C 
ATOM     13  C   UNL     1      -1.788 -13.842  13.125  0.00  0.00    +0.196 C 
ENDROOT
BRANCH   8   4
ATOM      4  N   UNL     1      -4.714 -11.487  15.403  0.00  0.00    -0.290 NA
ATOM      6  N   UNL     1      -6.983 -10.428  16.849  0.00  0.00    -0.303 NA
ATOM     14  C   UNL     1      -4.591 -10.292  16.247  0.00  0.00    +0.100 C 
ATOM     15  C   UNL     1      -5.771 -12.368  15.913  0.00  0.00    +0.100 C 
ATOM     16  C   UNL     1      -5.926  -9.547  16.337  0.00  0.00    +0.099 C 
ATOM     17  C   UNL     1      -7.107 -11.622  16.004  0.00  0.00    +0.099 C 
ATOM     19  C   UNL     1      -8.256  -9.717  16.933  0.00  0.00    +0.105 C 
ENDBRANCH   8   4
BRANCH   9   3
ATOM      3  O   UNL     1      -1.082 -11.717  15.288  0.00  0.00    -0.388 OA
ATOM     26  H   UNL     1      -1.273 -12.380  15.974  0.00  0.00    +0.210 HD
ENDBRANCH   9   3
BRANCH  10   5
ATOM      5  N   UNL     1      -3.121 -10.297  12.609  0.00  0.00    -0.305 NA
ATOM     25  H   UNL     1      -3.142  -9.472  13.208  0.00  0.00    +0.123 HD
BRANCH   5  18
ATOM     18  C   UNL     1      -2.665  -9.940  11.276  0.00  0.00    +0.116 C 
BRANCH  18  20
ATOM      7  N   UNL     1      -5.955  -9.274   8.587  0.00  0.00    -0.263 NA
ATOM     20  C   UNL     1      -3.816  -9.707  10.334  0.00  0.00    -0.031 A 
ATOM     21  C   UNL     1      -4.619  -8.581  10.479  0.00  0.00    +0.024 A 
ATOM     22  C   UNL     1      -4.082 -10.617   9.317  0.00  0.00    +0.024 A 
ATOM     23  C   UNL     1      -5.666  -8.411   9.587  0.00  0.00    +0.111 A 
ATOM     24  C   UNL     1      -5.153 -10.357   8.478  0.00  0.00    +0.111 A 
ENDBRANCH  18  20
ENDBRANCH   5  18
ENDBRANCH  10   5
TORSDOF 5
ENDMDL
MODEL 10
REMARK VINA RESULT:      -5.4     26.602     28.889
REMARK  Name = 45360563
REMARK  6 active torsions:
REMARK  status: ('A' for Active; 'I' for Inactive)
REMARK    1  A    between atoms: O_3  and  C_9
REMARK    2  A    between atoms: N_4  and  C_8
REMARK    3  A    between atoms: N_5  and  C_10
REMARK    4  A    between atoms: N_5  and  C_18
REMARK    5  A    between atoms: N_6  and  C_19
REMARK    6  A    between atoms: C_18  and  C_20
REMARK                            x       y       z     vdW  Elec       q    Type
REMARK                         _______ _______ _______ _____ _____    ______ ____
ROOT
ATOM      1  O   UNL     1      -3.941 -10.936  13.296  0.00  0.00    -0.343 OA
ATOM      2  O   UNL     1      -2.269 -11.279  11.726  0.00  0.00    -0.347 OA
ATOM      8  C   UNL     1      -3.260 -13.201  12.807  0.00  0.00    +0.143 C 
ATOM      9  C   UNL     1      -2.201 -13.142  13.931  0.00  0.00    +0.156 C 
ATOM     10  C   UNL     1      -2.243 -11.837  14.764  0.00  0.00    +0.116 C 
ATOM     11  C   UNL     1      -2.698 -10.617  13.932  0.00  0.00    +0.166 C 
ATOM     12  C   UNL     1      -3.512 -11.795  12.230  0.00  0.00    +0.270 C 
ATOM     13  C   UNL     1      -1.833 -10.336  12.716  0.00  0.00    +0.196 C 
ENDROOT
BRANCH   8   4
ATOM      4  N   UNL     1      -4.512 -13.767  13.304  0.00  0.00    -0.290 NA
ATOM      6  N   UNL     1      -6.494 -15.864  13.494  0.00  0.00    -0.303 NA
ATOM     14  C   UNL     1      -4.261 -14.987  14.083  0.00  0.00    +0.100 C 
ATOM     15  C   UNL     1      -5.435 -14.047  12.197  0.00  0.00    +0.100 C 
ATOM     16  C   UNL     1      -5.572 -15.583  14.602  0.00  0.00    +0.099 C 
ATOM     17  C   UNL     1      -6.746 -14.645  12.717  0.00  0.00    +0.099 C 
ATOM     19  C   UNL     1      -7.745 -16.432  13.991  0.00  0.00    +0.105 C 
ENDBRANCH   8   4
BRANCH   9   3
ATOM      3  O   UNL     1      -0.909 -13.248  13.316  0.00  0.00    -0.388 OA
ATOM     26  H   UNL     1      -0.782 -14.176  13.056  0.00  0.00    +0.210 HD
ENDBRANCH   9   3
BRANCH  10   5
ATOM      5  N   UNL     1      -3.159 -11.981  15.901  0.00  0.00    -0.305 NA
ATOM     25  H   UNL     1      -2.844 -12.744  16.499  0.00  0.00    +0.123 HD
BRANCH   5  18
ATOM     18  C   UNL     1      -3.231 -10.744  16.659  0.00  0.00    +0.116 C 
BRANCH  18  20
ATOM      7  N   UNL     1      -7.242  -9.887  17.953  0.00  0.00    -0.263 NA
ATOM     20  C   UNL     1      -4.635 -10.445  17.112  0.00  0.00    -0.031 A 
ATOM     21  C   UNL     1      -5.508  -9.759  16.274  0.00  0.00    +0.024 A 
ATOM     22  C   UNL     1      -5.064 -10.851  18.370  0.00  0.00    +0.024 A 
ATOM     23  C   UNL     1      -6.789  -9.508  16.736  0.00  0.00    +0.111 A 
ATOM     24  C   UNL     1      -6.365 -10.551  18.740  0.00  0.00    +0.111 A 
ENDBRANCH  18  20
ENDBRANCH   5  18
ENDBRANCH  10   5
TORSDOF 5
ENDMDL
