MODEL 1
REMARK VINA RESULT:      -7.5      0.000      0.000
REMARK  Name = 7164740
REMARK  7 active torsions:
REMARK  status: ('A' for Active; 'I' for Inactive)
REMARK    1  A    between atoms: O_4  and  C_26
REMARK    2  A    between atoms: O_4  and  C_30
REMARK    3  A    between atoms: O_5  and  C_29
REMARK    4  A    between atoms: O_5  and  C_31
REMARK    5  A    between atoms: N_8  and  C_22
REMARK    6  A    between atoms: N_9  and  C_20
REMARK    7  A    between atoms: C_23  and  C_26
REMARK                            x       y       z     vdW  Elec       q    Type
REMARK                         _______ _______ _______ _____ _____    ______ ____
ROOT
ATOM      1  O   UNL     1      12.946   8.174   7.338  0.00  0.00    -0.266 OA
ATOM      2  O   UNL     1      10.323   4.289   5.030  0.00  0.00    -0.252 OA
ATOM      6  N   UNL     1       9.141   6.251   4.706  0.00  0.00    -0.284 N 
ATOM      7  N   UNL     1      10.998   8.453   6.077  0.00  0.00    -0.310 N 
ATOM      8  N   UNL     1      10.500   5.374   2.989  0.00  0.00    -0.269 N 
ATOM     10  C   UNL     1       8.727   7.531   6.813  0.00  0.00    +0.027 C 
ATOM     11  C   UNL     1       8.921   8.732   4.679  0.00  0.00    +0.054 C 
ATOM     12  C   UNL     1       8.150   8.678   5.995  0.00  0.00    +0.018 C 
ATOM     13  C   UNL     1       8.571   6.202   6.056  0.00  0.00    +0.114 C 
ATOM     14  C   UNL     1      10.192   7.840   7.142  0.00  0.00    +0.130 C 
ATOM     15  C   UNL     1       8.721   7.414   3.901  0.00  0.00    +0.119 C 
ATOM     16  C   UNL     1      10.401   8.964   4.920  0.00  0.00    +0.027 A 
ATOM     17  C   UNL     1      11.140   9.624   4.014  0.00  0.00    +0.024 A 
ATOM     18  C   UNL     1      12.378   8.592   6.328  0.00  0.00    +0.273 A 
ATOM     19  C   UNL     1      10.024   5.231   4.291  0.00  0.00    +0.306 C 
ATOM     20  C   UNL     1      13.171   9.311   5.281  0.00  0.00    +0.099 A 
ATOM     21  C   UNL     1      12.553   9.799   4.200  0.00  0.00    +0.030 A 
ATOM     37  H   UNL     1       9.913   5.850   2.312  0.00  0.00    +0.156 HD
ENDROOT
BRANCH   8  22
ATOM     22  C   UNL     1      11.750   4.941   2.482  0.00  0.00    +0.035 A 
ATOM     24  C   UNL     1      12.810   5.842   2.377  0.00  0.00    +0.027 A 
ATOM     25  C   UNL     1      11.921   3.614   2.087  0.00  0.00    +0.027 A 
ATOM     27  C   UNL     1      14.041   5.415   1.876  0.00  0.00    +0.047 A 
ATOM     28  C   UNL     1      13.151   3.188   1.586  0.00  0.00    +0.047 A 
ATOM     29  C   UNL     1      14.211   4.089   1.481  0.00  0.00    +0.120 A 
BRANCH  29   5
ATOM      5  O   UNL     1      15.410   3.674   0.990  0.00  0.00    -0.495 OA
ATOM     31  C   UNL     1      15.897   4.331  -0.179  0.00  0.00    +0.277 C 
ENDBRANCH  29   5
ENDBRANCH   8  22
BRANCH  20   9
ATOM      3  O   UNL     1      15.204   7.403   4.608  0.00  0.00    -0.272 OA
ATOM      9  N   UNL     1      14.513   9.452   5.478  0.00  0.00    -0.278 N 
ATOM     23  C   UNL     1      15.449   8.489   5.129  0.00  0.00    +0.255 C 
ATOM     38  H   UNL     1      14.807  10.199   6.103  0.00  0.00    +0.155 HD
BRANCH  23  26
ATOM     26  C   UNL     1      16.856   8.930   5.470  0.00  0.00    +0.324 C 
BRANCH  26   4
ATOM      4  O   UNL     1      17.774   8.464   4.505  0.00  0.00    -0.483 OA
BRANCH   4  30
ATOM     30  C   UNL     1      19.031   8.121   4.946  0.00  0.00    +0.121 A 
ATOM     32  C   UNL     1      19.905   7.441   4.099  0.00  0.00    +0.045 A 
ATOM     33  C   UNL     1      19.430   8.453   6.241  0.00  0.00    +0.045 A 
ATOM     34  C   UNL     1      21.179   7.092   4.546  0.00  0.00    +0.004 A 
ATOM     35  C   UNL     1      20.704   8.104   6.688  0.00  0.00    +0.004 A 
ATOM     36  C   UNL     1      21.579   7.424   5.840  0.00  0.00    +0.000 A 
ENDBRANCH   4  30
ENDBRANCH  26   4
ENDBRANCH  23  26
ENDBRANCH  20   9
TORSDOF 6
ENDMDL
MODEL 2
REMARK VINA RESULT:      -7.3      1.939      6.189
REMARK  Name = 7164740
REMARK  7 active torsions:
REMARK  status: ('A' for Active; 'I' for Inactive)
REMARK    1  A    between atoms: O_4  and  C_26
REMARK    2  A    between atoms: O_4  and  C_30
REMARK    3  A    between atoms: O_5  and  C_29
REMARK    4  A    between atoms: O_5  and  C_31
REMARK    5  A    between atoms: N_8  and  C_22
REMARK    6  A    between atoms: N_9  and  C_20
REMARK    7  A    between atoms: C_23  and  C_26
REMARK                            x       y       z     vdW  Elec       q    Type
REMARK                         _______ _______ _______ _____ _____    ______ ____
ROOT
ATOM      1  O   UNL     1       9.655   7.883   2.209  0.00  0.00    -0.266 OA
ATOM      2  O   UNL     1      12.165  10.276   6.117  0.00  0.00    -0.252 OA
ATOM      6  N   UNL     1      10.818   8.628   7.026  0.00  0.00    -0.284 N 
ATOM      7  N   UNL     1       9.520   7.253   4.456  0.00  0.00    -0.310 N 
ATOM      8  N   UNL     1      13.131   8.262   6.738  0.00  0.00    -0.269 N 
ATOM     10  C   UNL     1       8.445   8.733   6.246  0.00  0.00    +0.027 C 
ATOM     11  C   UNL     1       9.424   6.570   6.879  0.00  0.00    +0.054 C 
ATOM     12  C   UNL     1       8.159   7.420   6.964  0.00  0.00    +0.018 C 
ATOM     13  C   UNL     1       9.619   9.465   6.917  0.00  0.00    +0.114 C 
ATOM     14  C   UNL     1       8.716   8.443   4.766  0.00  0.00    +0.130 C 
ATOM     15  C   UNL     1      10.587   7.288   7.596  0.00  0.00    +0.119 C 
ATOM     16  C   UNL     1       9.804   6.297   5.436  0.00  0.00    +0.027 A 
ATOM     17  C   UNL     1      10.440   5.161   5.106  0.00  0.00    +0.024 A 
ATOM     18  C   UNL     1       9.897   7.077   3.109  0.00  0.00    +0.273 A 
ATOM     19  C   UNL     1      12.058   9.139   6.583  0.00  0.00    +0.306 C 
ATOM     20  C   UNL     1      10.627   5.810   2.788  0.00  0.00    +0.099 A 
ATOM     21  C   UNL     1      10.860   4.916   3.755  0.00  0.00    +0.030 A 
ATOM     37  H   UNL     1      13.095   7.588   7.495  0.00  0.00    +0.156 HD
ENDROOT
BRANCH   8  22
ATOM     22  C   UNL     1      14.293   8.181   5.933  0.00  0.00    +0.035 A 
ATOM     24  C   UNL     1      15.431   8.911   6.276  0.00  0.00    +0.027 A 
ATOM     25  C   UNL     1      14.301   7.371   4.797  0.00  0.00    +0.027 A 
ATOM     27  C   UNL     1      16.576   8.832   5.482  0.00  0.00    +0.047 A 
ATOM     28  C   UNL     1      15.446   7.292   4.003  0.00  0.00    +0.047 A 
ATOM     29  C   UNL     1      16.583   8.023   4.346  0.00  0.00    +0.120 A 
BRANCH  29   5
ATOM      5  O   UNL     1      17.699   7.948   3.571  0.00  0.00    -0.495 OA
ATOM     31  C   UNL     1      18.957   8.107   4.226  0.00  0.00    +0.277 C 
ENDBRANCH  29   5
ENDBRANCH   8  22
BRANCH  20   9
ATOM      3  O   UNL     1       9.598   3.840   0.974  0.00  0.00    -0.272 OA
ATOM      9  N   UNL     1      11.024   5.608   1.499  0.00  0.00    -0.278 N 
ATOM     23  C   UNL     1      10.484   4.635   0.670  0.00  0.00    +0.255 C 
ATOM     38  H   UNL     1      11.898   6.045   1.217  0.00  0.00    +0.155 HD
BRANCH  23  26
ATOM     26  C   UNL     1      11.127   4.653  -0.701  0.00  0.00    +0.324 C 
BRANCH  26   4
ATOM      4  O   UNL     1      11.983   3.544  -0.867  0.00  0.00    -0.483 OA
BRANCH   4  30
ATOM     30  C   UNL     1      13.305   3.714  -0.529  0.00  0.00    +0.121 A 
ATOM     32  C   UNL     1      13.722   3.496   0.784  0.00  0.00    +0.045 A 
ATOM     33  C   UNL     1      14.228   4.105  -1.499  0.00  0.00    +0.045 A 
ATOM     34  C   UNL     1      15.063   3.669   1.127  0.00  0.00    +0.004 A 
ATOM     35  C   UNL     1      15.568   4.278  -1.155  0.00  0.00    +0.004 A 
ATOM     36  C   UNL     1      15.986   4.060   0.158  0.00  0.00    +0.000 A 
ENDBRANCH   4  30
ENDBRANCH  26   4
ENDBRANCH  23  26
ENDBRANCH  20   9
TORSDOF 6
ENDMDL
MODEL 3
REMARK VINA RESULT:      -7.2     14.182     18.679
REMARK  Name = 7164740
REMARK  7 active torsions:
REMARK  status: ('A' for Active; 'I' for Inactive)
REMARK    1  A    between atoms: O_4  and  C_26
REMARK    2  A    between atoms: O_4  and  C_30
REMARK    3  A    between atoms: O_5  and  C_29
REMARK    4  A    between atoms: O_5  and  C_31
REMARK    5  A    between atoms: N_8  and  C_22
REMARK    6  A    between atoms: N_9  and  C_20
REMARK    7  A    between atoms: C_23  and  C_26
REMARK                            x       y       z     vdW  Elec       q    Type
REMARK                         _______ _______ _______ _____ _____    ______ ____
ROOT
ATOM      1  O   UNL     1      18.624  -9.531   2.418  0.00  0.00    -0.266 OA
ATOM      2  O   UNL     1      20.053  -4.555   1.714  0.00  0.00    -0.252 OA
ATOM      6  N   UNL     1      21.910  -5.893   1.378  0.00  0.00    -0.284 N 
ATOM      7  N   UNL     1      20.751  -8.844   1.731  0.00  0.00    -0.310 N 
ATOM      8  N   UNL     1      20.699  -5.041  -0.459  0.00  0.00    -0.269 N 
ATOM     10  C   UNL     1      22.329  -7.509   3.239  0.00  0.00    +0.027 C 
ATOM     11  C   UNL     1      23.022  -8.081   0.953  0.00  0.00    +0.054 C 
ATOM     12  C   UNL     1      23.438  -8.155   2.419  0.00  0.00    +0.018 C 
ATOM     13  C   UNL     1      22.137  -6.042   2.819  0.00  0.00    +0.114 C 
ATOM     14  C   UNL     1      21.044  -8.329   3.075  0.00  0.00    +0.130 C 
ATOM     15  C   UNL     1      22.878  -6.605   0.523  0.00  0.00    +0.119 C 
ATOM     16  C   UNL     1      21.712  -8.811   0.717  0.00  0.00    +0.027 A 
ATOM     17  C   UNL     1      21.465  -9.392  -0.469  0.00  0.00    +0.024 A 
ATOM     18  C   UNL     1      19.497  -9.463   1.550  0.00  0.00    +0.273 A 
ATOM     19  C   UNL     1      20.818  -5.120   0.928  0.00  0.00    +0.306 C 
ATOM     20  C   UNL     1      19.250 -10.075   0.207  0.00  0.00    +0.099 A 
ATOM     21  C   UNL     1      20.207 -10.035  -0.726  0.00  0.00    +0.030 A 
ATOM     37  H   UNL     1      21.543  -5.110  -1.017  0.00  0.00    +0.156 HD
ENDROOT
BRANCH   8  22
ATOM     22  C   UNL     1      19.507  -4.890  -1.209  0.00  0.00    +0.035 A 
ATOM     24  C   UNL     1      18.842  -6.016  -1.694  0.00  0.00    +0.027 A 
ATOM     25  C   UNL     1      19.000  -3.616  -1.464  0.00  0.00    +0.027 A 
ATOM     27  C   UNL     1      17.668  -5.867  -2.434  0.00  0.00    +0.047 A 
ATOM     28  C   UNL     1      17.826  -3.467  -2.204  0.00  0.00    +0.047 A 
ATOM     29  C   UNL     1      17.161  -4.593  -2.689  0.00  0.00    +0.120 A 
BRANCH  29   5
ATOM      5  O   UNL     1      16.018  -4.449  -3.413  0.00  0.00    -0.495 OA
ATOM     31  C   UNL     1      15.178  -5.596  -3.538  0.00  0.00    +0.277 C 
ENDBRANCH  29   5
ENDBRANCH   8  22
BRANCH  20   9
ATOM      3  O   UNL     1      18.629 -12.857   0.535  0.00  0.00    -0.272 OA
ATOM      9  N   UNL     1      18.042 -10.668  -0.015  0.00  0.00    -0.278 N 
ATOM     23  C   UNL     1      17.805 -12.025   0.163  0.00  0.00    +0.255 C 
ATOM     38  H   UNL     1      17.357 -10.129  -0.539  0.00  0.00    +0.155 HD
BRANCH  23  26
ATOM     26  C   UNL     1      16.372 -12.386  -0.161  0.00  0.00    +0.324 C 
BRANCH  26   4
ATOM      4  O   UNL     1      15.481 -11.746   0.727  0.00  0.00    -0.483 OA
BRANCH   4  30
ATOM     30  C   UNL     1      15.457 -12.195   2.026  0.00  0.00    +0.121 A 
ATOM     32  C   UNL     1      15.068 -13.506   2.302  0.00  0.00    +0.045 A 
ATOM     33  C   UNL     1      15.819 -11.340   3.067  0.00  0.00    +0.045 A 
ATOM     34  C   UNL     1      15.043 -13.962   3.620  0.00  0.00    +0.004 A 
ATOM     35  C   UNL     1      15.792 -11.796   4.384  0.00  0.00    +0.004 A 
ATOM     36  C   UNL     1      15.405 -13.107   4.661  0.00  0.00    +0.000 A 
ENDBRANCH   4  30
ENDBRANCH  26   4
ENDBRANCH  23  26
ENDBRANCH  20   9
TORSDOF 6
ENDMDL
MODEL 4
REMARK VINA RESULT:      -7.1      1.406      1.916
REMARK  Name = 7164740
REMARK  7 active torsions:
REMARK  status: ('A' for Active; 'I' for Inactive)
REMARK    1  A    between atoms: O_4  and  C_26
REMARK    2  A    between atoms: O_4  and  C_30
REMARK    3  A    between atoms: O_5  and  C_29
REMARK    4  A    between atoms: O_5  and  C_31
REMARK    5  A    between atoms: N_8  and  C_22
REMARK    6  A    between atoms: N_9  and  C_20
REMARK    7  A    between atoms: C_23  and  C_26
REMARK                            x       y       z     vdW  Elec       q    Type
REMARK                         _______ _______ _______ _____ _____    ______ ____
ROOT
ATOM      1  O   UNL     1      14.144   6.592   6.976  0.00  0.00    -0.266 OA
ATOM      2  O   UNL     1      10.317   3.699   4.905  0.00  0.00    -0.252 OA
ATOM      6  N   UNL     1       9.378   5.632   5.762  0.00  0.00    -0.284 N 
ATOM      7  N   UNL     1      11.907   7.257   6.830  0.00  0.00    -0.310 N 
ATOM      8  N   UNL     1       9.793   5.425   3.448  0.00  0.00    -0.269 N 
ATOM     10  C   UNL     1      10.032   6.098   8.129  0.00  0.00    +0.027 C 
ATOM     11  C   UNL     1       9.499   7.966   6.624  0.00  0.00    +0.054 C 
ATOM     12  C   UNL     1       9.330   7.448   8.050  0.00  0.00    +0.018 C 
ATOM     13  C   UNL     1       9.406   5.110   7.131  0.00  0.00    +0.114 C 
ATOM     14  C   UNL     1      11.530   6.300   7.879  0.00  0.00    +0.130 C 
ATOM     15  C   UNL     1       8.827   6.994   5.631  0.00  0.00    +0.119 C 
ATOM     16  C   UNL     1      10.966   8.125   6.269  0.00  0.00    +0.027 A 
ATOM     17  C   UNL     1      11.353   9.070   5.397  0.00  0.00    +0.024 A 
ATOM     18  C   UNL     1      13.276   7.324   6.497  0.00  0.00    +0.273 A 
ATOM     19  C   UNL     1       9.872   4.833   4.708  0.00  0.00    +0.306 C 
ATOM     20  C   UNL     1      13.662   8.373   5.502  0.00  0.00    +0.099 A 
ATOM     21  C   UNL     1      12.729   9.194   5.007  0.00  0.00    +0.030 A 
ATOM     37  H   UNL     1       9.050   6.095   3.279  0.00  0.00    +0.156 HD
ENDROOT
BRANCH   8  22
ATOM     22  C   UNL     1      10.658   5.215   2.347  0.00  0.00    +0.035 A 
ATOM     24  C   UNL     1      10.176   4.608   1.187  0.00  0.00    +0.027 A 
ATOM     25  C   UNL     1      11.993   5.613   2.422  0.00  0.00    +0.027 A 
ATOM     27  C   UNL     1      11.029   4.400   0.103  0.00  0.00    +0.047 A 
ATOM     28  C   UNL     1      12.846   5.405   1.338  0.00  0.00    +0.047 A 
ATOM     29  C   UNL     1      12.363   4.798   0.178  0.00  0.00    +0.120 A 
BRANCH  29   5
ATOM      5  O   UNL     1      13.195   4.593  -0.879  0.00  0.00    -0.495 OA
ATOM     31  C   UNL     1      14.461   3.996  -0.603  0.00  0.00    +0.277 C 
ENDBRANCH  29   5
ENDBRANCH   8  22
BRANCH  20   9
ATOM      3  O   UNL     1      14.878   7.181   3.193  0.00  0.00    -0.272 OA
ATOM      9  N   UNL     1      14.974   8.461   5.140  0.00  0.00    -0.278 N 
ATOM     23  C   UNL     1      15.503   7.859   4.006  0.00  0.00    +0.255 C 
ATOM     38  H   UNL     1      15.623   8.797   5.848  0.00  0.00    +0.155 HD
BRANCH  23  26
ATOM     26  C   UNL     1      16.985   8.133   3.870  0.00  0.00    +0.324 C 
BRANCH  26   4
ATOM      4  O   UNL     1      17.502   8.690   5.060  0.00  0.00    -0.483 OA
BRANCH   4  30
ATOM     30  C   UNL     1      18.794   8.363   5.398  0.00  0.00    +0.121 A 
ATOM     32  C   UNL     1      19.296   8.716   6.651  0.00  0.00    +0.045 A 
ATOM     33  C   UNL     1      19.602   7.680   4.489  0.00  0.00    +0.045 A 
ATOM     34  C   UNL     1      20.607   8.385   6.994  0.00  0.00    +0.004 A 
ATOM     35  C   UNL     1      20.912   7.350   4.833  0.00  0.00    +0.004 A 
ATOM     36  C   UNL     1      21.415   7.701   6.086  0.00  0.00    +0.000 A 
ENDBRANCH   4  30
ENDBRANCH  26   4
ENDBRANCH  23  26
ENDBRANCH  20   9
TORSDOF 6
ENDMDL
MODEL 5
REMARK VINA RESULT:      -6.8     25.250     29.959
REMARK  Name = 7164740
REMARK  7 active torsions:
REMARK  status: ('A' for Active; 'I' for Inactive)
REMARK    1  A    between atoms: O_4  and  C_26
REMARK    2  A    between atoms: O_4  and  C_30
REMARK    3  A    between atoms: O_5  and  C_29
REMARK    4  A    between atoms: O_5  and  C_31
REMARK    5  A    between atoms: N_8  and  C_22
REMARK    6  A    between atoms: N_9  and  C_20
REMARK    7  A    between atoms: C_23  and  C_26
REMARK                            x       y       z     vdW  Elec       q    Type
REMARK                         _______ _______ _______ _____ _____    ______ ____
ROOT
ATOM      1  O   UNL     1      -8.697  -8.161  17.408  0.00  0.00    -0.266 OA
ATOM      2  O   UNL     1      -4.124 -10.430  16.296  0.00  0.00    -0.252 OA
ATOM      6  N   UNL     1      -5.625 -12.086  16.892  0.00  0.00    -0.284 N 
ATOM      7  N   UNL     1      -8.332 -10.470  17.384  0.00  0.00    -0.310 N 
ATOM      8  N   UNL     1      -5.139 -11.670  14.621  0.00  0.00    -0.269 N 
ATOM     10  C   UNL     1      -6.794 -11.646  19.057  0.00  0.00    +0.027 C 
ATOM     11  C   UNL     1      -7.922 -12.955  17.310  0.00  0.00    +0.054 C 
ATOM     12  C   UNL     1      -7.684 -12.858  18.815  0.00  0.00    +0.018 C 
ATOM     13  C   UNL     1      -5.454 -11.811  18.321  0.00  0.00    +0.114 C 
ATOM     14  C   UNL     1      -7.542 -10.382  18.619  0.00  0.00    +0.130 C 
ATOM     15  C   UNL     1      -6.578 -13.168  16.581  0.00  0.00    +0.119 C 
ATOM     16  C   UNL     1      -8.597 -11.703  16.781  0.00  0.00    +0.027 A 
ATOM     17  C   UNL     1      -9.417 -11.774  15.719  0.00  0.00    +0.024 A 
ATOM     18  C   UNL     1      -8.889  -9.268  16.902  0.00  0.00    +0.273 A 
ATOM     19  C   UNL     1      -4.905 -11.319  15.950  0.00  0.00    +0.306 C 
ATOM     20  C   UNL     1      -9.776  -9.386  15.702  0.00  0.00    +0.099 A 
ATOM     21  C   UNL     1     -10.016 -10.590  15.170  0.00  0.00    +0.030 A 
ATOM     37  H   UNL     1      -5.391 -12.630  14.414  0.00  0.00    +0.156 HD
ENDROOT
BRANCH   8  22
ATOM     22  C   UNL     1      -5.085 -10.819  13.489  0.00  0.00    +0.035 A 
ATOM     24  C   UNL     1      -3.972 -10.848  12.648  0.00  0.00    +0.027 A 
ATOM     25  C   UNL     1      -6.144  -9.954  13.216  0.00  0.00    +0.027 A 
ATOM     27  C   UNL     1      -3.919 -10.010  11.534  0.00  0.00    +0.047 A 
ATOM     28  C   UNL     1      -6.090  -9.115  12.101  0.00  0.00    +0.047 A 
ATOM     29  C   UNL     1      -4.977  -9.144  11.261  0.00  0.00    +0.120 A 
BRANCH  29   5
ATOM      5  O   UNL     1      -4.923  -8.325  10.176  0.00  0.00    -0.495 OA
ATOM     31  C   UNL     1      -4.217  -8.806   9.033  0.00  0.00    +0.277 C 
ENDBRANCH  29   5
ENDBRANCH   8  22
BRANCH  20   9
ATOM      3  O   UNL     1     -12.280  -8.209  16.459  0.00  0.00    -0.272 OA
ATOM      9  N   UNL     1     -10.322  -8.245  15.194  0.00  0.00    -0.278 N 
ATOM     23  C   UNL     1     -11.542  -7.725  15.604  0.00  0.00    +0.255 C 
ATOM     38  H   UNL     1      -9.919  -7.889  14.330  0.00  0.00    +0.155 HD
BRANCH  23  26
ATOM     26  C   UNL     1     -11.883  -6.451  14.860  0.00  0.00    +0.324 C 
BRANCH  26   4
ATOM      4  O   UNL     1     -12.379  -6.743  13.571  0.00  0.00    -0.483 OA
BRANCH   4  30
ATOM     30  C   UNL     1     -12.327  -5.737  12.635  0.00  0.00    +0.121 A 
ATOM     32  C   UNL     1     -12.332  -6.050  11.276  0.00  0.00    +0.045 A 
ATOM     33  C   UNL     1     -12.267  -4.405  13.044  0.00  0.00    +0.045 A 
ATOM     34  C   UNL     1     -12.279  -5.030  10.326  0.00  0.00    +0.004 A 
ATOM     35  C   UNL     1     -12.213  -3.386  12.095  0.00  0.00    +0.004 A 
ATOM     36  C   UNL     1     -12.220  -3.698  10.735  0.00  0.00    +0.000 A 
ENDBRANCH   4  30
ENDBRANCH  26   4
ENDBRANCH  23  26
ENDBRANCH  20   9
TORSDOF 6
ENDMDL
MODEL 6
REMARK VINA RESULT:      -6.8     13.904     16.222
REMARK  Name = 7164740
REMARK  7 active torsions:
REMARK  status: ('A' for Active; 'I' for Inactive)
REMARK    1  A    between atoms: O_4  and  C_26
REMARK    2  A    between atoms: O_4  and  C_30
REMARK    3  A    between atoms: O_5  and  C_29
REMARK    4  A    between atoms: O_5  and  C_31
REMARK    5  A    between atoms: N_8  and  C_22
REMARK    6  A    between atoms: N_9  and  C_20
REMARK    7  A    between atoms: C_23  and  C_26
REMARK                            x       y       z     vdW  Elec       q    Type
REMARK                         _______ _______ _______ _____ _____    ______ ____
ROOT
ATOM      1  O   UNL     1      16.025   7.965  21.925  0.00  0.00    -0.266 OA
ATOM      2  O   UNL     1      13.624   7.477  17.310  0.00  0.00    -0.252 OA
ATOM      6  N   UNL     1      12.026   7.976  18.906  0.00  0.00    -0.284 N 
ATOM      7  N   UNL     1      13.747   8.349  21.566  0.00  0.00    -0.310 N 
ATOM      8  N   UNL     1      12.854   9.657  17.473  0.00  0.00    -0.269 N 
ATOM     10  C   UNL     1      12.116   6.489  20.913  0.00  0.00    +0.027 C 
ATOM     11  C   UNL     1      11.304   8.796  21.145  0.00  0.00    +0.054 C 
ATOM     12  C   UNL     1      11.067   7.357  21.595  0.00  0.00    +0.018 C 
ATOM     13  C   UNL     1      11.984   6.591  19.385  0.00  0.00    +0.114 C 
ATOM     14  C   UNL     1      13.506   6.909  21.402  0.00  0.00    +0.130 C 
ATOM     15  C   UNL     1      11.123   8.902  19.616  0.00  0.00    +0.119 C 
ATOM     16  C   UNL     1      12.694   9.268  21.529  0.00  0.00    +0.027 A 
ATOM     17  C   UNL     1      12.919  10.565  21.797  0.00  0.00    +0.024 A 
ATOM     18  C   UNL     1      15.068   8.740  21.865  0.00  0.00    +0.273 A 
ATOM     19  C   UNL     1      12.900   8.316  17.851  0.00  0.00    +0.306 C 
ATOM     20  C   UNL     1      15.282  10.197  22.132  0.00  0.00    +0.099 A 
ATOM     21  C   UNL     1      14.240  11.036  22.103  0.00  0.00    +0.030 A 
ATOM     37  H   UNL     1      11.984  10.163  17.601  0.00  0.00    +0.156 HD
ENDROOT
BRANCH   8  22
ATOM     22  C   UNL     1      13.910  10.432  16.934  0.00  0.00    +0.035 A 
ATOM     24  C   UNL     1      14.628  11.301  17.756  0.00  0.00    +0.027 A 
ATOM     25  C   UNL     1      14.233  10.325  15.581  0.00  0.00    +0.027 A 
ATOM     27  C   UNL     1      15.668  12.064  17.224  0.00  0.00    +0.047 A 
ATOM     28  C   UNL     1      15.273  11.089  15.049  0.00  0.00    +0.047 A 
ATOM     29  C   UNL     1      15.990  11.958  15.871  0.00  0.00    +0.120 A 
BRANCH  29   5
ATOM      5  O   UNL     1      17.002  12.705  15.353  0.00  0.00    -0.495 OA
ATOM     31  C   UNL     1      18.042  12.006  14.670  0.00  0.00    +0.277 C 
ENDBRANCH  29   5
ENDBRANCH   8  22
BRANCH  20   9
ATOM      3  O   UNL     1      17.245  11.063  20.228  0.00  0.00    -0.272 OA
ATOM      9  N   UNL     1      16.549  10.619  22.408  0.00  0.00    -0.278 N 
ATOM     23  C   UNL     1      17.454  11.027  21.438  0.00  0.00    +0.255 C 
ATOM     38  H   UNL     1      16.906  10.415  23.339  0.00  0.00    +0.155 HD
BRANCH  23  26
ATOM     26  C   UNL     1      18.777  11.438  22.049  0.00  0.00    +0.324 C 
BRANCH  26   4
ATOM      4  O   UNL     1      19.825  10.624  21.568  0.00  0.00    -0.483 OA
BRANCH   4  30
ATOM     30  C   UNL     1      19.907   9.345  22.065  0.00  0.00    +0.121 A 
ATOM     32  C   UNL     1      19.578   8.259  21.254  0.00  0.00    +0.045 A 
ATOM     33  C   UNL     1      20.318   9.133  23.381  0.00  0.00    +0.045 A 
ATOM     34  C   UNL     1      19.661   6.962  21.759  0.00  0.00    +0.004 A 
ATOM     35  C   UNL     1      20.400   7.836  23.886  0.00  0.00    +0.004 A 
ATOM     36  C   UNL     1      20.072   6.750  23.074  0.00  0.00    +0.000 A 
ENDBRANCH   4  30
ENDBRANCH  26   4
ENDBRANCH  23  26
ENDBRANCH  20   9
TORSDOF 6
ENDMDL
MODEL 7
REMARK VINA RESULT:      -6.7     26.401     29.985
REMARK  Name = 7164740
REMARK  7 active torsions:
REMARK  status: ('A' for Active; 'I' for Inactive)
REMARK    1  A    between atoms: O_4  and  C_26
REMARK    2  A    between atoms: O_4  and  C_30
REMARK    3  A    between atoms: O_5  and  C_29
REMARK    4  A    between atoms: O_5  and  C_31
REMARK    5  A    between atoms: N_8  and  C_22
REMARK    6  A    between atoms: N_9  and  C_20
REMARK    7  A    between atoms: C_23  and  C_26
REMARK                            x       y       z     vdW  Elec       q    Type
REMARK                         _______ _______ _______ _____ _____    ______ ____
ROOT
ATOM      1  O   UNL     1      -7.827 -12.663  11.998  0.00  0.00    -0.266 OA
ATOM      2  O   UNL     1      -3.632 -13.327  15.041  0.00  0.00    -0.252 OA
ATOM      6  N   UNL     1      -3.089 -11.806  13.385  0.00  0.00    -0.284 N 
ATOM      7  N   UNL     1      -5.822 -11.483  11.770  0.00  0.00    -0.310 N 
ATOM      8  N   UNL     1      -3.640 -11.067  15.556  0.00  0.00    -0.269 N 
ATOM     10  C   UNL     1      -3.628 -12.603  11.078  0.00  0.00    +0.027 C 
ATOM     11  C   UNL     1      -3.664 -10.197  11.572  0.00  0.00    +0.054 C 
ATOM     12  C   UNL     1      -3.261 -11.232  10.525  0.00  0.00    +0.018 C 
ATOM     13  C   UNL     1      -2.880 -12.867  12.395  0.00  0.00    +0.114 C 
ATOM     14  C   UNL     1      -5.149 -12.682  11.251  0.00  0.00    +0.130 C 
ATOM     15  C   UNL     1      -2.876 -10.438  12.877  0.00  0.00    +0.119 C 
ATOM     16  C   UNL     1      -5.154 -10.258  11.857  0.00  0.00    +0.027 A 
ATOM     17  C   UNL     1      -5.819  -9.151  12.224  0.00  0.00    +0.024 A 
ATOM     18  C   UNL     1      -7.193 -11.609  12.075  0.00  0.00    +0.273 A 
ATOM     19  C   UNL     1      -3.476 -12.153  14.698  0.00  0.00    +0.306 C 
ATOM     20  C   UNL     1      -7.891 -10.357  12.505  0.00  0.00    +0.099 A 
ATOM     21  C   UNL     1      -7.215  -9.204  12.555  0.00  0.00    +0.030 A 
ATOM     37  H   UNL     1      -3.088 -10.233  15.388  0.00  0.00    +0.156 HD
ENDROOT
BRANCH   8  22
ATOM     22  C   UNL     1      -4.526 -10.973  16.658  0.00  0.00    +0.035 A 
ATOM     24  C   UNL     1      -4.169 -11.526  17.888  0.00  0.00    +0.027 A 
ATOM     25  C   UNL     1      -5.754 -10.328  16.513  0.00  0.00    +0.027 A 
ATOM     27  C   UNL     1      -5.042 -11.434  18.973  0.00  0.00    +0.047 A 
ATOM     28  C   UNL     1      -6.627 -10.236  17.598  0.00  0.00    +0.047 A 
ATOM     29  C   UNL     1      -6.270 -10.790  18.828  0.00  0.00    +0.120 A 
BRANCH  29   5
ATOM      5  O   UNL     1      -7.121 -10.703  19.886  0.00  0.00    -0.495 OA
ATOM     31  C   UNL     1      -8.472 -11.108  19.668  0.00  0.00    +0.277 C 
ENDBRANCH  29   5
ENDBRANCH   8  22
BRANCH  20   9
ATOM      3  O   UNL     1      -8.989 -11.001  15.076  0.00  0.00    -0.272 OA
ATOM      9  N   UNL     1      -9.214 -10.439  12.824  0.00  0.00    -0.278 N 
ATOM     23  C   UNL     1      -9.683 -10.757  14.092  0.00  0.00    +0.255 C 
ATOM     38  H   UNL     1      -9.871 -10.485  12.048  0.00  0.00    +0.155 HD
BRANCH  23  26
ATOM     26  C   UNL     1     -11.196 -10.771  14.138  0.00  0.00    +0.324 C 
BRANCH  26   4
ATOM      4  O   UNL     1     -11.665 -10.193  15.337  0.00  0.00    -0.483 OA
BRANCH   4  30
ATOM     30  C   UNL     1     -11.562  -8.827  15.459  0.00  0.00    +0.121 A 
ATOM     32  C   UNL     1     -12.074  -7.998  14.461  0.00  0.00    +0.045 A 
ATOM     33  C   UNL     1     -10.945  -8.272  16.580  0.00  0.00    +0.045 A 
ATOM     34  C   UNL     1     -11.968  -6.613  14.584  0.00  0.00    +0.004 A 
ATOM     35  C   UNL     1     -10.839  -6.887  16.702  0.00  0.00    +0.004 A 
ATOM     36  C   UNL     1     -11.352  -6.057  15.704  0.00  0.00    +0.000 A 
ENDBRANCH   4  30
ENDBRANCH  26   4
ENDBRANCH  23  26
ENDBRANCH  20   9
TORSDOF 6
ENDMDL
MODEL 8
REMARK VINA RESULT:      -6.7     25.812     29.823
REMARK  Name = 7164740
REMARK  7 active torsions:
REMARK  status: ('A' for Active; 'I' for Inactive)
REMARK    1  A    between atoms: O_4  and  C_26
REMARK    2  A    between atoms: O_4  and  C_30
REMARK    3  A    between atoms: O_5  and  C_29
REMARK    4  A    between atoms: O_5  and  C_31
REMARK    5  A    between atoms: N_8  and  C_22
REMARK    6  A    between atoms: N_9  and  C_20
REMARK    7  A    between atoms: C_23  and  C_26
REMARK                            x       y       z     vdW  Elec       q    Type
REMARK                         _______ _______ _______ _____ _____    ______ ____
ROOT
ATOM      1  O   UNL     1      -7.079 -13.504  14.502  0.00  0.00    -0.266 OA
ATOM      2  O   UNL     1      -9.405 -11.174  18.559  0.00  0.00    -0.252 OA
ATOM      6  N   UNL     1      -7.119 -10.893  18.779  0.00  0.00    -0.284 N 
ATOM      7  N   UNL     1      -5.962 -12.271  16.145  0.00  0.00    -0.310 N 
ATOM      8  N   UNL     1      -8.466  -9.146  17.941  0.00  0.00    -0.269 N 
ATOM     10  C   UNL     1      -5.826 -13.023  18.587  0.00  0.00    +0.027 C 
ATOM     11  C   UNL     1      -4.787 -10.904  17.905  0.00  0.00    +0.054 C 
ATOM     12  C   UNL     1      -4.527 -12.229  18.616  0.00  0.00    +0.018 C 
ATOM     13  C   UNL     1      -6.943 -12.249  19.306  0.00  0.00    +0.114 C 
ATOM     14  C   UNL     1      -6.187 -13.337  17.131  0.00  0.00    +0.130 C 
ATOM     15  C   UNL     1      -5.875 -10.110  18.659  0.00  0.00    +0.119 C 
ATOM     16  C   UNL     1      -5.223 -11.130  16.468  0.00  0.00    +0.027 A 
ATOM     17  C   UNL     1      -4.930 -10.224  15.522  0.00  0.00    +0.024 A 
ATOM     18  C   UNL     1      -6.438 -12.507  14.839  0.00  0.00    +0.273 A 
ATOM     19  C   UNL     1      -8.414 -10.453  18.426  0.00  0.00    +0.306 C 
ATOM     20  C   UNL     1      -6.113 -11.461  13.819  0.00  0.00    +0.099 A 
ATOM     21  C   UNL     1      -5.387 -10.394  14.171  0.00  0.00    +0.030 A 
ATOM     37  H   UNL     1      -7.771  -8.484  18.269  0.00  0.00    +0.156 HD
ENDROOT
BRANCH   8  22
ATOM     22  C   UNL     1      -9.388  -8.617  17.005  0.00  0.00    +0.035 A 
ATOM     24  C   UNL     1      -9.286  -8.961  15.656  0.00  0.00    +0.027 A 
ATOM     25  C   UNL     1     -10.396  -7.753  17.430  0.00  0.00    +0.027 A 
ATOM     27  C   UNL     1     -10.193  -8.438  14.733  0.00  0.00    +0.047 A 
ATOM     28  C   UNL     1     -11.304  -7.231  16.507  0.00  0.00    +0.047 A 
ATOM     29  C   UNL     1     -11.201  -7.574  15.159  0.00  0.00    +0.120 A 
BRANCH  29   5
ATOM      5  O   UNL     1     -12.084  -7.063  14.258  0.00  0.00    -0.495 OA
ATOM     31  C   UNL     1     -12.082  -5.647  14.077  0.00  0.00    +0.277 C 
ENDBRANCH  29   5
ENDBRANCH   8  22
BRANCH  20   9
ATOM      3  O   UNL     1      -8.697 -10.727  12.812  0.00  0.00    -0.272 OA
ATOM      9  N   UNL     1      -6.570 -11.642  12.547  0.00  0.00    -0.278 N 
ATOM     23  C   UNL     1      -7.835 -11.264  12.120  0.00  0.00    +0.255 C 
ATOM     38  H   UNL     1      -6.037 -12.277  11.956  0.00  0.00    +0.155 HD
BRANCH  23  26
ATOM     26  C   UNL     1      -8.052 -11.594  10.659  0.00  0.00    +0.324 C 
BRANCH  26   4
ATOM      4  O   UNL     1      -7.896 -10.443   9.858  0.00  0.00    -0.483 OA
BRANCH   4  30
ATOM     30  C   UNL     1      -6.620  -9.958   9.694  0.00  0.00    +0.121 A 
ATOM     32  C   UNL     1      -5.678 -10.703   8.984  0.00  0.00    +0.045 A 
ATOM     33  C   UNL     1      -6.267  -8.724  10.238  0.00  0.00    +0.045 A 
ATOM     34  C   UNL     1      -4.383 -10.213   8.819  0.00  0.00    +0.004 A 
ATOM     35  C   UNL     1      -4.972  -8.234  10.073  0.00  0.00    +0.004 A 
ATOM     36  C   UNL     1      -4.030  -8.979   9.362  0.00  0.00    +0.000 A 
ENDBRANCH   4  30
ENDBRANCH  26   4
ENDBRANCH  23  26
ENDBRANCH  20   9
TORSDOF 6
ENDMDL
MODEL 9
REMARK VINA RESULT:      -6.6      2.612      5.853
REMARK  Name = 7164740
REMARK  7 active torsions:
REMARK  status: ('A' for Active; 'I' for Inactive)
REMARK    1  A    between atoms: O_4  and  C_26
REMARK    2  A    between atoms: O_4  and  C_30
REMARK    3  A    between atoms: O_5  and  C_29
REMARK    4  A    between atoms: O_5  and  C_31
REMARK    5  A    between atoms: N_8  and  C_22
REMARK    6  A    between atoms: N_9  and  C_20
REMARK    7  A    between atoms: C_23  and  C_26
REMARK                            x       y       z     vdW  Elec       q    Type
REMARK                         _______ _______ _______ _____ _____    ______ ____
ROOT
ATOM      1  O   UNL     1      14.489   7.965  -0.223  0.00  0.00    -0.266 OA
ATOM      2  O   UNL     1       9.640   6.350   0.862  0.00  0.00    -0.252 OA
ATOM      6  N   UNL     1      10.741   4.639  -0.239  0.00  0.00    -0.284 N 
ATOM      7  N   UNL     1      13.676   5.817  -0.661  0.00  0.00    -0.310 N 
ATOM      8  N   UNL     1      10.497   4.592   2.107  0.00  0.00    -0.269 N 
ATOM     10  C   UNL     1      11.829   5.359  -2.372  0.00  0.00    +0.027 C 
ATOM     11  C   UNL     1      12.787   3.498  -1.085  0.00  0.00    +0.054 C 
ATOM     12  C   UNL     1      12.476   3.985  -2.497  0.00  0.00    +0.018 C 
ATOM     13  C   UNL     1      10.535   5.268  -1.548  0.00  0.00    +0.114 C 
ATOM     14  C   UNL     1      12.840   6.332  -1.754  0.00  0.00    +0.130 C 
ATOM     15  C   UNL     1      11.479   3.363  -0.277  0.00  0.00    +0.119 C 
ATOM     16  C   UNL     1      13.731   4.450  -0.373  0.00  0.00    +0.027 A 
ATOM     17  C   UNL     1      14.589   3.989   0.552  0.00  0.00    +0.024 A 
ATOM     18  C   UNL     1      14.491   6.754   0.007  0.00  0.00    +0.273 A 
ATOM     19  C   UNL     1      10.250   5.280   0.919  0.00  0.00    +0.306 C 
ATOM     20  C   UNL     1      15.414   6.203   1.049  0.00  0.00    +0.099 A 
ATOM     21  C   UNL     1      15.445   4.885   1.276  0.00  0.00    +0.030 A 
ATOM     37  H   UNL     1      10.567   3.581   2.071  0.00  0.00    +0.156 HD
ENDROOT
BRANCH   8  22
ATOM     22  C   UNL     1      10.687   5.149   3.395  0.00  0.00    +0.035 A 
ATOM     24  C   UNL     1       9.954   4.666   4.479  0.00  0.00    +0.027 A 
ATOM     25  C   UNL     1      11.607   6.181   3.580  0.00  0.00    +0.027 A 
ATOM     27  C   UNL     1      10.140   5.216   5.748  0.00  0.00    +0.047 A 
ATOM     28  C   UNL     1      11.794   6.731   4.850  0.00  0.00    +0.047 A 
ATOM     29  C   UNL     1      11.059   6.248   5.933  0.00  0.00    +0.120 A 
BRANCH  29   5
ATOM      5  O   UNL     1      11.239   6.785   7.170  0.00  0.00    -0.495 OA
ATOM     31  C   UNL     1      11.127   8.203   7.285  0.00  0.00    +0.277 C 
ENDBRANCH  29   5
ENDBRANCH   8  22
BRANCH  20   9
ATOM      3  O   UNL     1      14.796   7.482   3.541  0.00  0.00    -0.272 OA
ATOM      9  N   UNL     1      16.207   7.078   1.730  0.00  0.00    -0.278 N 
ATOM     23  C   UNL     1      15.850   7.665   2.936  0.00  0.00    +0.255 C 
ATOM     38  H   UNL     1      16.992   7.477   1.219  0.00  0.00    +0.155 HD
BRANCH  23  26
ATOM     26  C   UNL     1      16.934   8.589   3.448  0.00  0.00    +0.324 C 
BRANCH  26   4
ATOM      4  O   UNL     1      18.210   8.020   3.252  0.00  0.00    -0.483 OA
BRANCH   4  30
ATOM     30  C   UNL     1      19.052   7.973   4.338  0.00  0.00    +0.121 A 
ATOM     32  C   UNL     1      18.697   8.621   5.522  0.00  0.00    +0.045 A 
ATOM     33  C   UNL     1      20.260   7.281   4.257  0.00  0.00    +0.045 A 
ATOM     34  C   UNL     1      19.551   8.575   6.623  0.00  0.00    +0.004 A 
ATOM     35  C   UNL     1      21.113   7.236   5.358  0.00  0.00    +0.004 A 
ATOM     36  C   UNL     1      20.759   7.882   6.543  0.00  0.00    +0.000 A 
ENDBRANCH   4  30
ENDBRANCH  26   4
ENDBRANCH  23  26
ENDBRANCH  20   9
TORSDOF 6
ENDMDL
MODEL 10
REMARK VINA RESULT:      -6.4     17.533     21.888
REMARK  Name = 7164740
REMARK  7 active torsions:
REMARK  status: ('A' for Active; 'I' for Inactive)
REMARK    1  A    between atoms: O_4  and  C_26
REMARK    2  A    between atoms: O_4  and  C_30
REMARK    3  A    between atoms: O_5  and  C_29
REMARK    4  A    between atoms: O_5  and  C_31
REMARK    5  A    between atoms: N_8  and  C_22
REMARK    6  A    between atoms: N_9  and  C_20
REMARK    7  A    between atoms: C_23  and  C_26
REMARK                            x       y       z     vdW  Elec       q    Type
REMARK                         _______ _______ _______ _____ _____    ______ ____
ROOT
ATOM      1  O   UNL     1      20.774   3.821  20.560  0.00  0.00    -0.266 OA
ATOM      2  O   UNL     1      22.810   1.931  24.985  0.00  0.00    -0.252 OA
ATOM      6  N   UNL     1      24.552   2.574  23.606  0.00  0.00    -0.284 N 
ATOM      7  N   UNL     1      23.056   3.797  21.068  0.00  0.00    -0.310 N 
ATOM      8  N   UNL     1      23.853   3.963  25.380  0.00  0.00    -0.269 N 
ATOM     10  C   UNL     1      24.400   1.632  21.296  0.00  0.00    +0.027 C 
ATOM     11  C   UNL     1      25.505   3.796  21.656  0.00  0.00    +0.054 C 
ATOM     12  C   UNL     1      25.589   2.487  20.876  0.00  0.00    +0.018 C 
ATOM     13  C   UNL     1      24.451   1.350  22.806  0.00  0.00    +0.114 C 
ATOM     14  C   UNL     1      23.105   2.340  20.883  0.00  0.00    +0.130 C 
ATOM     15  C   UNL     1      25.605   3.511  23.170  0.00  0.00    +0.119 C 
ATOM     16  C   UNL     1      24.210   4.530  21.358  0.00  0.00    +0.027 A 
ATOM     17  C   UNL     1      24.165   5.871  21.407  0.00  0.00    +0.024 A 
ATOM     18  C   UNL     1      21.814   4.422  20.835  0.00  0.00    +0.273 A 
ATOM     19  C   UNL     1      23.664   2.769  24.686  0.00  0.00    +0.306 C 
ATOM     20  C   UNL     1      21.799   5.916  20.925  0.00  0.00    +0.099 A 
ATOM     21  C   UNL     1      22.933   6.576  21.187  0.00  0.00    +0.030 A 
ATOM     37  H   UNL     1      24.786   4.362  25.405  0.00  0.00    +0.156 HD
ENDROOT
BRANCH   8  22
ATOM     22  C   UNL     1      22.871   4.723  26.061  0.00  0.00    +0.035 A 
ATOM     24  C   UNL     1      22.263   5.806  25.426  0.00  0.00    +0.027 A 
ATOM     25  C   UNL     1      22.510   4.388  27.366  0.00  0.00    +0.027 A 
ATOM     27  C   UNL     1      21.296   6.555  26.097  0.00  0.00    +0.047 A 
ATOM     28  C   UNL     1      21.543   5.137  28.037  0.00  0.00    +0.047 A 
ATOM     29  C   UNL     1      20.936   6.221  27.402  0.00  0.00    +0.120 A 
BRANCH  29   5
ATOM      5  O   UNL     1      19.995   6.953  28.057  0.00  0.00    -0.495 OA
ATOM     31  C   UNL     1      19.997   6.889  29.482  0.00  0.00    +0.277 C 
ENDBRANCH  29   5
ENDBRANCH   8  22
BRANCH  20   9
ATOM      3  O   UNL     1      19.740   6.351  22.874  0.00  0.00    -0.272 OA
ATOM      9  N   UNL     1      20.614   6.559  20.723  0.00  0.00    -0.278 N 
ATOM     23  C   UNL     1      19.656   6.738  21.711  0.00  0.00    +0.255 C 
ATOM     38  H   UNL     1      20.337   6.716  19.756  0.00  0.00    +0.155 HD
BRANCH  23  26
ATOM     26  C   UNL     1      18.449   7.486  21.187  0.00  0.00    +0.324 C 
BRANCH  26   4
ATOM      4  O   UNL     1      17.630   6.636  20.413  0.00  0.00    -0.483 OA
BRANCH   4  30
ATOM     30  C   UNL     1      16.280   6.899  20.406  0.00  0.00    +0.121 A 
ATOM     32  C   UNL     1      15.633   7.255  21.589  0.00  0.00    +0.045 A 
ATOM     33  C   UNL     1      15.558   6.808  19.216  0.00  0.00    +0.045 A 
ATOM     34  C   UNL     1      14.264   7.520  21.581  0.00  0.00    +0.004 A 
ATOM     35  C   UNL     1      14.190   7.073  19.209  0.00  0.00    +0.004 A 
ATOM     36  C   UNL     1      13.542   7.430  20.392  0.00  0.00    +0.000 A 
ENDBRANCH   4  30
ENDBRANCH  26   4
ENDBRANCH  23  26
ENDBRANCH  20   9
TORSDOF 6
ENDMDL
