REMARK  Name = 7142825
REMARK  2 active torsions:
REMARK  status: ('A' for Active; 'I' for Inactive)
REMARK    1  A    between atoms: N_7  and  C_19
REMARK    2  A    between atoms: C_23  and  C_25
REMARK                            x       y       z     vdW  Elec       q    Type
REMARK                         _______ _______ _______ _____ _____    ______ ____
ROOT
ATOM      1  O   UNL     1      -0.833  -1.245   2.020  0.00  0.00    -0.266 OA
ATOM      3  N   UNL     1       3.634  -0.109   0.003  0.00  0.00    -0.299 N 
ATOM      4  N   UNL     1       0.862  -1.640   0.461  0.00  0.00    -0.310 N 
ATOM      5  N   UNL     1       4.006   1.936  -1.113  0.00  0.00    -0.223 NA
ATOM      6  N   UNL     1       3.977   1.836   1.294  0.00  0.00    -0.223 NA
ATOM      9  C   UNL     1       3.244  -2.290   1.137  0.00  0.00    +0.027 C 
ATOM     10  C   UNL     1       2.681  -2.030  -1.237  0.00  0.00    +0.054 C 
ATOM     11  C   UNL     1       3.297  -2.982  -0.217  0.00  0.00    +0.018 C 
ATOM     12  C   UNL     1       4.045  -0.974   1.114  0.00  0.00    +0.113 C 
ATOM     13  C   UNL     1       1.776  -2.069   1.526  0.00  0.00    +0.130 C 
ATOM     14  C   UNL     1       3.525  -0.743  -1.319  0.00  0.00    +0.117 C 
ATOM     15  C   UNL     1       1.246  -1.687  -0.882  0.00  0.00    +0.027 A 
ATOM     16  C   UNL     1       0.357  -1.404  -1.849  0.00  0.00    +0.024 A 
ATOM     17  C   UNL     1      -0.444  -1.283   0.852  0.00  0.00    +0.273 A 
ATOM     18  C   UNL     1       3.881   1.265   0.063  0.00  0.00    +0.218 A 
ATOM     19  C   UNL     1      -1.397  -0.949  -0.254  0.00  0.00    +0.099 A 
ATOM     20  C   UNL     1      -0.990  -1.026  -1.526  0.00  0.00    +0.030 A 
ATOM     21  C   UNL     1       4.243   3.260  -1.019  0.00  0.00    +0.116 A 
ATOM     22  C   UNL     1       4.215   3.164   1.315  0.00  0.00    +0.116 A 
ATOM     24  C   UNL     1       4.359   3.935   0.179  0.00  0.00    +0.039 A 
ENDROOT
BRANCH  19   7
ATOM      2  O   UNL     1      -3.111   0.767  -1.757  0.00  0.00    -0.270 OA
ATOM      7  N   UNL     1      -2.667  -0.584   0.083  0.00  0.00    -0.277 N 
ATOM     23  C   UNL     1      -3.453   0.257  -0.693  0.00  0.00    +0.248 C 
ATOM     30  H   UNL     1      -2.957  -0.845   1.019  0.00  0.00    +0.155 HD
BRANCH  23  25
ATOM      8  N   UNL     1      -7.361   1.016   0.792  0.00  0.00    -0.263 NA
ATOM     25  C   UNL     1      -4.819   0.522  -0.174  0.00  0.00    +0.040 A 
ATOM     26  C   UNL     1      -5.820   0.838  -1.062  0.00  0.00    +0.033 A 
ATOM     27  C   UNL     1      -5.044   0.445   1.180  0.00  0.00    +0.033 A 
ATOM     28  C   UNL     1      -7.076   1.076  -0.528  0.00  0.00    +0.111 A 
ATOM     29  C   UNL     1      -6.335   0.701   1.614  0.00  0.00    +0.111 A 
ENDBRANCH  23  25
ENDBRANCH  19   7
TORSDOF 2
