REMARK  Name = 45783808
REMARK  9 active torsions:
REMARK  status: ('A' for Active; 'I' for Inactive)
REMARK    1  A    between atoms: N_2  and  C_11
REMARK    2  A    between atoms: N_6  and  C_21
REMARK    3  A    between atoms: N_6  and  C_22
REMARK    4  A    between atoms: N_6  and  C_23
REMARK    5  A    between atoms: C_7  and  C_13
REMARK    6  A    between atoms: C_11  and  C_12
REMARK    7  A    between atoms: C_12  and  C_14
REMARK    8  A    between atoms: C_12  and  C_15
REMARK    9  A    between atoms: C_16  and  C_17
REMARK                            x       y       z     vdW  Elec       q    Type
REMARK                         _______ _______ _______ _____ _____    ______ ____
ROOT
ATOM      1  O   UNL     1      -1.496   0.081   2.075  0.00  0.00    -0.336 OA
ATOM      3  N   UNL     1      -0.693  -0.700   0.136  0.00  0.00    -0.190 NA
ATOM      4  N   UNL     1      -0.117   0.324   2.099  0.00  0.00    -0.056 NA
ATOM     13  C   UNL     1      -1.752  -0.524   0.885  0.00  0.00    +0.245 A 
ATOM     16  C   UNL     1       0.285  -0.165   0.922  0.00  0.00    +0.204 A 
ENDROOT
BRANCH  16  17
ATOM      5  N   UNL     1       3.948   0.474   0.975  0.00  0.00    -0.240 NA
ATOM     17  C   UNL     1       1.657  -0.134   0.502  0.00  0.00    +0.041 A 
ATOM     18  C   UNL     1       2.041  -0.653  -0.730  0.00  0.00    +0.016 A 
ATOM     19  C   UNL     1       2.640   0.413   1.310  0.00  0.00    +0.124 A 
ATOM     20  C   UNL     1       3.378  -0.609  -1.110  0.00  0.00    +0.044 A 
ATOM     21  C   UNL     1       4.284  -0.040  -0.229  0.00  0.00    +0.121 A 
BRANCH  21   6
ATOM      6  N   UNL     1       5.642  -0.004  -0.630  0.00  0.00    -0.321 N 
ATOM     22  C   UNL     1       6.037  -0.546  -1.912  0.00  0.00    +0.130 C 
ATOM     23  C   UNL     1       6.641   0.582   0.236  0.00  0.00    +0.130 C 
ENDBRANCH  21   6
ENDBRANCH  16  17
BRANCH  13   7
ATOM      2  N   UNL     1      -3.712  -0.283  -0.628  0.00  0.00    -0.291 NA
ATOM      7  C   UNL     1      -3.194  -0.894   0.612  0.00  0.00    +0.146 C 
ATOM      8  C   UNL     1      -3.392  -2.409   0.414  0.00  0.00    +0.030 C 
ATOM      9  C   UNL     1      -4.734  -1.195  -1.143  0.00  0.00    +0.085 C 
ATOM     10  C   UNL     1      -4.082  -2.547  -0.936  0.00  0.00    +0.017 C 
BRANCH   2  11
ATOM     11  C   UNL     1      -4.229   1.065  -0.432  0.00  0.00    +0.088 C 
BRANCH  11  12
ATOM     12  C   UNL     1      -3.116   2.128  -0.445  0.00  0.00    -0.003 C 
ATOM     14  C   UNL     1      -2.387   2.096  -1.790  0.00  0.00    +0.008 C 
ATOM     15  C   UNL     1      -3.649   3.539  -0.181  0.00  0.00    +0.008 C 
ENDBRANCH  11  12
ENDBRANCH   2  11
ENDBRANCH  13   7
TORSDOF 5
