MODEL 1
REMARK VINA RESULT:      -6.2      0.000      0.000
REMARK  Name = 75536874
REMARK  6 active torsions:
REMARK  status: ('A' for Active; 'I' for Inactive)
REMARK    1  A    between atoms: O_5  and  C_9
REMARK    2  A    between atoms: O_5  and  C_15
REMARK    3  A    between atoms: N_8  and  C_16
REMARK    4  A    between atoms: C_16  and  C_17
REMARK    5  A    between atoms: C_17  and  C_23
REMARK    6  A    between atoms: C_20  and  C_24
REMARK                            x       y       z     vdW  Elec       q    Type
REMARK                         _______ _______ _______ _____ _____    ______ ____
ROOT
ATOM      4  O   UNL     1      12.539   7.564  17.072  0.00  0.00    -0.375 OA
ATOM      6  O   UNL     1      15.837  11.435  18.240  0.00  0.00    -0.253 OA
ATOM      7  N   UNL     1      13.927  10.241  17.635  0.00  0.00    -0.280 N 
ATOM      8  N   UNL     1      14.979  11.732  16.125  0.00  0.00    -0.299 N 
ATOM      9  C   UNL     1      14.187   8.076  18.830  0.00  0.00    +0.216 C 
ATOM     10  C   UNL     1      13.870   9.568  18.936  0.00  0.00    +0.156 C 
ATOM     11  C   UNL     1      12.909   9.917  16.624  0.00  0.00    +0.137 C 
ATOM     12  C   UNL     1      12.991   7.241  18.380  0.00  0.00    +0.206 C 
ATOM     13  C   UNL     1      11.901   8.834  16.986  0.00  0.00    +0.179 C 
ATOM     14  C   UNL     1      14.980  11.158  17.395  0.00  0.00    +0.302 C 
ATOM     25  H   UNL     1      14.254  11.498  15.457  0.00  0.00    +0.150 HD
ENDROOT
BRANCH   9   5
ATOM      5  O   UNL     1      14.595   7.624  20.120  0.00  0.00    -0.485 OA
BRANCH   5  15
ATOM     15  C   UNL     1      15.893   7.210  20.241  0.00  0.00    +0.121 A 
ATOM     18  C   UNL     1      16.420   6.291  19.334  0.00  0.00    +0.046 A 
ATOM     19  C   UNL     1      16.690   7.706  21.274  0.00  0.00    +0.046 A 
ATOM     20  C   UNL     1      18.540   6.365  20.490  0.00  0.00    +0.055 A 
ATOM     21  C   UNL     1      17.743   5.869  19.458  0.00  0.00    +0.016 A 
ATOM     22  C   UNL     1      18.013   7.284  21.398  0.00  0.00    +0.016 A 
BRANCH  20  24
ATOM      1  F   UNL     1      20.345   5.709  21.917  0.00  0.00    -0.166 F 
ATOM      2  F   UNL     1      20.863   6.799  20.114  0.00  0.00    -0.166 F 
ATOM      3  F   UNL     1      20.193   4.734  19.979  0.00  0.00    -0.166 F 
ATOM     24  C   UNL     1      19.955   5.914  20.623  0.00  0.00    +0.417 C 
ENDBRANCH  20  24
ENDBRANCH   5  15
ENDBRANCH   9   5
BRANCH   8  16
ATOM     16  C   UNL     1      15.969  12.691  15.687  0.00  0.00    +0.105 C 
BRANCH  16  17
ATOM     17  C   UNL     1      17.133  12.031  14.957  0.00  0.00    +0.015 C 
ATOM     23  C   UNL     1      18.484  12.600  15.368  0.00  0.00    +0.005 C 
ENDBRANCH  16  17
ENDBRANCH   8  16
TORSDOF 5
ENDMDL
MODEL 2
REMARK VINA RESULT:      -6.1     27.131     28.652
REMARK  Name = 75536874
REMARK  6 active torsions:
REMARK  status: ('A' for Active; 'I' for Inactive)
REMARK    1  A    between atoms: O_5  and  C_9
REMARK    2  A    between atoms: O_5  and  C_15
REMARK    3  A    between atoms: N_8  and  C_16
REMARK    4  A    between atoms: C_16  and  C_17
REMARK    5  A    between atoms: C_17  and  C_23
REMARK    6  A    between atoms: C_20  and  C_24
REMARK                            x       y       z     vdW  Elec       q    Type
REMARK                         _______ _______ _______ _____ _____    ______ ____
ROOT
ATOM      4  O   UNL     1     -11.768  12.706  17.536  0.00  0.00    -0.375 OA
ATOM      6  O   UNL     1     -10.301   7.928  16.037  0.00  0.00    -0.253 OA
ATOM      7  N   UNL     1     -10.474  10.245  16.239  0.00  0.00    -0.280 N 
ATOM      8  N   UNL     1     -11.045   9.137  14.225  0.00  0.00    -0.299 N 
ATOM      9  C   UNL     1     -11.146  10.578  18.610  0.00  0.00    +0.216 C 
ATOM     10  C   UNL     1     -10.028  10.211  17.635  0.00  0.00    +0.156 C 
ATOM     11  C   UNL     1     -10.815  11.543  15.635  0.00  0.00    +0.137 C 
ATOM     12  C   UNL     1     -11.353  12.084  18.745  0.00  0.00    +0.206 C 
ATOM     13  C   UNL     1     -10.748  12.763  16.544  0.00  0.00    +0.179 C 
ATOM     14  C   UNL     1     -10.586   9.021  15.536  0.00  0.00    +0.302 C 
ATOM     25  H   UNL     1     -11.257  10.048  13.836  0.00  0.00    +0.150 HD
ENDROOT
BRANCH   9   5
ATOM      5  O   UNL     1     -10.799  10.053  19.890  0.00  0.00    -0.485 OA
BRANCH   5  15
ATOM     15  C   UNL     1     -11.591   9.048  20.374  0.00  0.00    +0.121 A 
ATOM     18  C   UNL     1     -12.772   9.354  21.050  0.00  0.00    +0.046 A 
ATOM     19  C   UNL     1     -11.217   7.715  20.193  0.00  0.00    +0.046 A 
ATOM     20  C   UNL     1     -13.204   6.998  21.363  0.00  0.00    +0.055 A 
ATOM     21  C   UNL     1     -13.579   8.330  21.545  0.00  0.00    +0.016 A 
ATOM     22  C   UNL     1     -12.024   6.691  20.688  0.00  0.00    +0.016 A 
BRANCH  20  24
ATOM      1  F   UNL     1     -14.689   6.214  23.068  0.00  0.00    -0.166 F 
ATOM      2  F   UNL     1     -13.388   4.744  22.145  0.00  0.00    -0.166 F 
ATOM      3  F   UNL     1     -15.068   5.559  21.030  0.00  0.00    -0.166 F 
ATOM     24  C   UNL     1     -14.067   5.903  21.892  0.00  0.00    +0.417 C 
ENDBRANCH  20  24
ENDBRANCH   5  15
ENDBRANCH   9   5
BRANCH   8  16
ATOM     16  C   UNL     1     -11.227   8.004  13.345  0.00  0.00    +0.105 C 
BRANCH  16  17
ATOM     17  C   UNL     1     -12.641   7.439  13.410  0.00  0.00    +0.015 C 
ATOM     23  C   UNL     1     -13.703   8.523  13.522  0.00  0.00    +0.005 C 
ENDBRANCH  16  17
ENDBRANCH   8  16
TORSDOF 5
ENDMDL
MODEL 3
REMARK VINA RESULT:      -6.1     31.177     33.267
REMARK  Name = 75536874
REMARK  6 active torsions:
REMARK  status: ('A' for Active; 'I' for Inactive)
REMARK    1  A    between atoms: O_5  and  C_9
REMARK    2  A    between atoms: O_5  and  C_15
REMARK    3  A    between atoms: N_8  and  C_16
REMARK    4  A    between atoms: C_16  and  C_17
REMARK    5  A    between atoms: C_17  and  C_23
REMARK    6  A    between atoms: C_20  and  C_24
REMARK                            x       y       z     vdW  Elec       q    Type
REMARK                         _______ _______ _______ _____ _____    ______ ____
ROOT
ATOM      4  O   UNL     1     -16.585   7.172  32.477  0.00  0.00    -0.375 OA
ATOM      6  O   UNL     1     -11.533   8.292  31.811  0.00  0.00    -0.253 OA
ATOM      7  N   UNL     1     -13.783   8.420  32.410  0.00  0.00    -0.280 N 
ATOM      8  N   UNL     1     -12.842   9.909  30.828  0.00  0.00    -0.299 N 
ATOM      9  C   UNL     1     -14.418   6.049  32.807  0.00  0.00    +0.216 C 
ATOM     10  C   UNL     1     -13.662   7.275  33.318  0.00  0.00    +0.156 C 
ATOM     11  C   UNL     1     -15.094   9.071  32.261  0.00  0.00    +0.137 C 
ATOM     12  C   UNL     1     -15.913   6.096  33.115  0.00  0.00    +0.206 C 
ATOM     13  C   UNL     1     -16.260   8.449  33.017  0.00  0.00    +0.179 C 
ATOM     14  C   UNL     1     -12.636   8.834  31.690  0.00  0.00    +0.302 C 
ATOM     25  H   UNL     1     -13.754  10.345  30.760  0.00  0.00    +0.150 HD
ENDROOT
BRANCH   9   5
ATOM      5  O   UNL     1     -13.862   4.898  33.441  0.00  0.00    -0.485 OA
BRANCH   5  15
ATOM     15  C   UNL     1     -14.061   3.698  32.815  0.00  0.00    +0.121 A 
ATOM     18  C   UNL     1     -13.759   3.560  31.460  0.00  0.00    +0.046 A 
ATOM     19  C   UNL     1     -14.567   2.612  33.530  0.00  0.00    +0.046 A 
ATOM     20  C   UNL     1     -14.469   1.253  31.536  0.00  0.00    +0.055 A 
ATOM     21  C   UNL     1     -13.963   2.338  30.820  0.00  0.00    +0.016 A 
ATOM     22  C   UNL     1     -14.771   1.390  32.891  0.00  0.00    +0.016 A 
BRANCH  20  24
ATOM      1  F   UNL     1     -15.461   0.036  29.730  0.00  0.00    -0.166 F 
ATOM      2  F   UNL     1     -15.306  -0.987  31.637  0.00  0.00    -0.166 F 
ATOM      3  F   UNL     1     -13.521  -0.636  30.445  0.00  0.00    -0.166 F 
ATOM     24  C   UNL     1     -14.687  -0.055  30.853  0.00  0.00    +0.417 C 
ENDBRANCH  20  24
ENDBRANCH   5  15
ENDBRANCH   9   5
BRANCH   8  16
ATOM     16  C   UNL     1     -11.796  10.479  30.007  0.00  0.00    +0.105 C 
BRANCH  16  17
ATOM     17  C   UNL     1     -12.151  10.468  28.524  0.00  0.00    +0.015 C 
ATOM     23  C   UNL     1     -11.042   9.887  27.659  0.00  0.00    +0.005 C 
ENDBRANCH  16  17
ENDBRANCH   8  16
TORSDOF 5
ENDMDL
MODEL 4
REMARK VINA RESULT:      -5.9     14.642     17.056
REMARK  Name = 75536874
REMARK  6 active torsions:
REMARK  status: ('A' for Active; 'I' for Inactive)
REMARK    1  A    between atoms: O_5  and  C_9
REMARK    2  A    between atoms: O_5  and  C_15
REMARK    3  A    between atoms: N_8  and  C_16
REMARK    4  A    between atoms: C_16  and  C_17
REMARK    5  A    between atoms: C_17  and  C_23
REMARK    6  A    between atoms: C_20  and  C_24
REMARK                            x       y       z     vdW  Elec       q    Type
REMARK                         _______ _______ _______ _____ _____    ______ ____
ROOT
ATOM      4  O   UNL     1       9.029  10.009   4.459  0.00  0.00    -0.375 OA
ATOM      6  O   UNL     1       9.683   5.032   5.883  0.00  0.00    -0.253 OA
ATOM      7  N   UNL     1       8.875   7.214   5.713  0.00  0.00    -0.280 N 
ATOM      8  N   UNL     1       9.851   6.413   7.717  0.00  0.00    -0.299 N 
ATOM      9  C   UNL     1       9.354   7.833   3.353  0.00  0.00    +0.216 C 
ATOM     10  C   UNL     1       8.487   7.018   4.313  0.00  0.00    +0.156 C 
ATOM     11  C   UNL     1       8.643   8.526   6.337  0.00  0.00    +0.137 C 
ATOM     12  C   UNL     1       8.914   9.290   3.239  0.00  0.00    +0.206 C 
ATOM     13  C   UNL     1       8.075   9.621   5.443  0.00  0.00    +0.179 C 
ATOM     14  C   UNL     1       9.485   6.136   6.401  0.00  0.00    +0.302 C 
ATOM     25  H   UNL     1       9.662   7.323   8.120  0.00  0.00    +0.150 HD
ENDROOT
BRANCH   9   5
ATOM      5  O   UNL     1       9.260   7.231   2.063  0.00  0.00    -0.485 OA
BRANCH   5  15
ATOM     15  C   UNL     1      10.238   6.333   1.735  0.00  0.00    +0.121 A 
ATOM     18  C   UNL     1      11.476   6.384   2.376  0.00  0.00    +0.046 A 
ATOM     19  C   UNL     1       9.999   5.365   0.757  0.00  0.00    +0.046 A 
ATOM     20  C   UNL     1      12.235   4.503   1.064  0.00  0.00    +0.055 A 
ATOM     21  C   UNL     1      12.474   5.470   2.041  0.00  0.00    +0.016 A 
ATOM     22  C   UNL     1      10.998   4.451   0.422  0.00  0.00    +0.016 A 
BRANCH  20  24
ATOM      1  F   UNL     1      14.424   4.104   0.183  0.00  0.00    -0.166 F 
ATOM      2  F   UNL     1      12.911   2.604  -0.226  0.00  0.00    -0.166 F 
ATOM      3  F   UNL     1      13.732   2.799   1.778  0.00  0.00    -0.166 F 
ATOM     24  C   UNL     1      13.301   3.525   0.705  0.00  0.00    +0.417 C 
ENDBRANCH  20  24
ENDBRANCH   5  15
ENDBRANCH   9   5
BRANCH   8  16
ATOM     16  C   UNL     1      10.486   5.445   8.584  0.00  0.00    +0.105 C 
BRANCH  16  17
ATOM     17  C   UNL     1       9.530   4.338   9.017  0.00  0.00    +0.015 C 
ATOM     23  C   UNL     1       8.834   4.644  10.335  0.00  0.00    +0.005 C 
ENDBRANCH  16  17
ENDBRANCH   8  16
TORSDOF 5
ENDMDL
MODEL 5
REMARK VINA RESULT:      -5.9     31.145     33.600
REMARK  Name = 75536874
REMARK  6 active torsions:
REMARK  status: ('A' for Active; 'I' for Inactive)
REMARK    1  A    between atoms: O_5  and  C_9
REMARK    2  A    between atoms: O_5  and  C_15
REMARK    3  A    between atoms: N_8  and  C_16
REMARK    4  A    between atoms: C_16  and  C_17
REMARK    5  A    between atoms: C_17  and  C_23
REMARK    6  A    between atoms: C_20  and  C_24
REMARK                            x       y       z     vdW  Elec       q    Type
REMARK                         _______ _______ _______ _____ _____    ______ ____
ROOT
ATOM      4  O   UNL     1     -17.593   0.448  23.919  0.00  0.00    -0.375 OA
ATOM      6  O   UNL     1     -16.309   5.503  24.042  0.00  0.00    -0.253 OA
ATOM      7  N   UNL     1     -17.257   3.459  23.440  0.00  0.00    -0.280 N 
ATOM      8  N   UNL     1     -15.753   4.591  22.003  0.00  0.00    -0.299 N 
ATOM      9  C   UNL     1     -17.441   2.241  25.600  0.00  0.00    +0.216 C 
ATOM     10  C   UNL     1     -17.982   3.361  24.710  0.00  0.00    +0.156 C 
ATOM     11  C   UNL     1     -17.395   2.372  22.458  0.00  0.00    +0.137 C 
ATOM     12  C   UNL     1     -17.978   0.863  25.222  0.00  0.00    +0.206 C 
ATOM     13  C   UNL     1     -18.236   1.173  22.875  0.00  0.00    +0.179 C 
ATOM     14  C   UNL     1     -16.429   4.588  23.222  0.00  0.00    +0.302 C 
ATOM     25  H   UNL     1     -15.882   3.833  21.343  0.00  0.00    +0.150 HD
ENDROOT
BRANCH   9   5
ATOM      5  O   UNL     1     -17.829   2.525  26.944  0.00  0.00    -0.485 OA
BRANCH   5  15
ATOM     15  C   UNL     1     -16.912   2.242  27.918  0.00  0.00    +0.121 A 
ATOM     18  C   UNL     1     -17.010   1.056  28.645  0.00  0.00    +0.046 A 
ATOM     19  C   UNL     1     -15.879   3.141  28.187  0.00  0.00    +0.046 A 
ATOM     20  C   UNL     1     -15.044   1.666  29.908  0.00  0.00    +0.055 A 
ATOM     21  C   UNL     1     -16.076   0.767  29.640  0.00  0.00    +0.016 A 
ATOM     22  C   UNL     1     -14.945   2.853  29.182  0.00  0.00    +0.016 A 
BRANCH  20  24
ATOM      1  F   UNL     1     -13.100   0.447  30.588  0.00  0.00    -0.166 F 
ATOM      2  F   UNL     1     -14.596   0.840  32.109  0.00  0.00    -0.166 F 
ATOM      3  F   UNL     1     -13.346   2.460  31.371  0.00  0.00    -0.166 F 
ATOM     24  C   UNL     1     -14.044   1.358  30.971  0.00  0.00    +0.417 C 
ENDBRANCH  20  24
ENDBRANCH   5  15
ENDBRANCH   9   5
BRANCH   8  16
ATOM     16  C   UNL     1     -14.861   5.653  21.594  0.00  0.00    +0.105 C 
BRANCH  16  17
ATOM     17  C   UNL     1     -13.418   5.393  22.011  0.00  0.00    +0.015 C 
ATOM     23  C   UNL     1     -12.423   6.275  21.270  0.00  0.00    +0.005 C 
ENDBRANCH  16  17
ENDBRANCH   8  16
TORSDOF 5
ENDMDL
MODEL 6
REMARK VINA RESULT:      -5.8     14.255     16.452
REMARK  Name = 75536874
REMARK  6 active torsions:
REMARK  status: ('A' for Active; 'I' for Inactive)
REMARK    1  A    between atoms: O_5  and  C_9
REMARK    2  A    between atoms: O_5  and  C_15
REMARK    3  A    between atoms: N_8  and  C_16
REMARK    4  A    between atoms: C_16  and  C_17
REMARK    5  A    between atoms: C_17  and  C_23
REMARK    6  A    between atoms: C_20  and  C_24
REMARK                            x       y       z     vdW  Elec       q    Type
REMARK                         _______ _______ _______ _____ _____    ______ ____
ROOT
ATOM      4  O   UNL     1       8.410   8.579   0.661  0.00  0.00    -0.375 OA
ATOM      6  O   UNL     1      11.492   5.633   3.668  0.00  0.00    -0.253 OA
ATOM      7  N   UNL     1      10.729   7.129   2.050  0.00  0.00    -0.280 N 
ATOM      8  N   UNL     1      11.809   5.109   1.450  0.00  0.00    -0.299 N 
ATOM      9  C   UNL     1       8.665   8.081   3.059  0.00  0.00    +0.216 C 
ATOM     10  C   UNL     1      10.193   8.039   3.066  0.00  0.00    +0.156 C 
ATOM     11  C   UNL     1      10.570   7.479   0.630  0.00  0.00    +0.137 C 
ATOM     12  C   UNL     1       8.097   9.000   1.981  0.00  0.00    +0.206 C 
ATOM     13  C   UNL     1       9.782   8.745   0.318  0.00  0.00    +0.179 C 
ATOM     14  C   UNL     1      11.354   5.932   2.478  0.00  0.00    +0.302 C 
ATOM     25  H   UNL     1      11.697   5.387   0.482  0.00  0.00    +0.150 HD
ENDROOT
BRANCH   9   5
ATOM      5  O   UNL     1       8.235   8.558   4.333  0.00  0.00    -0.485 OA
BRANCH   5  15
ATOM     15  C   UNL     1       8.534   7.774   5.413  0.00  0.00    +0.121 A 
ATOM     18  C   UNL     1       8.720   8.355   6.667  0.00  0.00    +0.046 A 
ATOM     19  C   UNL     1       8.653   6.392   5.260  0.00  0.00    +0.046 A 
ATOM     20  C   UNL     1       9.145   6.175   7.615  0.00  0.00    +0.055 A 
ATOM     21  C   UNL     1       9.026   7.556   7.768  0.00  0.00    +0.016 A 
ATOM     22  C   UNL     1       8.959   5.593   6.361  0.00  0.00    +0.016 A 
BRANCH  20  24
ATOM      1  F   UNL     1       9.562   3.988   8.494  0.00  0.00    -0.166 F 
ATOM      2  F   UNL     1       8.549   5.395   9.798  0.00  0.00    -0.166 F 
ATOM      3  F   UNL     1      10.666   5.646   9.366  0.00  0.00    -0.166 F 
ATOM     24  C   UNL     1       9.471   5.319   8.792  0.00  0.00    +0.417 C 
ENDBRANCH  20  24
ENDBRANCH   5  15
ENDBRANCH   9   5
BRANCH   8  16
ATOM     16  C   UNL     1      12.475   3.845   1.681  0.00  0.00    +0.105 C 
BRANCH  16  17
ATOM     17  C   UNL     1      13.728   3.684   0.829  0.00  0.00    +0.015 C 
ATOM     23  C   UNL     1      14.988   3.508   1.663  0.00  0.00    +0.005 C 
ENDBRANCH  16  17
ENDBRANCH   8  16
TORSDOF 5
ENDMDL
MODEL 7
REMARK VINA RESULT:      -5.8     27.578     29.919
REMARK  Name = 75536874
REMARK  6 active torsions:
REMARK  status: ('A' for Active; 'I' for Inactive)
REMARK    1  A    between atoms: O_5  and  C_9
REMARK    2  A    between atoms: O_5  and  C_15
REMARK    3  A    between atoms: N_8  and  C_16
REMARK    4  A    between atoms: C_16  and  C_17
REMARK    5  A    between atoms: C_17  and  C_23
REMARK    6  A    between atoms: C_20  and  C_24
REMARK                            x       y       z     vdW  Elec       q    Type
REMARK                         _______ _______ _______ _____ _____    ______ ____
ROOT
ATOM      4  O   UNL     1      -7.026 -13.057  18.851  0.00  0.00    -0.375 OA
ATOM      6  O   UNL     1      -8.624  -8.621  16.616  0.00  0.00    -0.253 OA
ATOM      7  N   UNL     1      -8.371 -10.405  18.098  0.00  0.00    -0.280 N 
ATOM      8  N   UNL     1     -10.412 -10.029  16.957  0.00  0.00    -0.299 N 
ATOM      9  C   UNL     1      -5.997 -11.082  17.799  0.00  0.00    +0.216 C 
ATOM     10  C   UNL     1      -6.974 -10.053  18.368  0.00  0.00    +0.156 C 
ATOM     11  C   UNL     1      -8.948 -11.582  18.766  0.00  0.00    +0.137 C 
ATOM     12  C   UNL     1      -5.830 -12.306  18.694  0.00  0.00    +0.206 C 
ATOM     13  C   UNL     1      -8.011 -12.401  19.644  0.00  0.00    +0.179 C 
ATOM     14  C   UNL     1      -9.102  -9.611  17.180  0.00  0.00    +0.302 C 
ATOM     25  H   UNL     1     -10.783 -10.836  17.445  0.00  0.00    +0.150 HD
ENDROOT
BRANCH   9   5
ATOM      5  O   UNL     1      -4.727 -10.447  17.658  0.00  0.00    -0.485 OA
BRANCH   5  15
ATOM     15  C   UNL     1      -4.140 -10.520  16.425  0.00  0.00    +0.121 A 
ATOM     18  C   UNL     1      -4.927 -10.482  15.274  0.00  0.00    +0.046 A 
ATOM     19  C   UNL     1      -2.753 -10.634  16.318  0.00  0.00    +0.046 A 
ATOM     20  C   UNL     1      -2.943 -10.672  13.910  0.00  0.00    +0.055 A 
ATOM     21  C   UNL     1      -4.329 -10.558  14.017  0.00  0.00    +0.016 A 
ATOM     22  C   UNL     1      -2.155 -10.710  15.061  0.00  0.00    +0.016 A 
BRANCH  20  24
ATOM      1  F   UNL     1      -1.694 -11.952  12.320  0.00  0.00    -0.166 F 
ATOM      2  F   UNL     1      -1.330  -9.814  12.365  0.00  0.00    -0.166 F 
ATOM      3  F   UNL     1      -3.194 -10.580  11.547  0.00  0.00    -0.166 F 
ATOM     24  C   UNL     1      -2.302 -10.752  12.566  0.00  0.00    +0.417 C 
ENDBRANCH  20  24
ENDBRANCH   5  15
ENDBRANCH   9   5
BRANCH   8  16
ATOM     16  C   UNL     1     -11.319  -9.351  16.056  0.00  0.00    +0.105 C 
BRANCH  16  17
ATOM     17  C   UNL     1     -12.099  -8.239  16.747  0.00  0.00    +0.015 C 
ATOM     23  C   UNL     1     -11.777  -6.860  16.189  0.00  0.00    +0.005 C 
ENDBRANCH  16  17
ENDBRANCH   8  16
TORSDOF 5
ENDMDL
MODEL 8
REMARK VINA RESULT:      -5.7     14.042     16.110
REMARK  Name = 75536874
REMARK  6 active torsions:
REMARK  status: ('A' for Active; 'I' for Inactive)
REMARK    1  A    between atoms: O_5  and  C_9
REMARK    2  A    between atoms: O_5  and  C_15
REMARK    3  A    between atoms: N_8  and  C_16
REMARK    4  A    between atoms: C_16  and  C_17
REMARK    5  A    between atoms: C_17  and  C_23
REMARK    6  A    between atoms: C_20  and  C_24
REMARK                            x       y       z     vdW  Elec       q    Type
REMARK                         _______ _______ _______ _____ _____    ______ ____
ROOT
ATOM      4  O   UNL     1      13.766   3.250   1.501  0.00  0.00    -0.375 OA
ATOM      6  O   UNL     1      14.548   8.298   2.562  0.00  0.00    -0.253 OA
ATOM      7  N   UNL     1      14.502   6.228   1.489  0.00  0.00    -0.280 N 
ATOM      8  N   UNL     1      16.548   7.270   2.070  0.00  0.00    -0.299 N 
ATOM      9  C   UNL     1      12.470   5.135   2.415  0.00  0.00    +0.216 C 
ATOM     10  C   UNL     1      13.036   6.204   1.481  0.00  0.00    +0.156 C 
ATOM     11  C   UNL     1      15.233   5.088   0.913  0.00  0.00    +0.137 C 
ATOM     12  C   UNL     1      12.465   3.740   1.794  0.00  0.00    +0.206 C 
ATOM     13  C   UNL     1      14.396   3.918   0.412  0.00  0.00    +0.179 C 
ATOM     14  C   UNL     1      15.156   7.338   2.077  0.00  0.00    +0.302 C 
ATOM     25  H   UNL     1      17.020   6.477   1.651  0.00  0.00    +0.150 HD
ENDROOT
BRANCH   9   5
ATOM      5  O   UNL     1      11.125   5.495   2.727  0.00  0.00    -0.485 OA
BRANCH   5  15
ATOM     15  C   UNL     1      10.791   5.521   4.053  0.00  0.00    +0.121 A 
ATOM     18  C   UNL     1      11.178   6.599   4.850  0.00  0.00    +0.046 A 
ATOM     19  C   UNL     1      10.064   4.468   4.611  0.00  0.00    +0.046 A 
ATOM     20  C   UNL     1      10.112   5.573   6.759  0.00  0.00    +0.055 A 
ATOM     21  C   UNL     1      10.840   6.625   6.202  0.00  0.00    +0.016 A 
ATOM     22  C   UNL     1       9.725   4.495   5.964  0.00  0.00    +0.016 A 
BRANCH  20  24
ATOM      1  F   UNL     1      10.811   5.837   9.032  0.00  0.00    -0.166 F 
ATOM      2  F   UNL     1       9.202   4.432   8.655  0.00  0.00    -0.166 F 
ATOM      3  F   UNL     1       8.835   6.570   8.499  0.00  0.00    -0.166 F 
ATOM     24  C   UNL     1       9.749   5.600   8.205  0.00  0.00    +0.417 C 
ENDBRANCH  20  24
ENDBRANCH   5  15
ENDBRANCH   9   5
BRANCH   8  16
ATOM     16  C   UNL     1      17.395   8.304   2.622  0.00  0.00    +0.105 C 
BRANCH  16  17
ATOM     17  C   UNL     1      17.731   8.057   4.088  0.00  0.00    +0.015 C 
ATOM     23  C   UNL     1      19.201   8.297   4.404  0.00  0.00    +0.005 C 
ENDBRANCH  16  17
ENDBRANCH   8  16
TORSDOF 5
ENDMDL
MODEL 9
REMARK VINA RESULT:      -5.6     28.088     30.283
REMARK  Name = 75536874
REMARK  6 active torsions:
REMARK  status: ('A' for Active; 'I' for Inactive)
REMARK    1  A    between atoms: O_5  and  C_9
REMARK    2  A    between atoms: O_5  and  C_15
REMARK    3  A    between atoms: N_8  and  C_16
REMARK    4  A    between atoms: C_16  and  C_17
REMARK    5  A    between atoms: C_17  and  C_23
REMARK    6  A    between atoms: C_20  and  C_24
REMARK                            x       y       z     vdW  Elec       q    Type
REMARK                         _______ _______ _______ _____ _____    ______ ____
ROOT
ATOM      4  O   UNL     1      -9.697 -12.992  19.536  0.00  0.00    -0.375 OA
ATOM      6  O   UNL     1      -7.782  -8.843  17.018  0.00  0.00    -0.253 OA
ATOM      7  N   UNL     1      -8.951 -10.197  18.514  0.00  0.00    -0.280 N 
ATOM      8  N   UNL     1     -10.082  -8.818  16.956  0.00  0.00    -0.299 N 
ATOM      9  C   UNL     1      -7.503 -12.206  18.738  0.00  0.00    +0.216 C 
ATOM     10  C   UNL     1      -7.711 -10.732  19.083  0.00  0.00    +0.156 C 
ATOM     11  C   UNL     1     -10.238 -10.682  19.037  0.00  0.00    +0.137 C 
ATOM     12  C   UNL     1      -8.290 -13.149  19.646  0.00  0.00    +0.206 C 
ATOM     13  C   UNL     1     -10.181 -11.775  20.096  0.00  0.00    +0.179 C 
ATOM     14  C   UNL     1      -8.859  -9.254  17.461  0.00  0.00    +0.302 C 
ATOM     25  H   UNL     1     -10.951  -9.161  17.349  0.00  0.00    +0.150 HD
ENDROOT
BRANCH   9   5
ATOM      5  O   UNL     1      -6.114 -12.497  18.880  0.00  0.00    -0.485 OA
BRANCH   5  15
ATOM     15  C   UNL     1      -5.298 -12.099  17.857  0.00  0.00    +0.121 A 
ATOM     18  C   UNL     1      -5.654 -12.369  16.536  0.00  0.00    +0.046 A 
ATOM     19  C   UNL     1      -4.108 -11.424  18.134  0.00  0.00    +0.046 A 
ATOM     20  C   UNL     1      -3.633 -11.291  15.770  0.00  0.00    +0.055 A 
ATOM     21  C   UNL     1      -4.822 -11.965  15.492  0.00  0.00    +0.016 A 
ATOM     22  C   UNL     1      -3.276 -11.020  17.091  0.00  0.00    +0.016 A 
BRANCH  20  24
ATOM      1  F   UNL     1      -1.817  -9.922  15.024  0.00  0.00    -0.166 F 
ATOM      2  F   UNL     1      -3.414 -10.297  13.604  0.00  0.00    -0.166 F 
ATOM      3  F   UNL     1      -2.027 -11.890  14.122  0.00  0.00    -0.166 F 
ATOM     24  C   UNL     1      -2.744 -10.857  14.654  0.00  0.00    +0.417 C 
ENDBRANCH  20  24
ENDBRANCH   5  15
ENDBRANCH   9   5
BRANCH   8  16
ATOM     16  C   UNL     1     -10.200  -7.858  15.881  0.00  0.00    +0.105 C 
BRANCH  16  17
ATOM     17  C   UNL     1     -10.834  -6.549  16.338  0.00  0.00    +0.015 C 
ATOM     23  C   UNL     1     -11.658  -5.882  15.247  0.00  0.00    +0.005 C 
ENDBRANCH  16  17
ENDBRANCH   8  16
TORSDOF 5
ENDMDL
MODEL 10
REMARK VINA RESULT:      -5.6     24.253     25.614
REMARK  Name = 75536874
REMARK  6 active torsions:
REMARK  status: ('A' for Active; 'I' for Inactive)
REMARK    1  A    between atoms: O_5  and  C_9
REMARK    2  A    between atoms: O_5  and  C_15
REMARK    3  A    between atoms: N_8  and  C_16
REMARK    4  A    between atoms: C_16  and  C_17
REMARK    5  A    between atoms: C_17  and  C_23
REMARK    6  A    between atoms: C_20  and  C_24
REMARK                            x       y       z     vdW  Elec       q    Type
REMARK                         _______ _______ _______ _____ _____    ______ ____
ROOT
ATOM      4  O   UNL     1      -5.061  11.042  34.727  0.00  0.00    -0.375 OA
ATOM      6  O   UNL     1      -0.206  12.527  35.933  0.00  0.00    -0.253 OA
ATOM      7  N   UNL     1      -2.413  12.525  35.177  0.00  0.00    -0.280 N 
ATOM      8  N   UNL     1      -0.599  12.841  33.687  0.00  0.00    -0.299 N 
ATOM      9  C   UNL     1      -3.535  10.868  36.653  0.00  0.00    +0.216 C 
ATOM     10  C   UNL     1      -2.931  12.266  36.523  0.00  0.00    +0.156 C 
ATOM     11  C   UNL     1      -3.364  12.641  34.061  0.00  0.00    +0.137 C 
ATOM     12  C   UNL     1      -4.963  10.781  36.120  0.00  0.00    +0.206 C 
ATOM     13  C   UNL     1      -4.834  12.406  34.384  0.00  0.00    +0.179 C 
ATOM     14  C   UNL     1      -1.011  12.624  35.001  0.00  0.00    +0.302 C 
ATOM     25  H   UNL     1      -1.282  12.931  32.944  0.00  0.00    +0.150 HD
ENDROOT
BRANCH   9   5
ATOM      5  O   UNL     1      -3.547  10.524  38.037  0.00  0.00    -0.485 OA
BRANCH   5  15
ATOM     15  C   UNL     1      -2.863   9.394  38.393  0.00  0.00    +0.121 A 
ATOM     18  C   UNL     1      -1.580   9.170  37.894  0.00  0.00    +0.046 A 
ATOM     19  C   UNL     1      -3.448   8.465  39.255  0.00  0.00    +0.046 A 
ATOM     20  C   UNL     1      -1.467   7.090  39.116  0.00  0.00    +0.055 A 
ATOM     21  C   UNL     1      -0.882   8.018  38.255  0.00  0.00    +0.016 A 
ATOM     22  C   UNL     1      -2.750   7.313  39.616  0.00  0.00    +0.016 A 
BRANCH  20  24
ATOM      1  F   UNL     1       0.212   5.470  38.583  0.00  0.00    -0.166 F 
ATOM      2  F   UNL     1      -1.522   4.765  39.680  0.00  0.00    -0.166 F 
ATOM      3  F   UNL     1      -0.038   6.004  40.676  0.00  0.00    -0.166 F 
ATOM     24  C   UNL     1      -0.721   5.858  39.504  0.00  0.00    +0.417 C 
ENDBRANCH  20  24
ENDBRANCH   5  15
ENDBRANCH   9   5
BRANCH   8  16
ATOM     16  C   UNL     1       0.789  12.971  33.302  0.00  0.00    +0.105 C 
BRANCH  16  17
ATOM     17  C   UNL     1       0.953  13.590  31.919  0.00  0.00    +0.015 C 
ATOM     23  C   UNL     1       1.603  12.640  30.923  0.00  0.00    +0.005 C 
ENDBRANCH  16  17
ENDBRANCH   8  16
TORSDOF 5
ENDMDL
