REMARK  Name = 51136967
REMARK  5 active torsions:
REMARK  status: ('A' for Active; 'I' for Inactive)
REMARK    1  A    between atoms: N_2  and  C_13
REMARK    2  A    between atoms: C_9  and  C_14
REMARK    3  A    between atoms: C_13  and  C_15
REMARK    4  A    between atoms: C_16  and  C_18
REMARK    5  A    between atoms: C_23  and  C_24
REMARK                            x       y       z     vdW  Elec       q    Type
REMARK                         _______ _______ _______ _____ _____    ______ ____
ROOT
ATOM      1  O   UNL     1      -2.383   0.456  -2.000  0.00  0.00    -0.336 OA
ATOM      3  N   UNL     1      -1.460   0.988  -0.029  0.00  0.00    -0.190 NA
ATOM      6  N   UNL     1      -1.011   0.202  -2.130  0.00  0.00    -0.056 NA
ATOM     14  C   UNL     1      -2.561   0.916  -0.734  0.00  0.00    +0.245 A 
ATOM     16  C   UNL     1      -0.536   0.540  -0.928  0.00  0.00    +0.204 A 
ENDROOT
BRANCH  16  18
ATOM      7  N   UNL     1       3.106  -0.130  -1.262  0.00  0.00    -0.254 NA
ATOM     18  C   UNL     1       0.855   0.443  -0.593  0.00  0.00    +0.041 A 
ATOM     20  C   UNL     1       1.315   0.805   0.669  0.00  0.00    +0.015 A 
ATOM     21  C   UNL     1       1.783  -0.014  -1.514  0.00  0.00    +0.123 A 
ATOM     22  C   UNL     1       2.669   0.700   0.966  0.00  0.00    +0.029 A 
ATOM     23  C   UNL     1       3.516   0.231  -0.026  0.00  0.00    +0.071 A 
BRANCH  23  24
ATOM      8  N   UNL     1       7.679  -0.162   0.667  0.00  0.00    -0.263 NA
ATOM     24  C   UNL     1       4.934   0.097   0.211  0.00  0.00    +0.003 A 
ATOM     25  C   UNL     1       5.398  -0.739   1.220  0.00  0.00    +0.030 A 
ATOM     26  C   UNL     1       5.841   0.804  -0.571  0.00  0.00    +0.030 A 
ATOM     27  C   UNL     1       6.768  -0.833   1.406  0.00  0.00    +0.111 A 
ATOM     28  C   UNL     1       7.191   0.641  -0.305  0.00  0.00    +0.111 A 
ENDBRANCH  23  24
ENDBRANCH  16  18
BRANCH  14   9
ATOM      2  N   UNL     1      -4.441   0.516   0.848  0.00  0.00    -0.284 NA
ATOM      9  C   UNL     1      -3.980   1.267  -0.337  0.00  0.00    +0.146 C 
ATOM     10  C   UNL     1      -4.139   2.748   0.052  0.00  0.00    +0.030 C 
ATOM     11  C   UNL     1      -4.752   2.730   1.445  0.00  0.00    +0.017 C 
ATOM     12  C   UNL     1      -5.417   1.371   1.525  0.00  0.00    +0.085 C 
BRANCH   2  13
ATOM     13  C   UNL     1      -4.992  -0.792   0.520  0.00  0.00    +0.159 C 
BRANCH  13  15
ATOM      4  N   UNL     1      -2.986  -2.109   1.245  0.00  0.00    -0.347 N 
ATOM      5  N   UNL     1      -3.715  -2.513  -0.814  0.00  0.00    -0.239 NA
ATOM     15  C   UNL     1      -3.910  -1.812   0.281  0.00  0.00    +0.121 A 
ATOM     17  C   UNL     1      -2.149  -3.059   0.731  0.00  0.00    +0.104 A 
ATOM     19  C   UNL     1      -2.619  -3.292  -0.540  0.00  0.00    +0.130 A 
ATOM     29  H   UNL     1      -2.930  -1.699   2.168  0.00  0.00    +0.167 HD
ENDBRANCH  13  15
ENDBRANCH   2  13
ENDBRANCH  14   9
TORSDOF 5
