MODEL 1
REMARK VINA RESULT:      -7.1      0.000      0.000
REMARK  Name = 45783582
REMARK  5 active torsions:
REMARK  status: ('A' for Active; 'I' for Inactive)
REMARK    1  A    between atoms: O_1  and  C_11
REMARK    2  A    between atoms: O_1  and  C_19
REMARK    3  A    between atoms: N_3  and  C_18
REMARK    4  A    between atoms: C_7  and  C_17
REMARK    5  A    between atoms: C_20  and  C_21
REMARK                            x       y       z     vdW  Elec       q    Type
REMARK                         _______ _______ _______ _____ _____    ______ ____
ROOT
ATOM      6  N   UNL     1      18.592   7.623  21.689  0.00  0.00    -0.221 NA
ATOM     19  C   UNL     1      19.374   6.732  21.040  0.00  0.00    +0.215 A 
ATOM     21  C   UNL     1      16.783   6.976  20.222  0.00  0.00    +0.041 A 
ATOM     22  C   UNL     1      18.941   5.938  19.990  0.00  0.00    +0.068 A 
ATOM     23  C   UNL     1      17.619   6.068  19.580  0.00  0.00    +0.018 A 
ATOM     24  C   UNL     1      17.313   7.723  21.261  0.00  0.00    +0.126 A 
ENDROOT
BRANCH  21  20
ATOM      2  O   UNL     1      13.655   7.316  18.623  0.00  0.00    -0.336 OA
ATOM      4  N   UNL     1      14.413   7.289  20.731  0.00  0.00    -0.190 NA
ATOM      5  N   UNL     1      15.042   7.139  18.536  0.00  0.00    -0.056 NA
ATOM     17  C   UNL     1      13.369   7.395  19.949  0.00  0.00    +0.245 A 
ATOM     20  C   UNL     1      15.417   7.133  19.819  0.00  0.00    +0.204 A 
BRANCH  17   7
ATOM      3  N   UNL     1      11.566   6.979  21.614  0.00  0.00    -0.294 NA
ATOM      7  C   UNL     1      11.912   7.589  20.315  0.00  0.00    +0.146 C 
ATOM      8  C   UNL     1      11.530   9.073  20.466  0.00  0.00    +0.030 C 
ATOM      9  C   UNL     1      10.923   9.188  21.856  0.00  0.00    +0.017 C 
ATOM     10  C   UNL     1      10.471   7.776  22.167  0.00  0.00    +0.085 C 
ATOM     18  C   UNL     1      11.221   5.567  21.513  0.00  0.00    +0.105 C 
ENDBRANCH  17   7
ENDBRANCH  21  20
BRANCH  19   1
ATOM      1  O   UNL     1      20.672   6.622  21.465  0.00  0.00    -0.473 OA
BRANCH   1  11
ATOM     11  C   UNL     1      21.413   5.507  20.981  0.00  0.00    +0.175 C 
ATOM     12  C   UNL     1      22.817   5.959  20.584  0.00  0.00    +0.044 C 
ATOM     13  C   UNL     1      21.452   4.414  22.048  0.00  0.00    +0.044 C 
ATOM     14  C   UNL     1      23.683   4.781  20.149  0.00  0.00    +0.004 C 
ATOM     15  C   UNL     1      22.319   3.236  21.613  0.00  0.00    +0.004 C 
ATOM     16  C   UNL     1      23.721   3.688  21.214  0.00  0.00    +0.000 C 
ENDBRANCH   1  11
ENDBRANCH  19   1
TORSDOF 4
ENDMDL
MODEL 2
REMARK VINA RESULT:      -6.9      1.839      9.394
REMARK  Name = 45783582
REMARK  5 active torsions:
REMARK  status: ('A' for Active; 'I' for Inactive)
REMARK    1  A    between atoms: O_1  and  C_11
REMARK    2  A    between atoms: O_1  and  C_19
REMARK    3  A    between atoms: N_3  and  C_18
REMARK    4  A    between atoms: C_7  and  C_17
REMARK    5  A    between atoms: C_20  and  C_21
REMARK                            x       y       z     vdW  Elec       q    Type
REMARK                         _______ _______ _______ _____ _____    ______ ____
ROOT
ATOM      6  N   UNL     1      16.529   5.848  18.570  0.00  0.00    -0.221 NA
ATOM     19  C   UNL     1      15.801   6.723  19.301  0.00  0.00    +0.215 A 
ATOM     21  C   UNL     1      18.349   6.196  20.123  0.00  0.00    +0.041 A 
ATOM     22  C   UNL     1      16.270   7.365  20.436  0.00  0.00    +0.068 A 
ATOM     23  C   UNL     1      17.569   7.090  20.848  0.00  0.00    +0.018 A 
ATOM     24  C   UNL     1      17.787   5.607  19.001  0.00  0.00    +0.126 A 
ENDROOT
BRANCH  21  20
ATOM      2  O   UNL     1      21.717   6.102  21.171  0.00  0.00    -0.336 OA
ATOM      4  N   UNL     1      20.155   4.613  20.573  0.00  0.00    -0.190 NA
ATOM      5  N   UNL     1      20.569   6.844  20.865  0.00  0.00    -0.056 NA
ATOM     17  C   UNL     1      21.388   4.799  20.973  0.00  0.00    +0.245 A 
ATOM     20  C   UNL     1      19.692   5.896  20.522  0.00  0.00    +0.204 A 
BRANCH  17   7
ATOM      3  N   UNL     1      23.827   4.374  21.225  0.00  0.00    -0.294 NA
ATOM      7  C   UNL     1      22.475   3.780  21.240  0.00  0.00    +0.146 C 
ATOM      8  C   UNL     1      22.350   3.128  22.629  0.00  0.00    +0.030 C 
ATOM      9  C   UNL     1      23.699   3.354  23.297  0.00  0.00    +0.017 C 
ATOM     10  C   UNL     1      24.643   3.568  22.132  0.00  0.00    +0.085 C 
ATOM     18  C   UNL     1      24.405   4.453  19.890  0.00  0.00    +0.105 C 
ENDBRANCH  17   7
ENDBRANCH  21  20
BRANCH  19   1
ATOM      1  O   UNL     1      14.524   6.975  18.874  0.00  0.00    -0.473 OA
BRANCH   1  11
ATOM     11  C   UNL     1      13.640   7.573  19.815  0.00  0.00    +0.175 C 
ATOM     12  C   UNL     1      13.088   8.877  19.243  0.00  0.00    +0.044 C 
ATOM     13  C   UNL     1      12.522   6.591  20.163  0.00  0.00    +0.044 C 
ATOM     14  C   UNL     1      12.059   9.507  20.176  0.00  0.00    +0.004 C 
ATOM     15  C   UNL     1      11.492   7.222  21.096  0.00  0.00    +0.004 C 
ATOM     16  C   UNL     1      10.942   8.526  20.526  0.00  0.00    +0.000 C 
ENDBRANCH   1  11
ENDBRANCH  19   1
TORSDOF 4
ENDMDL
MODEL 3
REMARK VINA RESULT:      -6.8      1.632      2.595
REMARK  Name = 45783582
REMARK  5 active torsions:
REMARK  status: ('A' for Active; 'I' for Inactive)
REMARK    1  A    between atoms: O_1  and  C_11
REMARK    2  A    between atoms: O_1  and  C_19
REMARK    3  A    between atoms: N_3  and  C_18
REMARK    4  A    between atoms: C_7  and  C_17
REMARK    5  A    between atoms: C_20  and  C_21
REMARK                            x       y       z     vdW  Elec       q    Type
REMARK                         _______ _______ _______ _____ _____    ______ ____
ROOT
ATOM      6  N   UNL     1      20.418   4.776  20.272  0.00  0.00    -0.221 NA
ATOM     19  C   UNL     1      20.981   5.495  21.269  0.00  0.00    +0.215 A 
ATOM     21  C   UNL     1      18.440   6.145  20.516  0.00  0.00    +0.041 A 
ATOM     22  C   UNL     1      20.348   6.538  21.927  0.00  0.00    +0.068 A 
ATOM     23  C   UNL     1      19.054   6.862  21.537  0.00  0.00    +0.018 A 
ATOM     24  C   UNL     1      19.159   5.121  19.921  0.00  0.00    +0.126 A 
ENDROOT
BRANCH  21  20
ATOM      2  O   UNL     1      15.261   6.460  19.017  0.00  0.00    -0.336 OA
ATOM      4  N   UNL     1      16.354   7.398  20.733  0.00  0.00    -0.190 NA
ATOM      5  N   UNL     1      16.522   5.851  19.056  0.00  0.00    -0.056 NA
ATOM     17  C   UNL     1      15.245   7.358  20.038  0.00  0.00    +0.245 A 
ATOM     20  C   UNL     1      17.107   6.456  20.094  0.00  0.00    +0.204 A 
BRANCH  17   7
ATOM      3  N   UNL     1      13.162   8.215  18.979  0.00  0.00    -0.294 NA
ATOM      7  C   UNL     1      13.972   8.159  20.212  0.00  0.00    +0.146 C 
ATOM      8  C   UNL     1      13.030   7.554  21.270  0.00  0.00    +0.030 C 
ATOM      9  C   UNL     1      11.701   7.362  20.556  0.00  0.00    +0.017 C 
ATOM     10  C   UNL     1      11.769   8.344  19.404  0.00  0.00    +0.085 C 
ATOM     18  C   UNL     1      13.563   9.288  18.077  0.00  0.00    +0.105 C 
ENDBRANCH  17   7
ENDBRANCH  21  20
BRANCH  19   1
ATOM      1  O   UNL     1      22.257   5.156  21.634  0.00  0.00    -0.473 OA
BRANCH   1  11
ATOM     11  C   UNL     1      22.885   4.124  20.882  0.00  0.00    +0.175 C 
ATOM     12  C   UNL     1      24.196   4.643  20.293  0.00  0.00    +0.044 C 
ATOM     13  C   UNL     1      23.113   2.904  21.775  0.00  0.00    +0.044 C 
ATOM     14  C   UNL     1      24.955   3.544  19.558  0.00  0.00    +0.004 C 
ATOM     15  C   UNL     1      23.873   1.805  21.040  0.00  0.00    +0.004 C 
ATOM     16  C   UNL     1      25.181   2.325  20.449  0.00  0.00    +0.000 C 
ENDBRANCH   1  11
ENDBRANCH  19   1
TORSDOF 4
ENDMDL
MODEL 4
REMARK VINA RESULT:      -6.6      1.565      2.190
REMARK  Name = 45783582
REMARK  5 active torsions:
REMARK  status: ('A' for Active; 'I' for Inactive)
REMARK    1  A    between atoms: O_1  and  C_11
REMARK    2  A    between atoms: O_1  and  C_19
REMARK    3  A    between atoms: N_3  and  C_18
REMARK    4  A    between atoms: C_7  and  C_17
REMARK    5  A    between atoms: C_20  and  C_21
REMARK                            x       y       z     vdW  Elec       q    Type
REMARK                         _______ _______ _______ _____ _____    ______ ____
ROOT
ATOM      6  N   UNL     1      20.318   6.702  21.814  0.00  0.00    -0.221 NA
ATOM     19  C   UNL     1      20.700   5.710  20.979  0.00  0.00    +0.215 A 
ATOM     21  C   UNL     1      18.118   6.577  20.819  0.00  0.00    +0.041 A 
ATOM     22  C   UNL     1      19.863   5.109  20.052  0.00  0.00    +0.068 A 
ATOM     23  C   UNL     1      18.549   5.557  19.977  0.00  0.00    +0.018 A 
ATOM     24  C   UNL     1      19.033   7.111  21.711  0.00  0.00    +0.126 A 
ENDROOT
BRANCH  21  20
ATOM      2  O   UNL     1      15.000   8.201  21.122  0.00  0.00    -0.336 OA
ATOM      4  N   UNL     1      15.835   6.483  19.953  0.00  0.00    -0.190 NA
ATOM      5  N   UNL     1      16.346   8.094  21.495  0.00  0.00    -0.056 NA
ATOM     17  C   UNL     1      14.782   7.216  20.212  0.00  0.00    +0.245 A 
ATOM     20  C   UNL     1      16.770   7.059  20.763  0.00  0.00    +0.204 A 
BRANCH  17   7
ATOM      3  N   UNL     1      12.369   7.742  20.523  0.00  0.00    -0.294 NA
ATOM      7  C   UNL     1      13.380   7.118  19.646  0.00  0.00    +0.146 C 
ATOM      8  C   UNL     1      13.232   7.847  18.298  0.00  0.00    +0.030 C 
ATOM      9  C   UNL     1      12.076   8.816  18.495  0.00  0.00    +0.017 C 
ATOM     10  C   UNL     1      11.297   8.214  19.647  0.00  0.00    +0.085 C 
ATOM     18  C   UNL     1      11.876   6.846  21.560  0.00  0.00    +0.105 C 
ENDBRANCH  17   7
ENDBRANCH  21  20
BRANCH  19   1
ATOM      1  O   UNL     1      22.000   5.286  21.073  0.00  0.00    -0.473 OA
BRANCH   1  11
ATOM     11  C   UNL     1      22.207   3.937  21.475  0.00  0.00    +0.175 C 
ATOM     12  C   UNL     1      23.436   3.373  20.765  0.00  0.00    +0.044 C 
ATOM     13  C   UNL     1      22.354   3.872  22.995  0.00  0.00    +0.044 C 
ATOM     14  C   UNL     1      23.757   1.959  21.237  0.00  0.00    +0.004 C 
ATOM     15  C   UNL     1      22.675   2.457  23.467  0.00  0.00    +0.004 C 
ATOM     16  C   UNL     1      23.902   1.892  22.756  0.00  0.00    +0.000 C 
ENDBRANCH   1  11
ENDBRANCH  19   1
TORSDOF 4
ENDMDL
MODEL 5
REMARK VINA RESULT:      -6.5      2.397      9.660
REMARK  Name = 45783582
REMARK  5 active torsions:
REMARK  status: ('A' for Active; 'I' for Inactive)
REMARK    1  A    between atoms: O_1  and  C_11
REMARK    2  A    between atoms: O_1  and  C_19
REMARK    3  A    between atoms: N_3  and  C_18
REMARK    4  A    between atoms: C_7  and  C_17
REMARK    5  A    between atoms: C_20  and  C_21
REMARK                            x       y       z     vdW  Elec       q    Type
REMARK                         _______ _______ _______ _____ _____    ______ ____
ROOT
ATOM      6  N   UNL     1      18.124   8.046  21.506  0.00  0.00    -0.221 NA
ATOM     19  C   UNL     1      17.329   7.568  20.522  0.00  0.00    +0.215 A 
ATOM     21  C   UNL     1      19.601   6.174  21.107  0.00  0.00    +0.041 A 
ATOM     22  C   UNL     1      17.599   6.418  19.796  0.00  0.00    +0.068 A 
ATOM     23  C   UNL     1      18.759   5.714  20.101  0.00  0.00    +0.018 A 
ATOM     24  C   UNL     1      19.241   7.334  21.774  0.00  0.00    +0.126 A 
ENDROOT
BRANCH  21  20
ATOM      2  O   UNL     1      22.398   4.580  22.552  0.00  0.00    -0.336 OA
ATOM      4  N   UNL     1      21.600   4.912  20.486  0.00  0.00    -0.190 NA
ATOM      5  N   UNL     1      21.213   5.312  22.706  0.00  0.00    -0.056 NA
ATOM     17  C   UNL     1      22.552   4.388  21.216  0.00  0.00    +0.245 A 
ATOM     20  C   UNL     1      20.801   5.468  21.444  0.00  0.00    +0.204 A 
BRANCH  17   7
ATOM      3  N   UNL     1      24.921   3.798  21.696  0.00  0.00    -0.294 NA
ATOM      7  C   UNL     1      23.777   3.611  20.782  0.00  0.00    +0.146 C 
ATOM      8  C   UNL     1      23.538   2.090  20.761  0.00  0.00    +0.030 C 
ATOM      9  C   UNL     1      24.632   1.503  21.641  0.00  0.00    +0.017 C 
ATOM     10  C   UNL     1      25.710   2.568  21.628  0.00  0.00    +0.085 C 
ATOM     18  C   UNL     1      25.717   4.978  21.386  0.00  0.00    +0.105 C 
ENDBRANCH  17   7
ENDBRANCH  21  20
BRANCH  19   1
ATOM      1  O   UNL     1      16.194   8.281  20.241  0.00  0.00    -0.473 OA
BRANCH   1  11
ATOM     11  C   UNL     1      14.969   7.556  20.228  0.00  0.00    +0.175 C 
ATOM     12  C   UNL     1      14.162   7.891  21.481  0.00  0.00    +0.044 C 
ATOM     13  C   UNL     1      14.192   7.884  18.953  0.00  0.00    +0.044 C 
ATOM     14  C   UNL     1      12.796   7.213  21.467  0.00  0.00    +0.004 C 
ATOM     15  C   UNL     1      12.826   7.205  18.939  0.00  0.00    +0.004 C 
ATOM     16  C   UNL     1      12.021   7.538  20.193  0.00  0.00    +0.000 C 
ENDBRANCH   1  11
ENDBRANCH  19   1
TORSDOF 4
ENDMDL
MODEL 6
REMARK VINA RESULT:      -6.5     28.040     31.684
REMARK  Name = 45783582
REMARK  5 active torsions:
REMARK  status: ('A' for Active; 'I' for Inactive)
REMARK    1  A    between atoms: O_1  and  C_11
REMARK    2  A    between atoms: O_1  and  C_19
REMARK    3  A    between atoms: N_3  and  C_18
REMARK    4  A    between atoms: C_7  and  C_17
REMARK    5  A    between atoms: C_20  and  C_21
REMARK                            x       y       z     vdW  Elec       q    Type
REMARK                         _______ _______ _______ _____ _____    ______ ____
ROOT
ATOM      6  N   UNL     1     -12.279   5.736  21.696  0.00  0.00    -0.221 NA
ATOM     19  C   UNL     1     -12.384   6.821  20.896  0.00  0.00    +0.215 A 
ATOM     21  C   UNL     1     -14.695   5.638  21.736  0.00  0.00    +0.041 A 
ATOM     22  C   UNL     1     -13.588   7.365  20.479  0.00  0.00    +0.068 A 
ATOM     23  C   UNL     1     -14.761   6.756  20.912  0.00  0.00    +0.018 A 
ATOM     24  C   UNL     1     -13.441   5.171  22.096  0.00  0.00    +0.126 A 
ENDROOT
BRANCH  21  20
ATOM      2  O   UNL     1     -17.940   4.495  22.520  0.00  0.00    -0.336 OA
ATOM      4  N   UNL     1     -15.839   3.911  23.033  0.00  0.00    -0.190 NA
ATOM      5  N   UNL     1     -17.110   5.401  21.847  0.00  0.00    -0.056 NA
ATOM     17  C   UNL     1     -17.113   3.654  23.194  0.00  0.00    +0.245 A 
ATOM     20  C   UNL     1     -15.887   4.991  22.198  0.00  0.00    +0.204 A 
BRANCH  17   7
ATOM      3  N   UNL     1     -17.518   1.215  23.476  0.00  0.00    -0.294 NA
ATOM      7  C   UNL     1     -17.776   2.566  24.012  0.00  0.00    +0.146 C 
ATOM      8  C   UNL     1     -17.262   2.516  25.462  0.00  0.00    +0.030 C 
ATOM      9  C   UNL     1     -16.792   1.084  25.669  0.00  0.00    +0.017 C 
ATOM     10  C   UNL     1     -17.555   0.302  24.619  0.00  0.00    +0.085 C 
ATOM     18  C   UNL     1     -18.454   0.823  22.430  0.00  0.00    +0.105 C 
ENDBRANCH  17   7
ENDBRANCH  21  20
BRANCH  19   1
ATOM      1  O   UNL     1     -11.213   7.402  20.484  0.00  0.00    -0.473 OA
BRANCH   1  11
ATOM     11  C   UNL     1     -11.293   8.282  19.369  0.00  0.00    +0.175 C 
ATOM     12  C   UNL     1     -10.332   9.452  19.569  0.00  0.00    +0.044 C 
ATOM     13  C   UNL     1     -10.985   7.513  18.085  0.00  0.00    +0.044 C 
ATOM     14  C   UNL     1     -10.309  10.374  18.355  0.00  0.00    +0.004 C 
ATOM     15  C   UNL     1     -10.961   8.435  16.870  0.00  0.00    +0.004 C 
ATOM     16  C   UNL     1     -10.003   9.606  17.071  0.00  0.00    +0.000 C 
ENDBRANCH   1  11
ENDBRANCH  19   1
TORSDOF 4
ENDMDL
MODEL 7
REMARK VINA RESULT:      -6.3     26.931     30.091
REMARK  Name = 45783582
REMARK  5 active torsions:
REMARK  status: ('A' for Active; 'I' for Inactive)
REMARK    1  A    between atoms: O_1  and  C_11
REMARK    2  A    between atoms: O_1  and  C_19
REMARK    3  A    between atoms: N_3  and  C_18
REMARK    4  A    between atoms: C_7  and  C_17
REMARK    5  A    between atoms: C_20  and  C_21
REMARK                            x       y       z     vdW  Elec       q    Type
REMARK                         _______ _______ _______ _____ _____    ______ ____
ROOT
ATOM      6  N   UNL     1      -6.865 -10.252  17.663  0.00  0.00    -0.221 NA
ATOM     19  C   UNL     1      -6.593 -10.779  18.878  0.00  0.00    +0.215 A 
ATOM     21  C   UNL     1      -4.629 -10.875  16.986  0.00  0.00    +0.041 A 
ATOM     22  C   UNL     1      -5.382 -11.362  19.218  0.00  0.00    +0.068 A 
ATOM     23  C   UNL     1      -4.388 -11.407  18.248  0.00  0.00    +0.018 A 
ATOM     24  C   UNL     1      -5.873 -10.314  16.746  0.00  0.00    +0.126 A 
ENDROOT
BRANCH  21  20
ATOM      2  O   UNL     1      -1.742 -10.788  14.959  0.00  0.00    -0.336 OA
ATOM      4  N   UNL     1      -3.923 -11.204  14.669  0.00  0.00    -0.190 NA
ATOM      5  N   UNL     1      -2.336 -10.644  16.219  0.00  0.00    -0.056 NA
ATOM     17  C   UNL     1      -2.746 -11.117  14.105  0.00  0.00    +0.245 A 
ATOM     20  C   UNL     1      -3.622 -10.905  15.967  0.00  0.00    +0.204 A 
BRANCH  17   7
ATOM      3  N   UNL     1      -3.434 -11.961  11.867  0.00  0.00    -0.294 NA
ATOM      7  C   UNL     1      -2.357 -11.332  12.657  0.00  0.00    +0.146 C 
ATOM      8  C   UNL     1      -2.052 -10.013  11.922  0.00  0.00    +0.030 C 
ATOM      9  C   UNL     1      -2.960 -10.019  10.702  0.00  0.00    +0.017 C 
ATOM     10  C   UNL     1      -3.269 -11.487  10.492  0.00  0.00    +0.085 C 
ATOM     18  C   UNL     1      -3.433 -13.415  11.950  0.00  0.00    +0.105 C 
ENDBRANCH  17   7
ENDBRANCH  21  20
BRANCH  19   1
ATOM      1  O   UNL     1      -7.590 -10.722  19.816  0.00  0.00    -0.473 OA
BRANCH   1  11
ATOM     11  C   UNL     1      -8.779 -11.450  19.530  0.00  0.00    +0.175 C 
ATOM     12  C   UNL     1      -8.661 -12.866  20.091  0.00  0.00    +0.044 C 
ATOM     13  C   UNL     1      -9.984 -10.712  20.112  0.00  0.00    +0.044 C 
ATOM     14  C   UNL     1      -9.950 -13.656  19.895  0.00  0.00    +0.004 C 
ATOM     15  C   UNL     1     -11.274 -11.503  19.917  0.00  0.00    +0.004 C 
ATOM     16  C   UNL     1     -11.155 -12.919  20.475  0.00  0.00    +0.000 C 
ENDBRANCH   1  11
ENDBRANCH  19   1
TORSDOF 4
ENDMDL
MODEL 8
REMARK VINA RESULT:      -6.2      1.876      8.759
REMARK  Name = 45783582
REMARK  5 active torsions:
REMARK  status: ('A' for Active; 'I' for Inactive)
REMARK    1  A    between atoms: O_1  and  C_11
REMARK    2  A    between atoms: O_1  and  C_19
REMARK    3  A    between atoms: N_3  and  C_18
REMARK    4  A    between atoms: C_7  and  C_17
REMARK    5  A    between atoms: C_20  and  C_21
REMARK                            x       y       z     vdW  Elec       q    Type
REMARK                         _______ _______ _______ _____ _____    ______ ____
ROOT
ATOM      6  N   UNL     1      15.781   6.213  18.484  0.00  0.00    -0.221 NA
ATOM     19  C   UNL     1      15.186   7.342  18.931  0.00  0.00    +0.215 A 
ATOM     21  C   UNL     1      17.565   6.628  20.062  0.00  0.00    +0.041 A 
ATOM     22  C   UNL     1      15.710   8.153  19.925  0.00  0.00    +0.068 A 
ATOM     23  C   UNL     1      16.922   7.782  20.496  0.00  0.00    +0.018 A 
ATOM     24  C   UNL     1      16.958   5.885  19.062  0.00  0.00    +0.126 A 
ENDROOT
BRANCH  21  20
ATOM      2  O   UNL     1      20.616   5.143  21.029  0.00  0.00    -0.336 OA
ATOM      4  N   UNL     1      19.397   6.915  21.654  0.00  0.00    -0.190 NA
ATOM      5  N   UNL     1      19.485   5.148  20.202  0.00  0.00    -0.056 NA
ATOM     17  C   UNL     1      20.485   6.215  21.853  0.00  0.00    +0.245 A 
ATOM     20  C   UNL     1      18.816   6.222  20.631  0.00  0.00    +0.204 A 
BRANCH  17   7
ATOM      3  N   UNL     1      21.170   6.167  24.245  0.00  0.00    -0.294 NA
ATOM      7  C   UNL     1      21.597   6.434  22.857  0.00  0.00    +0.146 C 
ATOM      8  C   UNL     1      22.796   5.495  22.630  0.00  0.00    +0.030 C 
ATOM      9  C   UNL     1      23.006   4.788  23.962  0.00  0.00    +0.017 C 
ATOM     10  C   UNL     1      22.362   5.722  24.967  0.00  0.00    +0.085 C 
ATOM     18  C   UNL     1      20.540   7.316  24.883  0.00  0.00    +0.105 C 
ENDBRANCH  17   7
ENDBRANCH  21  20
BRANCH  19   1
ATOM      1  O   UNL     1      13.993   7.684  18.353  0.00  0.00    -0.473 OA
BRANCH   1  11
ATOM     11  C   UNL     1      12.815   7.414  19.105  0.00  0.00    +0.175 C 
ATOM     12  C   UNL     1      13.190   6.709  20.407  0.00  0.00    +0.044 C 
ATOM     13  C   UNL     1      12.063   8.719  19.366  0.00  0.00    +0.044 C 
ATOM     14  C   UNL     1      11.970   6.485  21.295  0.00  0.00    +0.004 C 
ATOM     15  C   UNL     1      10.843   8.494  20.254  0.00  0.00    +0.004 C 
ATOM     16  C   UNL     1      11.217   7.788  21.554  0.00  0.00    +0.000 C 
ENDBRANCH   1  11
ENDBRANCH  19   1
TORSDOF 4
ENDMDL
MODEL 9
REMARK VINA RESULT:      -6.2     18.652     20.683
REMARK  Name = 45783582
REMARK  5 active torsions:
REMARK  status: ('A' for Active; 'I' for Inactive)
REMARK    1  A    between atoms: O_1  and  C_11
REMARK    2  A    between atoms: O_1  and  C_19
REMARK    3  A    between atoms: N_3  and  C_18
REMARK    4  A    between atoms: C_7  and  C_17
REMARK    5  A    between atoms: C_20  and  C_21
REMARK                            x       y       z     vdW  Elec       q    Type
REMARK                         _______ _______ _______ _____ _____    ______ ____
ROOT
ATOM      6  N   UNL     1      10.567   3.865   0.145  0.00  0.00    -0.221 NA
ATOM     19  C   UNL     1      11.853   3.787  -0.267  0.00  0.00    +0.215 A 
ATOM     21  C   UNL     1      11.378   4.817   2.214  0.00  0.00    +0.041 A 
ATOM     22  C   UNL     1      12.937   4.198   0.491  0.00  0.00    +0.068 A 
ATOM     23  C   UNL     1      12.686   4.721   1.754  0.00  0.00    +0.018 A 
ATOM     24  C   UNL     1      10.363   4.379   1.379  0.00  0.00    +0.126 A 
ENDROOT
BRANCH  21  20
ATOM      2  O   UNL     1      11.252   6.415   5.358  0.00  0.00    -0.336 OA
ATOM      4  N   UNL     1       9.923   5.065   4.163  0.00  0.00    -0.190 NA
ATOM      5  N   UNL     1      11.937   6.152   4.165  0.00  0.00    -0.056 NA
ATOM     17  C   UNL     1      10.077   5.738   5.275  0.00  0.00    +0.245 A 
ATOM     20  C   UNL     1      11.090   5.351   3.513  0.00  0.00    +0.204 A 
BRANCH  17   7
ATOM      3  N   UNL     1       9.826   5.643   7.749  0.00  0.00    -0.294 NA
ATOM      7  C   UNL     1       9.142   5.862   6.460  0.00  0.00    +0.146 C 
ATOM      8  C   UNL     1       8.519   7.265   6.581  0.00  0.00    +0.030 C 
ATOM      9  C   UNL     1       8.854   7.728   7.991  0.00  0.00    +0.017 C 
ATOM     10  C   UNL     1       9.101   6.436   8.742  0.00  0.00    +0.085 C 
ATOM     18  C   UNL     1       9.910   4.237   8.125  0.00  0.00    +0.105 C 
ENDBRANCH  17   7
ENDBRANCH  21  20
BRANCH  19   1
ATOM      1  O   UNL     1      12.072   3.268  -1.516  0.00  0.00    -0.473 OA
BRANCH   1  11
ATOM     11  C   UNL     1      11.015   3.401  -2.460  0.00  0.00    +0.175 C 
ATOM     12  C   UNL     1      11.517   4.158  -3.688  0.00  0.00    +0.044 C 
ATOM     13  C   UNL     1      10.481   2.017  -2.829  0.00  0.00    +0.044 C 
ATOM     14  C   UNL     1      10.447   4.241  -4.772  0.00  0.00    +0.004 C 
ATOM     15  C   UNL     1       9.411   2.101  -3.914  0.00  0.00    +0.004 C 
ATOM     16  C   UNL     1       9.911   2.859  -5.140  0.00  0.00    +0.000 C 
ENDBRANCH   1  11
ENDBRANCH  19   1
TORSDOF 4
ENDMDL
MODEL 10
REMARK VINA RESULT:      -6.2     13.760     14.679
REMARK  Name = 45783582
REMARK  5 active torsions:
REMARK  status: ('A' for Active; 'I' for Inactive)
REMARK    1  A    between atoms: O_1  and  C_11
REMARK    2  A    between atoms: O_1  and  C_19
REMARK    3  A    between atoms: N_3  and  C_18
REMARK    4  A    between atoms: C_7  and  C_17
REMARK    5  A    between atoms: C_20  and  C_21
REMARK                            x       y       z     vdW  Elec       q    Type
REMARK                         _______ _______ _______ _____ _____    ______ ____
ROOT
ATOM      6  N   UNL     1      15.959   8.149   6.057  0.00  0.00    -0.221 NA
ATOM     19  C   UNL     1      16.290   9.460   6.019  0.00  0.00    +0.215 A 
ATOM     21  C   UNL     1      13.715   8.821   6.655  0.00  0.00    +0.041 A 
ATOM     22  C   UNL     1      15.404  10.492   6.282  0.00  0.00    +0.068 A 
ATOM     23  C   UNL     1      14.094  10.158   6.606  0.00  0.00    +0.018 A 
ATOM     24  C   UNL     1      14.677   7.863   6.375  0.00  0.00    +0.126 A 
ENDROOT
BRANCH  21  20
ATOM      2  O   UNL     1      10.314   8.539   7.552  0.00  0.00    -0.336 OA
ATOM      4  N   UNL     1      11.972   7.141   6.994  0.00  0.00    -0.190 NA
ATOM      5  N   UNL     1      11.435   9.343   7.312  0.00  0.00    -0.056 NA
ATOM     17  C   UNL     1      10.716   7.258   7.343  0.00  0.00    +0.245 A 
ATOM     20  C   UNL     1      12.372   8.446   6.988  0.00  0.00    +0.204 A 
BRANCH  17   7
ATOM      3  N   UNL     1      10.117   4.859   7.056  0.00  0.00    -0.294 NA
ATOM      7  C   UNL     1       9.670   6.181   7.540  0.00  0.00    +0.146 C 
ATOM      8  C   UNL     1       9.321   5.956   9.023  0.00  0.00    +0.030 C 
ATOM      9  C   UNL     1       9.544   4.470   9.263  0.00  0.00    +0.017 C 
ATOM     10  C   UNL     1       9.432   3.863   7.879  0.00  0.00    +0.085 C 
ATOM     18  C   UNL     1       9.874   4.657   5.634  0.00  0.00    +0.105 C 
ENDBRANCH  17   7
ENDBRANCH  21  20
BRANCH  19   1
ATOM      1  O   UNL     1      17.587   9.762   5.697  0.00  0.00    -0.473 OA
BRANCH   1  11
ATOM     11  C   UNL     1      18.539   8.711   5.817  0.00  0.00    +0.175 C 
ATOM     12  C   UNL     1      19.137   8.402   4.445  0.00  0.00    +0.044 C 
ATOM     13  C   UNL     1      19.616   9.108   6.826  0.00  0.00    +0.044 C 
ATOM     14  C   UNL     1      20.234   7.347   4.537  0.00  0.00    +0.004 C 
ATOM     15  C   UNL     1      20.715   8.053   6.917  0.00  0.00    +0.004 C 
ATOM     16  C   UNL     1      21.310   7.742   5.546  0.00  0.00    +0.000 C 
ENDBRANCH   1  11
ENDBRANCH  19   1
TORSDOF 4
ENDMDL
