REMARK  Name = 75536551
REMARK  7 active torsions:
REMARK  status: ('A' for Active; 'I' for Inactive)
REMARK    1  A    between atoms: O_3  and  C_11
REMARK    2  A    between atoms: N_5  and  C_14
REMARK    3  A    between atoms: N_6  and  C_12
REMARK    4  A    between atoms: N_6  and  C_16
REMARK    5  A    between atoms: C_7  and  C_15
REMARK    6  A    between atoms: C_10  and  C_14
REMARK    7  A    between atoms: C_16  and  C_17
REMARK                            x       y       z     vdW  Elec       q    Type
REMARK                         _______ _______ _______ _____ _____    ______ ____
ROOT
ATOM      2  O   UNL     1       1.089   1.032  -0.376  0.00  0.00    -0.371 OA
ATOM     10  C   UNL     1       1.383  -0.356  -0.145  0.00  0.00    +0.165 C 
ATOM     11  C   UNL     1       0.056  -1.093  -0.267  0.00  0.00    +0.164 C 
ATOM     12  C   UNL     1      -0.902  -0.067   0.309  0.00  0.00    +0.111 C 
ATOM     13  C   UNL     1      -0.331   1.226  -0.250  0.00  0.00    +0.181 C 
ENDROOT
BRANCH  11   3
ATOM      3  O   UNL     1       0.058  -2.306   0.460  0.00  0.00    -0.388 OA
ATOM     23  H   UNL     1       0.268  -2.107   1.388  0.00  0.00    +0.210 HD
ENDBRANCH  11   3
BRANCH  12   6
ATOM      6  N   UNL     1      -2.288  -0.285  -0.071  0.00  0.00    -0.304 NA
ATOM     22  H   UNL     1      -2.510  -1.274   0.039  0.00  0.00    +0.123 HD
BRANCH   6  16
ATOM     16  C   UNL     1      -3.192   0.502   0.761  0.00  0.00    +0.124 C 
BRANCH  16  17
ATOM      1  S   UNL     1      -5.569   1.651  -0.111  0.00  0.00    -0.100 S 
ATOM     17  C   UNL     1      -4.631   0.301   0.369  0.00  0.00    +0.004 A 
ATOM     18  C   UNL     1      -5.356  -0.870   0.337  0.00  0.00    +0.012 A 
ATOM     19  C   UNL     1      -6.699  -0.657  -0.089  0.00  0.00    +0.008 A 
ATOM     20  C   UNL     1      -6.950   0.669  -0.365  0.00  0.00    +0.045 A 
ENDBRANCH  16  17
ENDBRANCH   6  16
ENDBRANCH  12   6
BRANCH  10  14
ATOM     14  C   UNL     1       2.427  -0.831  -1.139  0.00  0.00    +0.138 C 
BRANCH  14   5
ATOM      4  O   UNL     1       4.684  -1.502   0.569  0.00  0.00    -0.276 OA
ATOM      5  N   UNL     1       3.657  -0.107  -0.990  0.00  0.00    -0.313 N 
ATOM     15  C   UNL     1       4.683  -0.506  -0.146  0.00  0.00    +0.216 C 
ATOM     21  H   UNL     1       3.773   0.741  -1.537  0.00  0.00    +0.149 HD
BRANCH  15   7
ATOM      7  C   UNL     1       5.872   0.396  -0.151  0.00  0.00    +0.075 C 
ATOM      8  C   UNL     1       5.668   1.845   0.146  0.00  0.00    +0.013 C 
ATOM      9  C   UNL     1       6.344   0.958   1.149  0.00  0.00    +0.013 C 
ENDBRANCH  15   7
ENDBRANCH  14   5
ENDBRANCH  10  14
TORSDOF 7
