MODEL 1
REMARK VINA RESULT:      -6.8      0.000      0.000
REMARK  Name = 25389387
REMARK  8 active torsions:
REMARK  status: ('A' for Active; 'I' for Inactive)
REMARK    1  A    between atoms: S_1  and  N_7
REMARK    2  A    between atoms: S_1  and  C_24
REMARK    3  A    between atoms: N_6  and  C_15
REMARK    4  A    between atoms: N_7  and  C_16
REMARK    5  A    between atoms: C_9  and  C_15
REMARK    6  A    between atoms: C_10  and  C_16
REMARK    7  A    between atoms: C_19  and  C_22
REMARK    8  A    between atoms: C_22  and  C_23
REMARK                            x       y       z     vdW  Elec       q    Type
REMARK                         _______ _______ _______ _____ _____    ______ ____
ROOT
ATOM      5  N   UNL     1      -4.830 -12.720  17.510  0.00  0.00    -0.298 NA
ATOM      8  C   UNL     1      -5.993 -10.394  17.550  0.00  0.00    -0.003 C 
ATOM      9  C   UNL     1      -7.020 -11.519  17.295  0.00  0.00    +0.020 C 
ATOM     10  C   UNL     1      -4.139 -11.789  16.577  0.00  0.00    +0.072 C 
ATOM     11  C   UNL     1      -4.897 -10.447  16.468  0.00  0.00    +0.024 C 
ATOM     12  C   UNL     1      -6.259 -12.855  17.137  0.00  0.00    +0.089 C 
ATOM     13  C   UNL     1      -5.316 -10.702  18.900  0.00  0.00    +0.019 C 
ATOM     14  C   UNL     1      -4.760 -12.137  18.872  0.00  0.00    +0.085 C 
ENDROOT
BRANCH   9  15
ATOM     15  C   UNL     1      -7.930 -11.245  16.099  0.00  0.00    +0.089 C 
BRANCH  15   6
ATOM      6  N   UNL     1      -8.542  -9.926  16.250  0.00  0.00    -0.302 NA
ATOM     17  C   UNL     1      -9.453  -9.910  17.401  0.00  0.00    +0.084 C 
ATOM     18  C   UNL     1      -9.240  -9.538  15.016  0.00  0.00    +0.084 C 
ATOM     19  C   UNL     1     -10.782  -8.037  16.341  0.00  0.00    -0.004 C 
ATOM     20  C   UNL     1     -10.061  -8.521  17.605  0.00  0.00    +0.019 C 
ATOM     21  C   UNL     1      -9.839  -8.137  15.138  0.00  0.00    +0.019 C 
BRANCH  19  22
ATOM     22  C   UNL     1     -11.299  -6.612  16.518  0.00  0.00    +0.038 C 
BRANCH  22  23
ATOM     23  C   UNL     1     -12.474  -6.332  15.621  0.00  0.00    -0.047 A 
ATOM     25  C   UNL     1     -12.319  -5.508  14.505  0.00  0.00    +0.003 A 
ATOM     26  C   UNL     1     -13.717  -6.896  15.903  0.00  0.00    +0.003 A 
ATOM     28  C   UNL     1     -13.408  -5.249  13.673  0.00  0.00    +0.000 A 
ATOM     29  C   UNL     1     -14.806  -6.636  15.071  0.00  0.00    +0.000 A 
ATOM     30  C   UNL     1     -14.651  -5.813  13.957  0.00  0.00    +0.000 A 
ENDBRANCH  22  23
ENDBRANCH  19  22
ENDBRANCH  15   6
ENDBRANCH   9  15
BRANCH  10  16
ATOM     16  C   UNL     1      -3.894 -12.415  15.202  0.00  0.00    +0.124 C 
BRANCH  16   7
ATOM      7  N   UNL     1      -3.919 -11.359  14.178  0.00  0.00    -0.188 NA
ATOM     33  H   UNL     1      -4.807 -11.307  13.661  0.00  0.00    +0.148 HD
BRANCH   7   1
ATOM      1  S   UNL     1      -2.521 -11.010  13.270  0.00  0.00    +0.065 S 
ATOM      3  O   UNL     1      -1.926 -12.252  12.813  0.00  0.00    -0.153 OA
ATOM      4  O   UNL     1      -1.718 -10.039  13.988  0.00  0.00    -0.153 OA
BRANCH   1  24
ATOM      2  S   UNL     1      -4.904 -10.010  11.889  0.00  0.00    -0.077 S 
ATOM     24  C   UNL     1      -3.201 -10.182  11.865  0.00  0.00    +0.142 A 
ATOM     27  C   UNL     1      -2.642  -9.633  10.733  0.00  0.00    +0.036 A 
ATOM     31  C   UNL     1      -3.626  -9.064   9.872  0.00  0.00    +0.010 A 
ATOM     32  C   UNL     1      -4.899  -9.200  10.381  0.00  0.00    +0.047 A 
ENDBRANCH   1  24
ENDBRANCH   7   1
ENDBRANCH  16   7
ENDBRANCH  10  16
TORSDOF 8
ENDMDL
MODEL 2
REMARK VINA RESULT:      -6.8     25.875     29.919
REMARK  Name = 25389387
REMARK  8 active torsions:
REMARK  status: ('A' for Active; 'I' for Inactive)
REMARK    1  A    between atoms: S_1  and  N_7
REMARK    2  A    between atoms: S_1  and  C_24
REMARK    3  A    between atoms: N_6  and  C_15
REMARK    4  A    between atoms: N_7  and  C_16
REMARK    5  A    between atoms: C_9  and  C_15
REMARK    6  A    between atoms: C_10  and  C_16
REMARK    7  A    between atoms: C_19  and  C_22
REMARK    8  A    between atoms: C_22  and  C_23
REMARK                            x       y       z     vdW  Elec       q    Type
REMARK                         _______ _______ _______ _____ _____    ______ ____
ROOT
ATOM      5  N   UNL     1      10.321   7.516   3.613  0.00  0.00    -0.298 NA
ATOM      8  C   UNL     1       9.930   6.551   5.996  0.00  0.00    -0.003 C 
ATOM      9  C   UNL     1      10.684   7.898   6.064  0.00  0.00    +0.020 C 
ATOM     10  C   UNL     1      10.808   6.112   3.680  0.00  0.00    +0.072 C 
ATOM     11  C   UNL     1      10.726   5.564   5.122  0.00  0.00    +0.024 C 
ATOM     12  C   UNL     1      11.015   8.350   4.624  0.00  0.00    +0.089 C 
ATOM     13  C   UNL     1       8.593   6.821   5.278  0.00  0.00    +0.019 C 
ATOM     14  C   UNL     1       8.873   7.513   3.931  0.00  0.00    +0.085 C 
ENDROOT
BRANCH   9  15
ATOM     15  C   UNL     1      11.934   7.846   6.940  0.00  0.00    +0.089 C 
BRANCH  15   6
ATOM      6  N   UNL     1      13.098   8.227   6.142  0.00  0.00    -0.302 NA
ATOM     17  C   UNL     1      14.074   7.131   6.098  0.00  0.00    +0.084 C 
ATOM     18  C   UNL     1      13.705   9.456   6.672  0.00  0.00    +0.084 C 
ATOM     19  C   UNL     1      15.942   8.790   5.701  0.00  0.00    -0.004 C 
ATOM     20  C   UNL     1      15.276   7.495   5.224  0.00  0.00    +0.019 C 
ATOM     21  C   UNL     1      14.892   9.900   5.815  0.00  0.00    +0.019 C 
BRANCH  19  22
ATOM     22  C   UNL     1      17.075   9.200   4.766  0.00  0.00    +0.038 C 
BRANCH  22  23
ATOM     23  C   UNL     1      18.401   8.657   5.227  0.00  0.00    -0.047 A 
ATOM     25  C   UNL     1      18.855   8.929   6.518  0.00  0.00    +0.003 A 
ATOM     26  C   UNL     1      19.175   7.882   4.365  0.00  0.00    +0.003 A 
ATOM     28  C   UNL     1      20.083   8.425   6.946  0.00  0.00    +0.000 A 
ATOM     29  C   UNL     1      20.404   7.379   4.792  0.00  0.00    +0.000 A 
ATOM     30  C   UNL     1      20.857   7.651   6.083  0.00  0.00    +0.000 A 
ENDBRANCH  22  23
ENDBRANCH  19  22
ENDBRANCH  15   6
ENDBRANCH   9  15
BRANCH  10  16
ATOM     16  C   UNL     1      12.212   5.952   3.092  0.00  0.00    +0.124 C 
BRANCH  16   7
ATOM      7  N   UNL     1      12.335   4.615   2.490  0.00  0.00    -0.188 NA
ATOM     33  H   UNL     1      12.117   3.848   3.139  0.00  0.00    +0.148 HD
BRANCH   7   1
ATOM      1  S   UNL     1      13.572   4.292   1.364  0.00  0.00    +0.065 S 
ATOM      3  O   UNL     1      14.290   3.099   1.772  0.00  0.00    -0.153 OA
ATOM      4  O   UNL     1      14.294   5.519   1.087  0.00  0.00    -0.153 OA
BRANCH   1  24
ATOM      2  S   UNL     1      11.331   4.952  -0.406  0.00  0.00    -0.077 S 
ATOM     24  C   UNL     1      12.643   3.899  -0.088  0.00  0.00    +0.142 A 
ATOM     27  C   UNL     1      12.753   2.908  -1.037  0.00  0.00    +0.036 A 
ATOM     31  C   UNL     1      11.745   3.013  -2.040  0.00  0.00    +0.010 A 
ATOM     32  C   UNL     1      10.905   4.082  -1.818  0.00  0.00    +0.047 A 
ENDBRANCH   1  24
ENDBRANCH   7   1
ENDBRANCH  16   7
ENDBRANCH  10  16
TORSDOF 8
ENDMDL
MODEL 3
REMARK VINA RESULT:      -6.7     25.249     29.647
REMARK  Name = 25389387
REMARK  8 active torsions:
REMARK  status: ('A' for Active; 'I' for Inactive)
REMARK    1  A    between atoms: S_1  and  N_7
REMARK    2  A    between atoms: S_1  and  C_24
REMARK    3  A    between atoms: N_6  and  C_15
REMARK    4  A    between atoms: N_7  and  C_16
REMARK    5  A    between atoms: C_9  and  C_15
REMARK    6  A    between atoms: C_10  and  C_16
REMARK    7  A    between atoms: C_19  and  C_22
REMARK    8  A    between atoms: C_22  and  C_23
REMARK                            x       y       z     vdW  Elec       q    Type
REMARK                         _______ _______ _______ _____ _____    ______ ____
ROOT
ATOM      5  N   UNL     1       9.084   8.418   6.339  0.00  0.00    -0.298 NA
ATOM      8  C   UNL     1      10.106   6.082   6.850  0.00  0.00    -0.003 C 
ATOM      9  C   UNL     1      11.212   7.102   6.503  0.00  0.00    +0.020 C 
ATOM     10  C   UNL     1       8.412   7.376   5.515  0.00  0.00    +0.072 C 
ATOM     11  C   UNL     1       9.099   6.003   5.687  0.00  0.00    +0.024 C 
ATOM     12  C   UNL     1      10.542   8.426   6.068  0.00  0.00    +0.089 C 
ATOM     13  C   UNL     1       9.349   6.638   8.072  0.00  0.00    +0.019 C 
ATOM     14  C   UNL     1       8.880   8.072   7.766  0.00  0.00    +0.085 C 
ENDROOT
BRANCH   9  15
ATOM     15  C   UNL     1      12.191   6.594   5.446  0.00  0.00    +0.089 C 
BRANCH  15   6
ATOM      6  N   UNL     1      13.343   7.493   5.383  0.00  0.00    -0.302 NA
ATOM     17  C   UNL     1      14.015   7.378   4.083  0.00  0.00    +0.084 C 
ATOM     18  C   UNL     1      14.273   7.215   6.486  0.00  0.00    +0.084 C 
ATOM     19  C   UNL     1      16.191   8.138   5.124  0.00  0.00    -0.004 C 
ATOM     20  C   UNL     1      15.192   8.350   3.981  0.00  0.00    +0.019 C 
ATOM     21  C   UNL     1      15.457   8.182   6.467  0.00  0.00    +0.019 C 
BRANCH  19  22
ATOM     22  C   UNL     1      17.309   9.175   5.073  0.00  0.00    +0.038 C 
BRANCH  22  23
ATOM     23  C   UNL     1      18.657   8.552   5.314  0.00  0.00    -0.047 A 
ATOM     25  C   UNL     1      19.277   7.819   4.302  0.00  0.00    +0.003 A 
ATOM     26  C   UNL     1      19.287   8.708   6.548  0.00  0.00    +0.003 A 
ATOM     28  C   UNL     1      20.527   7.242   4.526  0.00  0.00    +0.000 A 
ATOM     29  C   UNL     1      20.537   8.131   6.772  0.00  0.00    +0.000 A 
ATOM     30  C   UNL     1      21.157   7.398   5.760  0.00  0.00    +0.000 A 
ENDBRANCH  22  23
ENDBRANCH  19  22
ENDBRANCH  15   6
ENDBRANCH   9  15
BRANCH  10  16
ATOM     16  C   UNL     1       8.306   7.777   4.041  0.00  0.00    +0.124 C 
BRANCH  16   7
ATOM      7  N   UNL     1       9.082   6.828   3.226  0.00  0.00    -0.188 NA
ATOM     33  H   UNL     1       9.376   5.987   3.739  0.00  0.00    +0.148 HD
BRANCH   7   1
ATOM      1  S   UNL     1      10.186   7.402   2.062  0.00  0.00    +0.065 S 
ATOM      3  O   UNL     1      10.974   8.474   2.639  0.00  0.00    -0.153 OA
ATOM      4  O   UNL     1       9.490   7.603   0.806  0.00  0.00    -0.153 OA
BRANCH   1  24
ATOM      2  S   UNL     1      10.692   4.566   2.603  0.00  0.00    -0.077 S 
ATOM     24  C   UNL     1      11.243   6.001   1.850  0.00  0.00    +0.142 A 
ATOM     27  C   UNL     1      12.439   5.814   1.194  0.00  0.00    +0.036 A 
ATOM     31  C   UNL     1      12.911   4.474   1.311  0.00  0.00    +0.010 A 
ATOM     32  C   UNL     1      12.055   3.688   2.052  0.00  0.00    +0.047 A 
ENDBRANCH   1  24
ENDBRANCH   7   1
ENDBRANCH  16   7
ENDBRANCH  10  16
TORSDOF 8
ENDMDL
MODEL 4
REMARK VINA RESULT:      -6.7      1.332      1.874
REMARK  Name = 25389387
REMARK  8 active torsions:
REMARK  status: ('A' for Active; 'I' for Inactive)
REMARK    1  A    between atoms: S_1  and  N_7
REMARK    2  A    between atoms: S_1  and  C_24
REMARK    3  A    between atoms: N_6  and  C_15
REMARK    4  A    between atoms: N_7  and  C_16
REMARK    5  A    between atoms: C_9  and  C_15
REMARK    6  A    between atoms: C_10  and  C_16
REMARK    7  A    between atoms: C_19  and  C_22
REMARK    8  A    between atoms: C_22  and  C_23
REMARK                            x       y       z     vdW  Elec       q    Type
REMARK                         _______ _______ _______ _____ _____    ______ ____
ROOT
ATOM      5  N   UNL     1      -6.419 -12.565  17.740  0.00  0.00    -0.298 NA
ATOM      8  C   UNL     1      -6.571 -10.021  18.256  0.00  0.00    -0.003 C 
ATOM      9  C   UNL     1      -7.722 -10.464  17.326  0.00  0.00    +0.020 C 
ATOM     10  C   UNL     1      -5.116 -11.908  17.449  0.00  0.00    +0.072 C 
ATOM     11  C   UNL     1      -5.222 -10.374  17.603  0.00  0.00    +0.024 C 
ATOM     12  C   UNL     1      -7.500 -11.943  16.937  0.00  0.00    +0.089 C 
ATOM     13  C   UNL     1      -6.688 -10.858  19.544  0.00  0.00    +0.019 C 
ATOM     14  C   UNL     1      -6.727 -12.353  19.175  0.00  0.00    +0.085 C 
ENDROOT
BRANCH   9  15
ATOM     15  C   UNL     1      -7.877  -9.576  16.092  0.00  0.00    +0.089 C 
BRANCH  15   6
ATOM      6  N   UNL     1      -9.265  -9.127  15.992  0.00  0.00    -0.302 NA
ATOM     17  C   UNL     1      -9.662  -8.997  14.584  0.00  0.00    +0.084 C 
ATOM     18  C   UNL     1      -9.450  -7.862  16.714  0.00  0.00    +0.084 C 
ATOM     19  C   UNL     1     -11.403  -7.276  15.220  0.00  0.00    -0.004 C 
ATOM     20  C   UNL     1     -11.128  -8.578  14.460  0.00  0.00    +0.019 C 
ATOM     21  C   UNL     1     -10.910  -7.406  16.664  0.00  0.00    +0.019 C 
BRANCH  19  22
ATOM     22  C   UNL     1     -12.886  -6.919  15.177  0.00  0.00    +0.038 C 
BRANCH  22  23
ATOM     23  C   UNL     1     -13.157  -5.786  14.225  0.00  0.00    -0.047 A 
ATOM     25  C   UNL     1     -12.097  -5.041  13.706  0.00  0.00    +0.003 A 
ATOM     26  C   UNL     1     -14.467  -5.479  13.861  0.00  0.00    +0.003 A 
ATOM     28  C   UNL     1     -12.348  -3.992  12.823  0.00  0.00    +0.000 A 
ATOM     29  C   UNL     1     -14.719  -4.428  12.979  0.00  0.00    +0.000 A 
ATOM     30  C   UNL     1     -13.659  -3.685  12.460  0.00  0.00    +0.000 A 
ENDBRANCH  22  23
ENDBRANCH  19  22
ENDBRANCH  15   6
ENDBRANCH   9  15
BRANCH  10  16
ATOM     16  C   UNL     1      -4.556 -12.303  16.080  0.00  0.00    +0.124 C 
BRANCH  16   7
ATOM      7  N   UNL     1      -3.678 -11.229  15.589  0.00  0.00    -0.188 NA
ATOM     33  H   UNL     1      -4.186 -10.388  15.284  0.00  0.00    +0.148 HD
BRANCH   7   1
ATOM      1  S   UNL     1      -2.281 -11.607  14.691  0.00  0.00    +0.065 S 
ATOM      3  O   UNL     1      -2.230 -13.040  14.468  0.00  0.00    -0.153 OA
ATOM      4  O   UNL     1      -1.143 -10.918  15.269  0.00  0.00    -0.153 OA
BRANCH   1  24
ATOM      2  S   UNL     1      -4.291 -10.671  12.774  0.00  0.00    -0.077 S 
ATOM     24  C   UNL     1      -2.627 -10.827  13.143  0.00  0.00    +0.142 A 
ATOM     27  C   UNL     1      -1.827 -10.305  12.151  0.00  0.00    +0.036 A 
ATOM     31  C   UNL     1      -2.591  -9.771  11.072  0.00  0.00    +0.010 A 
ATOM     32  C   UNL     1      -3.946  -9.904  11.283  0.00  0.00    +0.047 A 
ENDBRANCH   1  24
ENDBRANCH   7   1
ENDBRANCH  16   7
ENDBRANCH  10  16
TORSDOF 8
ENDMDL
MODEL 5
REMARK VINA RESULT:      -6.7     29.260     31.578
REMARK  Name = 25389387
REMARK  8 active torsions:
REMARK  status: ('A' for Active; 'I' for Inactive)
REMARK    1  A    between atoms: S_1  and  N_7
REMARK    2  A    between atoms: S_1  and  C_24
REMARK    3  A    between atoms: N_6  and  C_15
REMARK    4  A    between atoms: N_7  and  C_16
REMARK    5  A    between atoms: C_9  and  C_15
REMARK    6  A    between atoms: C_10  and  C_16
REMARK    7  A    between atoms: C_19  and  C_22
REMARK    8  A    between atoms: C_22  and  C_23
REMARK                            x       y       z     vdW  Elec       q    Type
REMARK                         _______ _______ _______ _____ _____    ______ ____
ROOT
ATOM      5  N   UNL     1      21.596   6.512  22.974  0.00  0.00    -0.298 NA
ATOM      8  C   UNL     1      21.277   6.975  20.435  0.00  0.00    -0.003 C 
ATOM      9  C   UNL     1      19.912   6.833  21.144  0.00  0.00    +0.020 C 
ATOM     10  C   UNL     1      22.395   5.543  22.176  0.00  0.00    +0.072 C 
ATOM     11  C   UNL     1      22.108   5.698  20.666  0.00  0.00    +0.024 C 
ATOM     12  C   UNL     1      20.161   6.417  22.612  0.00  0.00    +0.089 C 
ATOM     13  C   UNL     1      22.023   8.135  21.123  0.00  0.00    +0.019 C 
ATOM     14  C   UNL     1      22.068   7.878  22.641  0.00  0.00    +0.085 C 
ENDROOT
BRANCH   9  15
ATOM     15  C   UNL     1      18.963   5.866  20.439  0.00  0.00    +0.089 C 
BRANCH  15   6
ATOM      6  N   UNL     1      17.751   6.582  20.043  0.00  0.00    -0.302 NA
ATOM     17  C   UNL     1      16.875   6.789  21.203  0.00  0.00    +0.084 C 
ATOM     18  C   UNL     1      17.052   5.858  18.973  0.00  0.00    +0.084 C 
ATOM     19  C   UNL     1      14.860   6.900  19.678  0.00  0.00    -0.004 C 
ATOM     20  C   UNL     1      15.625   7.583  20.817  0.00  0.00    +0.019 C 
ATOM     21  C   UNL     1      15.810   6.621  18.510  0.00  0.00    +0.019 C 
BRANCH  19  22
ATOM     22  C   UNL     1      13.672   7.747  19.230  0.00  0.00    +0.038 C 
BRANCH  22  23
ATOM     23  C   UNL     1      12.575   7.754  20.259  0.00  0.00    -0.047 A 
ATOM     25  C   UNL     1      12.041   6.548  20.717  0.00  0.00    +0.003 A 
ATOM     26  C   UNL     1      12.091   8.963  20.755  0.00  0.00    +0.003 A 
ATOM     28  C   UNL     1      11.024   6.554  21.671  0.00  0.00    +0.000 A 
ATOM     29  C   UNL     1      11.073   8.969  21.709  0.00  0.00    +0.000 A 
ATOM     30  C   UNL     1      10.540   7.765  22.166  0.00  0.00    +0.000 A 
ENDBRANCH  22  23
ENDBRANCH  19  22
ENDBRANCH  15   6
ENDBRANCH   9  15
BRANCH  10  16
ATOM     16  C   UNL     1      22.200   4.099  22.645  0.00  0.00    +0.124 C 
BRANCH  16   7
ATOM      7  N   UNL     1      23.262   3.755  23.605  0.00  0.00    -0.188 NA
ATOM     33  H   UNL     1      23.629   4.565  24.121  0.00  0.00    +0.148 HD
BRANCH   7   1
ATOM      1  S   UNL     1      24.402   2.549  23.225  0.00  0.00    +0.065 S 
ATOM      3  O   UNL     1      23.737   1.260  23.177  0.00  0.00    -0.153 OA
ATOM      4  O   UNL     1      25.580   2.731  24.052  0.00  0.00    -0.153 OA
BRANCH   1  24
ATOM      2  S   UNL     1      25.947   4.303  21.457  0.00  0.00    -0.077 S 
ATOM     24  C   UNL     1      24.855   2.990  21.574  0.00  0.00    +0.142 A 
ATOM     27  C   UNL     1      24.512   2.491  20.338  0.00  0.00    +0.036 A 
ATOM     31  C   UNL     1      25.154   3.198  19.278  0.00  0.00    +0.010 A 
ATOM     32  C   UNL     1      25.963   4.209  19.748  0.00  0.00    +0.047 A 
ENDBRANCH   1  24
ENDBRANCH   7   1
ENDBRANCH  16   7
ENDBRANCH  10  16
TORSDOF 8
ENDMDL
MODEL 6
REMARK VINA RESULT:      -6.6     25.032     29.571
REMARK  Name = 25389387
REMARK  8 active torsions:
REMARK  status: ('A' for Active; 'I' for Inactive)
REMARK    1  A    between atoms: S_1  and  N_7
REMARK    2  A    between atoms: S_1  and  C_24
REMARK    3  A    between atoms: N_6  and  C_15
REMARK    4  A    between atoms: N_7  and  C_16
REMARK    5  A    between atoms: C_9  and  C_15
REMARK    6  A    between atoms: C_10  and  C_16
REMARK    7  A    between atoms: C_19  and  C_22
REMARK    8  A    between atoms: C_22  and  C_23
REMARK                            x       y       z     vdW  Elec       q    Type
REMARK                         _______ _______ _______ _____ _____    ______ ____
ROOT
ATOM      5  N   UNL     1       9.020   7.844   6.818  0.00  0.00    -0.298 NA
ATOM      8  C   UNL     1      10.188   5.544   6.493  0.00  0.00    -0.003 C 
ATOM      9  C   UNL     1      11.207   6.699   6.381  0.00  0.00    +0.020 C 
ATOM     10  C   UNL     1       8.309   7.055   5.775  0.00  0.00    +0.072 C 
ATOM     11  C   UNL     1       9.068   5.748   5.456  0.00  0.00    +0.024 C 
ATOM     12  C   UNL     1      10.440   8.040   6.437  0.00  0.00    +0.089 C 
ATOM     13  C   UNL     1       9.542   5.648   7.888  0.00  0.00    +0.019 C 
ATOM     14  C   UNL     1       8.982   7.069   8.082  0.00  0.00    +0.085 C 
ENDROOT
BRANCH   9  15
ATOM     15  C   UNL     1      12.090   6.607   5.138  0.00  0.00    +0.089 C 
BRANCH  15   6
ATOM      6  N   UNL     1      13.229   7.511   5.287  0.00  0.00    -0.302 NA
ATOM     17  C   UNL     1      13.897   7.714   3.995  0.00  0.00    +0.084 C 
ATOM     18  C   UNL     1      14.167   6.996   6.293  0.00  0.00    +0.084 C 
ATOM     19  C   UNL     1      16.067   8.240   5.183  0.00  0.00    -0.004 C 
ATOM     20  C   UNL     1      15.060   8.699   4.123  0.00  0.00    +0.019 C 
ATOM     21  C   UNL     1      15.338   7.958   6.500  0.00  0.00    +0.019 C 
BRANCH  19  22
ATOM     22  C   UNL     1      17.170   9.276   5.376  0.00  0.00    +0.038 C 
BRANCH  22  23
ATOM     23  C   UNL     1      18.526   8.633   5.475  0.00  0.00    -0.047 A 
ATOM     25  C   UNL     1      19.251   8.711   6.665  0.00  0.00    +0.003 A 
ATOM     26  C   UNL     1      19.059   7.957   4.378  0.00  0.00    +0.003 A 
ATOM     28  C   UNL     1      20.507   8.114   6.757  0.00  0.00    +0.000 A 
ATOM     29  C   UNL     1      20.317   7.360   4.470  0.00  0.00    +0.000 A 
ATOM     30  C   UNL     1      21.040   7.439   5.659  0.00  0.00    +0.000 A 
ENDBRANCH  22  23
ENDBRANCH  19  22
ENDBRANCH  15   6
ENDBRANCH   9  15
BRANCH  10  16
ATOM     16  C   UNL     1       8.031   7.874   4.512  0.00  0.00    +0.124 C 
BRANCH  16   7
ATOM      7  N   UNL     1       7.195   9.033   4.862  0.00  0.00    -0.188 NA
ATOM     33  H   UNL     1       6.245   8.781   5.164  0.00  0.00    +0.148 HD
BRANCH   7   1
ATOM      1  S   UNL     1       7.323  10.481   3.974  0.00  0.00    +0.065 S 
ATOM      3  O   UNL     1       8.600  10.509   3.287  0.00  0.00    -0.153 OA
ATOM      4  O   UNL     1       6.924  11.592   4.817  0.00  0.00    -0.153 OA
BRANCH   1  24
ATOM      2  S   UNL     1       4.570  11.036   3.135  0.00  0.00    -0.077 S 
ATOM     24  C   UNL     1       6.055  10.271   2.761  0.00  0.00    +0.142 A 
ATOM     27  C   UNL     1       6.007   9.611   1.553  0.00  0.00    +0.036 A 
ATOM     31  C   UNL     1       4.732   9.735   0.926  0.00  0.00    +0.010 A 
ATOM     32  C   UNL     1       3.856  10.485   1.680  0.00  0.00    +0.047 A 
ENDBRANCH   1  24
ENDBRANCH   7   1
ENDBRANCH  16   7
ENDBRANCH  10  16
TORSDOF 8
ENDMDL
MODEL 7
REMARK VINA RESULT:      -6.6      2.134      3.007
REMARK  Name = 25389387
REMARK  8 active torsions:
REMARK  status: ('A' for Active; 'I' for Inactive)
REMARK    1  A    between atoms: S_1  and  N_7
REMARK    2  A    between atoms: S_1  and  C_24
REMARK    3  A    between atoms: N_6  and  C_15
REMARK    4  A    between atoms: N_7  and  C_16
REMARK    5  A    between atoms: C_9  and  C_15
REMARK    6  A    between atoms: C_10  and  C_16
REMARK    7  A    between atoms: C_19  and  C_22
REMARK    8  A    between atoms: C_22  and  C_23
REMARK                            x       y       z     vdW  Elec       q    Type
REMARK                         _______ _______ _______ _____ _____    ______ ____
ROOT
ATOM      5  N   UNL     1      -5.158 -12.725  17.123  0.00  0.00    -0.298 NA
ATOM      8  C   UNL     1      -5.491 -10.178  17.529  0.00  0.00    -0.003 C 
ATOM      9  C   UNL     1      -6.736 -10.795  16.855  0.00  0.00    +0.020 C 
ATOM     10  C   UNL     1      -4.009 -11.965  16.559  0.00  0.00    +0.072 C 
ATOM     11  C   UNL     1      -4.252 -10.442  16.654  0.00  0.00    +0.024 C 
ATOM     12  C   UNL     1      -6.428 -12.269  16.507  0.00  0.00    +0.089 C 
ATOM     13  C   UNL     1      -5.280 -10.931  18.857  0.00  0.00    +0.019 C 
ATOM     14  C   UNL     1      -5.222 -12.444  18.577  0.00  0.00    +0.085 C 
ENDROOT
BRANCH   9  15
ATOM     15  C   UNL     1      -7.208 -10.014  15.630  0.00  0.00    +0.089 C 
BRANCH  15   6
ATOM      6  N   UNL     1      -8.593  -9.591  15.831  0.00  0.00    -0.302 NA
ATOM     17  C   UNL     1      -8.710  -8.772  17.044  0.00  0.00    +0.084 C 
ATOM     18  C   UNL     1      -9.483 -10.758  15.891  0.00  0.00    +0.084 C 
ATOM     19  C   UNL     1     -11.136  -9.446  17.282  0.00  0.00    -0.004 C 
ATOM     20  C   UNL     1     -10.144  -8.278  17.241  0.00  0.00    +0.019 C 
ATOM     21  C   UNL     1     -10.944 -10.331  16.047  0.00  0.00    +0.019 C 
BRANCH  19  22
ATOM     22  C   UNL     1     -12.573  -8.941  17.377  0.00  0.00    +0.038 C 
BRANCH  22  23
ATOM     23  C   UNL     1     -13.248  -9.418  18.634  0.00  0.00    -0.047 A 
ATOM     25  C   UNL     1     -12.481  -9.858  19.714  0.00  0.00    +0.003 A 
ATOM     26  C   UNL     1     -14.639  -9.422  18.721  0.00  0.00    +0.003 A 
ATOM     28  C   UNL     1     -13.107 -10.299  20.879  0.00  0.00    +0.000 A 
ATOM     29  C   UNL     1     -15.265  -9.865  19.886  0.00  0.00    +0.000 A 
ATOM     30  C   UNL     1     -14.499 -10.303  20.965  0.00  0.00    +0.000 A 
ENDBRANCH  22  23
ENDBRANCH  19  22
ENDBRANCH  15   6
ENDBRANCH   9  15
BRANCH  10  16
ATOM     16  C   UNL     1      -3.667 -12.398  15.131  0.00  0.00    +0.124 C 
BRANCH  16   7
ATOM      7  N   UNL     1      -3.661 -11.214  14.256  0.00  0.00    -0.188 NA
ATOM     33  H   UNL     1      -4.577 -11.007  13.836  0.00  0.00    +0.148 HD
BRANCH   7   1
ATOM      1  S   UNL     1      -2.311 -10.884  13.271  0.00  0.00    +0.065 S 
ATOM      3  O   UNL     1      -1.702 -12.135  12.860  0.00  0.00    -0.153 OA
ATOM      4  O   UNL     1      -1.506  -9.853  13.897  0.00  0.00    -0.153 OA
BRANCH   1  24
ATOM      2  S   UNL     1      -4.784 -10.145  11.881  0.00  0.00    -0.077 S 
ATOM     24  C   UNL     1      -3.072 -10.156  11.851  0.00  0.00    +0.142 A 
ATOM     27  C   UNL     1      -2.571  -9.582  10.704  0.00  0.00    +0.036 A 
ATOM     31  C   UNL     1      -3.608  -9.128   9.837  0.00  0.00    +0.010 A 
ATOM     32  C   UNL     1      -4.860  -9.372  10.356  0.00  0.00    +0.047 A 
ENDBRANCH   1  24
ENDBRANCH   7   1
ENDBRANCH  16   7
ENDBRANCH  10  16
TORSDOF 8
ENDMDL
MODEL 8
REMARK VINA RESULT:      -6.5     24.785     28.378
REMARK  Name = 25389387
REMARK  8 active torsions:
REMARK  status: ('A' for Active; 'I' for Inactive)
REMARK    1  A    between atoms: S_1  and  N_7
REMARK    2  A    between atoms: S_1  and  C_24
REMARK    3  A    between atoms: N_6  and  C_15
REMARK    4  A    between atoms: N_7  and  C_16
REMARK    5  A    between atoms: C_9  and  C_15
REMARK    6  A    between atoms: C_10  and  C_16
REMARK    7  A    between atoms: C_19  and  C_22
REMARK    8  A    between atoms: C_22  and  C_23
REMARK                            x       y       z     vdW  Elec       q    Type
REMARK                         _______ _______ _______ _____ _____    ______ ____
ROOT
ATOM      5  N   UNL     1      10.393   6.949   8.013  0.00  0.00    -0.298 NA
ATOM      8  C   UNL     1       9.520   5.402   6.113  0.00  0.00    -0.003 C 
ATOM      9  C   UNL     1      10.937   5.926   5.789  0.00  0.00    +0.020 C 
ATOM     10  C   UNL     1       9.049   7.403   7.563  0.00  0.00    +0.072 C 
ATOM     11  C   UNL     1       8.572   6.595   6.336  0.00  0.00    +0.024 C 
ATOM     12  C   UNL     1      11.344   6.949   6.874  0.00  0.00    +0.089 C 
ATOM     13  C   UNL     1       9.619   4.641   7.450  0.00  0.00    +0.019 C 
ATOM     14  C   UNL     1      10.263   5.557   8.507  0.00  0.00    +0.085 C 
ENDROOT
BRANCH   9  15
ATOM     15  C   UNL     1      11.055   6.518   4.386  0.00  0.00    +0.089 C 
BRANCH  15   6
ATOM      6  N   UNL     1      11.854   5.623   3.550  0.00  0.00    -0.302 NA
ATOM     17  C   UNL     1      12.626   6.392   2.566  0.00  0.00    +0.084 C 
ATOM     18  C   UNL     1      10.994   4.631   2.891  0.00  0.00    +0.084 C 
ATOM     19  C   UNL     1      12.679   4.390   1.022  0.00  0.00    -0.004 C 
ATOM     20  C   UNL     1      13.509   5.475   1.718  0.00  0.00    +0.019 C 
ATOM     21  C   UNL     1      11.821   3.653   2.055  0.00  0.00    +0.019 C 
BRANCH  19  22
ATOM     22  C   UNL     1      13.576   3.419   0.259  0.00  0.00    +0.038 C 
BRANCH  22  23
ATOM     23  C   UNL     1      13.294   3.446  -1.218  0.00  0.00    -0.047 A 
ATOM     25  C   UNL     1      12.360   2.566  -1.767  0.00  0.00    +0.003 A 
ATOM     26  C   UNL     1      13.966   4.350  -2.040  0.00  0.00    +0.003 A 
ATOM     28  C   UNL     1      12.098   2.592  -3.136  0.00  0.00    +0.000 A 
ATOM     29  C   UNL     1      13.705   4.374  -3.410  0.00  0.00    +0.000 A 
ATOM     30  C   UNL     1      12.771   3.496  -3.958  0.00  0.00    +0.000 A 
ENDBRANCH  22  23
ENDBRANCH  19  22
ENDBRANCH  15   6
ENDBRANCH   9  15
BRANCH  10  16
ATOM     16  C   UNL     1       8.999   8.911   7.304  0.00  0.00    +0.124 C 
BRANCH  16   7
ATOM      7  N   UNL     1       9.417   9.624   8.522  0.00  0.00    -0.188 NA
ATOM     33  H   UNL     1       8.700   9.638   9.259  0.00  0.00    +0.148 HD
BRANCH   7   1
ATOM      1  S   UNL     1      10.376  11.027   8.407  0.00  0.00    +0.065 S 
ATOM      3  O   UNL     1       9.734  11.974   7.515  0.00  0.00    -0.153 OA
ATOM      4  O   UNL     1      11.757  10.642   8.188  0.00  0.00    -0.153 OA
BRANCH   1  24
ATOM      2  S   UNL     1       8.683  12.009  10.588  0.00  0.00    -0.077 S 
ATOM     24  C   UNL     1      10.272  11.670  10.050  0.00  0.00    +0.142 A 
ATOM     27  C   UNL     1      11.216  11.960  11.010  0.00  0.00    +0.036 A 
ATOM     31  C   UNL     1      10.626  12.469  12.204  0.00  0.00    +0.010 A 
ATOM     32  C   UNL     1       9.253  12.547  12.110  0.00  0.00    +0.047 A 
ENDBRANCH   1  24
ENDBRANCH   7   1
ENDBRANCH  16   7
ENDBRANCH  10  16
TORSDOF 8
ENDMDL
MODEL 9
REMARK VINA RESULT:      -6.5     24.953     29.768
REMARK  Name = 25389387
REMARK  8 active torsions:
REMARK  status: ('A' for Active; 'I' for Inactive)
REMARK    1  A    between atoms: S_1  and  N_7
REMARK    2  A    between atoms: S_1  and  C_24
REMARK    3  A    between atoms: N_6  and  C_15
REMARK    4  A    between atoms: N_7  and  C_16
REMARK    5  A    between atoms: C_9  and  C_15
REMARK    6  A    between atoms: C_10  and  C_16
REMARK    7  A    between atoms: C_19  and  C_22
REMARK    8  A    between atoms: C_22  and  C_23
REMARK                            x       y       z     vdW  Elec       q    Type
REMARK                         _______ _______ _______ _____ _____    ______ ____
ROOT
ATOM      5  N   UNL     1       9.027   7.708   6.819  0.00  0.00    -0.298 NA
ATOM      8  C   UNL     1      10.288   5.473   6.394  0.00  0.00    -0.003 C 
ATOM      9  C   UNL     1      11.249   6.677   6.282  0.00  0.00    +0.020 C 
ATOM     10  C   UNL     1       8.320   6.914   5.777  0.00  0.00    +0.072 C 
ATOM     11  C   UNL     1       9.127   5.652   5.398  0.00  0.00    +0.024 C 
ATOM     12  C   UNL     1      10.424   7.979   6.399  0.00  0.00    +0.089 C 
ATOM     13  C   UNL     1       9.684   5.511   7.811  0.00  0.00    +0.019 C 
ATOM     14  C   UNL     1       9.066   6.899   8.061  0.00  0.00    +0.085 C 
ENDROOT
BRANCH   9  15
ATOM     15  C   UNL     1      12.094   6.659   5.010  0.00  0.00    +0.089 C 
BRANCH  15   6
ATOM      6  N   UNL     1      13.241   7.549   5.180  0.00  0.00    -0.302 NA
ATOM     17  C   UNL     1      14.045   7.591   3.952  0.00  0.00    +0.084 C 
ATOM     18  C   UNL     1      14.053   7.129   6.330  0.00  0.00    +0.084 C 
ATOM     19  C   UNL     1      16.098   8.199   5.300  0.00  0.00    -0.004 C 
ATOM     20  C   UNL     1      15.221   8.559   4.094  0.00  0.00    +0.019 C 
ATOM     21  C   UNL     1      15.228   8.082   6.555  0.00  0.00    +0.019 C 
BRANCH  19  22
ATOM     22  C   UNL     1      17.209   9.226   5.495  0.00  0.00    +0.038 C 
BRANCH  22  23
ATOM     23  C   UNL     1      18.567   8.579   5.515  0.00  0.00    -0.047 A 
ATOM     25  C   UNL     1      19.345   8.624   6.672  0.00  0.00    +0.003 A 
ATOM     26  C   UNL     1      19.049   7.933   4.377  0.00  0.00    +0.003 A 
ATOM     28  C   UNL     1      20.603   8.023   6.691  0.00  0.00    +0.000 A 
ATOM     29  C   UNL     1      20.308   7.333   4.395  0.00  0.00    +0.000 A 
ATOM     30  C   UNL     1      21.084   7.378   5.552  0.00  0.00    +0.000 A 
ENDBRANCH  22  23
ENDBRANCH  19  22
ENDBRANCH  15   6
ENDBRANCH   9  15
BRANCH  10  16
ATOM     16  C   UNL     1       7.964   7.751   4.546  0.00  0.00    +0.124 C 
BRANCH  16   7
ATOM      7  N   UNL     1       7.120   8.884   4.961  0.00  0.00    -0.188 NA
ATOM     33  H   UNL     1       6.385   8.627   5.633  0.00  0.00    +0.148 HD
BRANCH   7   1
ATOM      1  S   UNL     1       6.696  10.093   3.838  0.00  0.00    +0.065 S 
ATOM      3  O   UNL     1       5.263  10.055   3.613  0.00  0.00    -0.153 OA
ATOM      4  O   UNL     1       7.611  10.039   2.714  0.00  0.00    -0.153 OA
BRANCH   1  24
ATOM      2  S   UNL     1       8.546  11.525   5.603  0.00  0.00    -0.077 S 
ATOM     24  C   UNL     1       7.069  11.567   4.738  0.00  0.00    +0.142 A 
ATOM     27  C   UNL     1       6.413  12.767   4.895  0.00  0.00    +0.036 A 
ATOM     31  C   UNL     1       7.132  13.665   5.738  0.00  0.00    +0.010 A 
ATOM     32  C   UNL     1       8.311  13.115   6.191  0.00  0.00    +0.047 A 
ENDBRANCH   1  24
ENDBRANCH   7   1
ENDBRANCH  16   7
ENDBRANCH  10  16
TORSDOF 8
ENDMDL
MODEL 10
REMARK VINA RESULT:      -6.5      3.414      5.268
REMARK  Name = 25389387
REMARK  8 active torsions:
REMARK  status: ('A' for Active; 'I' for Inactive)
REMARK    1  A    between atoms: S_1  and  N_7
REMARK    2  A    between atoms: S_1  and  C_24
REMARK    3  A    between atoms: N_6  and  C_15
REMARK    4  A    between atoms: N_7  and  C_16
REMARK    5  A    between atoms: C_9  and  C_15
REMARK    6  A    between atoms: C_10  and  C_16
REMARK    7  A    between atoms: C_19  and  C_22
REMARK    8  A    between atoms: C_22  and  C_23
REMARK                            x       y       z     vdW  Elec       q    Type
REMARK                         _______ _______ _______ _____ _____    ______ ____
ROOT
ATOM      5  N   UNL     1     -10.577 -12.471  18.095  0.00  0.00    -0.298 NA
ATOM      8  C   UNL     1     -10.920 -10.361  19.575  0.00  0.00    -0.003 C 
ATOM      9  C   UNL     1     -10.972  -9.995  18.075  0.00  0.00    +0.020 C 
ATOM     10  C   UNL     1      -9.480 -12.367  19.096  0.00  0.00    +0.072 C 
ATOM     11  C   UNL     1      -9.576 -11.045  19.889  0.00  0.00    +0.024 C 
ATOM     12  C   UNL     1     -10.619 -11.253  17.249  0.00  0.00    +0.089 C 
ATOM     13  C   UNL     1     -12.030 -11.401  19.822  0.00  0.00    +0.019 C 
ATOM     14  C   UNL     1     -11.860 -12.567  18.832  0.00  0.00    +0.085 C 
ENDROOT
BRANCH   9  15
ATOM     15  C   UNL     1     -10.075  -8.813  17.711  0.00  0.00    +0.089 C 
BRANCH  15   6
ATOM      6  N   UNL     1     -10.878  -7.782  17.056  0.00  0.00    -0.302 NA
ATOM     17  C   UNL     1     -12.145  -8.346  16.573  0.00  0.00    +0.084 C 
ATOM     18  C   UNL     1     -10.122  -7.161  15.960  0.00  0.00    +0.084 C 
ATOM     19  C   UNL     1     -12.281  -6.553  14.794  0.00  0.00    -0.004 C 
ATOM     20  C   UNL     1     -13.020  -7.268  15.931  0.00  0.00    +0.019 C 
ATOM     21  C   UNL     1     -10.928  -6.042  15.298  0.00  0.00    +0.019 C 
BRANCH  19  22
ATOM     22  C   UNL     1     -13.122  -5.414  14.225  0.00  0.00    +0.038 C 
BRANCH  22  23
ATOM     23  C   UNL     1     -12.682  -5.037  12.837  0.00  0.00    -0.047 A 
ATOM     25  C   UNL     1     -12.489  -6.028  11.873  0.00  0.00    +0.003 A 
ATOM     26  C   UNL     1     -12.466  -3.699  12.513  0.00  0.00    +0.003 A 
ATOM     28  C   UNL     1     -12.082  -5.679  10.586  0.00  0.00    +0.000 A 
ATOM     29  C   UNL     1     -12.057  -3.349  11.226  0.00  0.00    +0.000 A 
ATOM     30  C   UNL     1     -11.866  -4.339  10.263  0.00  0.00    +0.000 A 
ENDBRANCH  22  23
ENDBRANCH  19  22
ENDBRANCH  15   6
ENDBRANCH   9  15
BRANCH  10  16
ATOM     16  C   UNL     1      -8.097 -12.553  18.467  0.00  0.00    +0.124 C 
BRANCH  16   7
ATOM      7  N   UNL     1      -7.081 -12.574  19.532  0.00  0.00    -0.188 NA
ATOM     33  H   UNL     1      -7.454 -12.843  20.452  0.00  0.00    +0.148 HD
BRANCH   7   1
ATOM      1  S   UNL     1      -5.840 -11.407  19.555  0.00  0.00    +0.065 S 
ATOM      3  O   UNL     1      -4.579 -12.058  19.856  0.00  0.00    -0.153 OA
ATOM      4  O   UNL     1      -6.276 -10.265  20.335  0.00  0.00    -0.153 OA
BRANCH   1  24
ATOM      2  S   UNL     1      -4.736 -11.793  16.868  0.00  0.00    -0.077 S 
ATOM     24  C   UNL     1      -5.798 -10.894  17.864  0.00  0.00    +0.142 A 
ATOM     27  C   UNL     1      -6.452  -9.905  17.163  0.00  0.00    +0.036 A 
ATOM     31  C   UNL     1      -6.075  -9.885  15.788  0.00  0.00    +0.010 A 
ATOM     32  C   UNL     1      -5.149 -10.861  15.492  0.00  0.00    +0.047 A 
ENDBRANCH   1  24
ENDBRANCH   7   1
ENDBRANCH  16   7
ENDBRANCH  10  16
TORSDOF 8
ENDMDL
