MODEL 1
REMARK VINA RESULT:      -6.8      0.000      0.000
REMARK  Name = 38030234
REMARK  13 active torsions:
REMARK  status: ('A' for Active; 'I' for Inactive)
REMARK    1  A    between atoms: N_3  and  C_14
REMARK    2  A    between atoms: N_3  and  C_20
REMARK    3  A    between atoms: N_6  and  C_21
REMARK    4  A    between atoms: C_7  and  C_11
REMARK    5  A    between atoms: C_8  and  C_14
REMARK    6  A    between atoms: C_10  and  C_15
REMARK    7  A    between atoms: C_11  and  C_16
REMARK    8  A    between atoms: C_11  and  C_17
REMARK    9  A    between atoms: C_12  and  C_18
REMARK   10  A    between atoms: C_15  and  C_19
REMARK   11  A    between atoms: C_20  and  C_21
REMARK   12  A    between atoms: C_22  and  C_23
REMARK   13  A    between atoms: C_24  and  C_27
REMARK                            x       y       z     vdW  Elec       q    Type
REMARK                         _______ _______ _______ _____ _____    ______ ____
ROOT
ATOM      7  C   UNL     1      11.877  11.953  23.823  0.00  0.00    +0.000 C 
ATOM      8  C   UNL     1      11.096  11.272  22.674  0.00  0.00    +0.029 C 
ATOM      9  C   UNL     1      13.384  11.714  23.664  0.00  0.00    +0.012 C 
ATOM     10  C   UNL     1      13.941  12.198  22.308  0.00  0.00    +0.024 C 
ATOM     12  C   UNL     1      13.003  11.914  21.144  0.00  0.00    -0.073 C 
ATOM     13  C   UNL     1      11.740  11.490  21.328  0.00  0.00    -0.023 C 
ATOM     18  C   UNL     1      13.518  12.180  19.756  0.00  0.00    +0.039 C 
ENDROOT
BRANCH   7  11
ATOM     11  C   UNL     1      11.558  13.452  23.904  0.00  0.00    -0.013 C 
ATOM     16  C   UNL     1      12.209  14.069  25.139  0.00  0.00    +0.007 C 
ATOM     17  C   UNL     1      10.049  13.676  23.920  0.00  0.00    +0.007 C 
ENDBRANCH   7  11
BRANCH   8  14
ATOM     14  C   UNL     1      10.930   9.769  22.916  0.00  0.00    +0.088 C 
BRANCH  14   3
ATOM      3  N   UNL     1      11.003   9.045  21.686  0.00  0.00    -0.314 NA
ATOM     31  H   UNL     1      11.772   9.394  21.115  0.00  0.00    +0.122 HD
BRANCH   3  20
ATOM     20  C   UNL     1      11.169   7.604  21.904  0.00  0.00    +0.099 C 
BRANCH  20  21
ATOM     21  C   UNL     1      11.733   6.942  20.657  0.00  0.00    +0.119 C 
BRANCH  21   6
ATOM      2  O   UNL     1      12.173   7.121  17.793  0.00  0.00    -0.276 OA
ATOM      6  N   UNL     1      12.639   7.817  19.966  0.00  0.00    -0.314 N 
ATOM     24  C   UNL     1      12.784   7.834  18.585  0.00  0.00    +0.210 C 
ATOM     27  C   UNL     1      13.779   8.864  18.121  0.00  0.00    +0.109 C 
ATOM     32  H   UNL     1      13.186   8.467  20.525  0.00  0.00    +0.149 HD
ENDBRANCH  21   6
ENDBRANCH  20  21
ENDBRANCH   3  20
ENDBRANCH  14   3
ENDBRANCH   8  14
BRANCH  10  15
ATOM     15  C   UNL     1      15.338  11.596  22.109  0.00  0.00    +0.105 C 
BRANCH  15  19
ATOM      1  O   UNL     1      16.274   9.509  21.257  0.00  0.00    -0.420 OA
ATOM      4  N   UNL     1      14.388   9.255  22.434  0.00  0.00    -0.112 NA
ATOM      5  N   UNL     1      14.805   8.004  22.016  0.00  0.00    -0.107 NA
ATOM     19  C   UNL     1      15.276  10.102  21.968  0.00  0.00    +0.218 A 
ATOM     22  C   UNL     1      15.908   8.201  21.334  0.00  0.00    +0.248 A 
BRANCH  22  23
ATOM     23  C   UNL     1      16.770   7.268  20.669  0.00  0.00    +0.038 A 
ATOM     25  C   UNL     1      18.059   7.042  21.154  0.00  0.00    +0.013 A 
ATOM     26  C   UNL     1      16.322   6.587  19.538  0.00  0.00    +0.013 A 
ATOM     28  C   UNL     1      18.898   6.135  20.509  0.00  0.00    +0.001 A 
ATOM     29  C   UNL     1      17.161   5.678  18.892  0.00  0.00    +0.001 A 
ATOM     30  C   UNL     1      18.449   5.453  19.377  0.00  0.00    +0.000 A 
ENDBRANCH  22  23
ENDBRANCH  15  19
ENDBRANCH  10  15
TORSDOF 9
ENDMDL
MODEL 2
REMARK VINA RESULT:      -6.3      3.683      6.084
REMARK  Name = 38030234
REMARK  13 active torsions:
REMARK  status: ('A' for Active; 'I' for Inactive)
REMARK    1  A    between atoms: N_3  and  C_14
REMARK    2  A    between atoms: N_3  and  C_20
REMARK    3  A    between atoms: N_6  and  C_21
REMARK    4  A    between atoms: C_7  and  C_11
REMARK    5  A    between atoms: C_8  and  C_14
REMARK    6  A    between atoms: C_10  and  C_15
REMARK    7  A    between atoms: C_11  and  C_16
REMARK    8  A    between atoms: C_11  and  C_17
REMARK    9  A    between atoms: C_12  and  C_18
REMARK   10  A    between atoms: C_15  and  C_19
REMARK   11  A    between atoms: C_20  and  C_21
REMARK   12  A    between atoms: C_22  and  C_23
REMARK   13  A    between atoms: C_24  and  C_27
REMARK                            x       y       z     vdW  Elec       q    Type
REMARK                         _______ _______ _______ _____ _____    ______ ____
ROOT
ATOM      7  C   UNL     1      15.683   8.842  20.844  0.00  0.00    +0.000 C 
ATOM      8  C   UNL     1      14.864   7.723  20.158  0.00  0.00    +0.029 C 
ATOM      9  C   UNL     1      16.861   8.245  21.626  0.00  0.00    +0.012 C 
ATOM     10  C   UNL     1      17.799   7.381  20.755  0.00  0.00    +0.024 C 
ATOM     12  C   UNL     1      17.051   6.527  19.742  0.00  0.00    -0.073 C 
ATOM     13  C   UNL     1      15.738   6.687  19.499  0.00  0.00    -0.023 C 
ATOM     18  C   UNL     1      17.848   5.516  18.963  0.00  0.00    +0.039 C 
ENDROOT
BRANCH   7  11
ATOM     11  C   UNL     1      16.165   9.885  19.826  0.00  0.00    -0.013 C 
ATOM     16  C   UNL     1      16.867  11.038  20.537  0.00  0.00    +0.007 C 
ATOM     17  C   UNL     1      14.994  10.397  18.993  0.00  0.00    +0.007 C 
ENDBRANCH   7  11
BRANCH   8  14
ATOM     14  C   UNL     1      13.918   7.031  21.144  0.00  0.00    +0.088 C 
BRANCH  14   3
ATOM      3  N   UNL     1      12.689   6.676  20.505  0.00  0.00    -0.314 NA
ATOM     31  H   UNL     1      12.811   5.829  19.950  0.00  0.00    +0.122 HD
BRANCH   3  20
ATOM     20  C   UNL     1      11.604   6.477  21.471  0.00  0.00    +0.099 C 
BRANCH  20  21
ATOM     21  C   UNL     1      10.554   7.566  21.320  0.00  0.00    +0.119 C 
BRANCH  21   6
ATOM      2  O   UNL     1      11.056   9.877  23.005  0.00  0.00    -0.276 OA
ATOM      6  N   UNL     1      11.151   8.815  20.934  0.00  0.00    -0.314 N 
ATOM     24  C   UNL     1      11.353   9.871  21.813  0.00  0.00    +0.210 C 
ATOM     27  C   UNL     1      12.019  11.050  21.156  0.00  0.00    +0.109 C 
ATOM     32  H   UNL     1      11.453   8.915  19.969  0.00  0.00    +0.149 HD
ENDBRANCH  21   6
ENDBRANCH  20  21
ENDBRANCH   3  20
ENDBRANCH  14   3
ENDBRANCH   8  14
BRANCH  10  15
ATOM     15  C   UNL     1      18.704   6.557  21.678  0.00  0.00    +0.105 C 
BRANCH  15  19
ATOM      1  O   UNL     1      20.735   5.282  21.223  0.00  0.00    -0.420 OA
ATOM      4  N   UNL     1      20.848   7.433  20.617  0.00  0.00    -0.112 NA
ATOM      5  N   UNL     1      22.055   6.836  20.304  0.00  0.00    -0.107 NA
ATOM     19  C   UNL     1      20.109   6.489  21.151  0.00  0.00    +0.218 A 
ATOM     22  C   UNL     1      21.944   5.582  20.675  0.00  0.00    +0.248 A 
BRANCH  22  23
ATOM     23  C   UNL     1      22.882   4.501  20.593  0.00  0.00    +0.038 A 
ATOM     25  C   UNL     1      24.103   4.684  19.943  0.00  0.00    +0.013 A 
ATOM     26  C   UNL     1      22.575   3.266  21.163  0.00  0.00    +0.013 A 
ATOM     28  C   UNL     1      25.015   3.633  19.864  0.00  0.00    +0.001 A 
ATOM     29  C   UNL     1      23.488   2.214  21.084  0.00  0.00    +0.001 A 
ATOM     30  C   UNL     1      24.708   2.397  20.434  0.00  0.00    +0.000 A 
ENDBRANCH  22  23
ENDBRANCH  15  19
ENDBRANCH  10  15
TORSDOF 9
ENDMDL
MODEL 3
REMARK VINA RESULT:      -6.2      3.830      6.103
REMARK  Name = 38030234
REMARK  13 active torsions:
REMARK  status: ('A' for Active; 'I' for Inactive)
REMARK    1  A    between atoms: N_3  and  C_14
REMARK    2  A    between atoms: N_3  and  C_20
REMARK    3  A    between atoms: N_6  and  C_21
REMARK    4  A    between atoms: C_7  and  C_11
REMARK    5  A    between atoms: C_8  and  C_14
REMARK    6  A    between atoms: C_10  and  C_15
REMARK    7  A    between atoms: C_11  and  C_16
REMARK    8  A    between atoms: C_11  and  C_17
REMARK    9  A    between atoms: C_12  and  C_18
REMARK   10  A    between atoms: C_15  and  C_19
REMARK   11  A    between atoms: C_20  and  C_21
REMARK   12  A    between atoms: C_22  and  C_23
REMARK   13  A    between atoms: C_24  and  C_27
REMARK                            x       y       z     vdW  Elec       q    Type
REMARK                         _______ _______ _______ _____ _____    ______ ____
ROOT
ATOM      7  C   UNL     1      16.577   9.381  21.354  0.00  0.00    +0.000 C 
ATOM      8  C   UNL     1      15.421   8.468  20.881  0.00  0.00    +0.029 C 
ATOM      9  C   UNL     1      17.731   8.540  21.918  0.00  0.00    +0.012 C 
ATOM     10  C   UNL     1      18.275   7.499  20.917  0.00  0.00    +0.024 C 
ATOM     12  C   UNL     1      17.181   6.830  20.099  0.00  0.00    -0.073 C 
ATOM     13  C   UNL     1      15.910   7.271  20.106  0.00  0.00    -0.023 C 
ATOM     18  C   UNL     1      17.577   5.675  19.220  0.00  0.00    +0.039 C 
ENDROOT
BRANCH   7  11
ATOM     11  C   UNL     1      17.061  10.301  20.224  0.00  0.00    -0.013 C 
ATOM     16  C   UNL     1      18.126  11.264  20.742  0.00  0.00    +0.007 C 
ATOM     17  C   UNL     1      15.888  11.065  19.621  0.00  0.00    +0.007 C 
ENDBRANCH   7  11
BRANCH   8  14
ATOM     14  C   UNL     1      14.561   7.992  22.056  0.00  0.00    +0.088 C 
BRANCH  14   3
ATOM      3  N   UNL     1      13.504   7.145  21.600  0.00  0.00    -0.314 NA
ATOM     31  H   UNL     1      13.496   6.272  22.127  0.00  0.00    +0.122 HD
BRANCH   3  20
ATOM     20  C   UNL     1      12.193   7.794  21.708  0.00  0.00    +0.099 C 
BRANCH  20  21
ATOM     21  C   UNL     1      11.412   7.629  20.413  0.00  0.00    +0.119 C 
BRANCH  21   6
ATOM      2  O   UNL     1      12.393   9.491  18.414  0.00  0.00    -0.276 OA
ATOM      6  N   UNL     1      12.288   7.344  19.310  0.00  0.00    -0.314 N 
ATOM     24  C   UNL     1      12.707   8.303  18.398  0.00  0.00    +0.210 C 
ATOM     27  C   UNL     1      13.640   7.743  17.357  0.00  0.00    +0.109 C 
ATOM     32  H   UNL     1      12.626   6.391  19.209  0.00  0.00    +0.149 HD
ENDBRANCH  21   6
ENDBRANCH  20  21
ENDBRANCH   3  20
ENDBRANCH  14   3
ENDBRANCH   8  14
BRANCH  10  15
ATOM     15  C   UNL     1      19.147   6.495  21.680  0.00  0.00    +0.105 C 
BRANCH  15  19
ATOM      1  O   UNL     1      21.165   5.203  21.215  0.00  0.00    -0.420 OA
ATOM      4  N   UNL     1      21.217   7.297  20.430  0.00  0.00    -0.112 NA
ATOM      5  N   UNL     1      22.412   6.686  20.098  0.00  0.00    -0.107 NA
ATOM     19  C   UNL     1      20.521   6.394  21.080  0.00  0.00    +0.218 A 
ATOM     22  C   UNL     1      22.337   5.466  20.576  0.00  0.00    +0.248 A 
BRANCH  22  23
ATOM     23  C   UNL     1      23.283   4.389  20.530  0.00  0.00    +0.038 A 
ATOM     25  C   UNL     1      22.956   3.150  21.084  0.00  0.00    +0.013 A 
ATOM     26  C   UNL     1      24.528   4.578  19.932  0.00  0.00    +0.013 A 
ATOM     28  C   UNL     1      23.875   2.103  21.038  0.00  0.00    +0.001 A 
ATOM     29  C   UNL     1      25.447   3.530  19.886  0.00  0.00    +0.001 A 
ATOM     30  C   UNL     1      25.121   2.292  20.440  0.00  0.00    +0.000 A 
ENDBRANCH  22  23
ENDBRANCH  15  19
ENDBRANCH  10  15
TORSDOF 9
ENDMDL
MODEL 4
REMARK VINA RESULT:      -6.1     27.342     29.097
REMARK  Name = 38030234
REMARK  13 active torsions:
REMARK  status: ('A' for Active; 'I' for Inactive)
REMARK    1  A    between atoms: N_3  and  C_14
REMARK    2  A    between atoms: N_3  and  C_20
REMARK    3  A    between atoms: N_6  and  C_21
REMARK    4  A    between atoms: C_7  and  C_11
REMARK    5  A    between atoms: C_8  and  C_14
REMARK    6  A    between atoms: C_10  and  C_15
REMARK    7  A    between atoms: C_11  and  C_16
REMARK    8  A    between atoms: C_11  and  C_17
REMARK    9  A    between atoms: C_12  and  C_18
REMARK   10  A    between atoms: C_15  and  C_19
REMARK   11  A    between atoms: C_20  and  C_21
REMARK   12  A    between atoms: C_22  and  C_23
REMARK   13  A    between atoms: C_24  and  C_27
REMARK                            x       y       z     vdW  Elec       q    Type
REMARK                         _______ _______ _______ _____ _____    ______ ____
ROOT
ATOM      7  C   UNL     1      -4.420  -9.781  11.854  0.00  0.00    +0.000 C 
ATOM      8  C   UNL     1      -5.727 -10.481  12.296  0.00  0.00    +0.029 C 
ATOM      9  C   UNL     1      -3.208 -10.421  12.543  0.00  0.00    +0.012 C 
ATOM     10  C   UNL     1      -3.089 -11.939  12.287  0.00  0.00    +0.024 C 
ATOM     12  C   UNL     1      -4.432 -12.652  12.303  0.00  0.00    -0.073 C 
ATOM     13  C   UNL     1      -5.600 -11.983  12.319  0.00  0.00    -0.023 C 
ATOM     18  C   UNL     1      -4.422 -14.156  12.242  0.00  0.00    +0.039 C 
ENDROOT
BRANCH   7  11
ATOM     11  C   UNL     1      -4.265  -9.799  10.327  0.00  0.00    -0.013 C 
ATOM     16  C   UNL     1      -3.006  -9.045   9.912  0.00  0.00    +0.007 C 
ATOM     17  C   UNL     1      -5.499  -9.200   9.660  0.00  0.00    +0.007 C 
ENDBRANCH   7  11
BRANCH   8  14
ATOM     14  C   UNL     1      -6.193  -9.994  13.672  0.00  0.00    +0.088 C 
BRANCH  14   3
ATOM      3  N   UNL     1      -7.483  -9.385  13.584  0.00  0.00    -0.314 NA
ATOM     31  H   UNL     1      -7.723  -9.200  12.610  0.00  0.00    +0.122 HD
BRANCH   3  20
ATOM     20  C   UNL     1      -8.526 -10.215  14.197  0.00  0.00    +0.099 C 
BRANCH  20  21
ATOM     21  C   UNL     1      -9.037  -9.567  15.474  0.00  0.00    +0.119 C 
BRANCH  21   6
ATOM      2  O   UNL     1      -9.975  -7.615  17.408  0.00  0.00    -0.276 OA
ATOM      6  N   UNL     1      -9.648  -8.294  15.204  0.00  0.00    -0.314 N 
ATOM     24  C   UNL     1     -10.068  -7.421  16.198  0.00  0.00    +0.210 C 
ATOM     27  C   UNL     1     -10.650  -6.149  15.641  0.00  0.00    +0.109 C 
ATOM     32  H   UNL     1      -9.759  -8.021  14.231  0.00  0.00    +0.149 HD
ENDBRANCH  21   6
ENDBRANCH  20  21
ENDBRANCH   3  20
ENDBRANCH  14   3
ENDBRANCH   8  14
BRANCH  10  15
ATOM     15  C   UNL     1      -2.088 -12.528  13.289  0.00  0.00    +0.105 C 
BRANCH  15  19
ATOM      1  O   UNL     1      -3.343 -11.932  15.296  0.00  0.00    -0.420 OA
ATOM      4  N   UNL     1      -1.258 -11.121  15.243  0.00  0.00    -0.112 NA
ATOM      5  N   UNL     1      -1.848 -10.711  16.424  0.00  0.00    -0.107 NA
ATOM     19  C   UNL     1      -2.167 -11.831  14.617  0.00  0.00    +0.218 A 
ATOM     22  C   UNL     1      -3.062 -11.206  16.412  0.00  0.00    +0.248 A 
BRANCH  22  23
ATOM     23  C   UNL     1      -4.119 -11.104  17.375  0.00  0.00    +0.038 A 
ATOM     25  C   UNL     1      -3.996 -11.731  18.616  0.00  0.00    +0.013 A 
ATOM     26  C   UNL     1      -5.271 -10.378  17.074  0.00  0.00    +0.013 A 
ATOM     28  C   UNL     1      -5.023 -11.631  19.553  0.00  0.00    +0.001 A 
ATOM     29  C   UNL     1      -6.299 -10.277  18.012  0.00  0.00    +0.001 A 
ATOM     30  C   UNL     1      -6.175 -10.904  19.251  0.00  0.00    +0.000 A 
ENDBRANCH  22  23
ENDBRANCH  15  19
ENDBRANCH  10  15
TORSDOF 9
ENDMDL
MODEL 5
REMARK VINA RESULT:      -6.0     26.533     30.021
REMARK  Name = 38030234
REMARK  13 active torsions:
REMARK  status: ('A' for Active; 'I' for Inactive)
REMARK    1  A    between atoms: N_3  and  C_14
REMARK    2  A    between atoms: N_3  and  C_20
REMARK    3  A    between atoms: N_6  and  C_21
REMARK    4  A    between atoms: C_7  and  C_11
REMARK    5  A    between atoms: C_8  and  C_14
REMARK    6  A    between atoms: C_10  and  C_15
REMARK    7  A    between atoms: C_11  and  C_16
REMARK    8  A    between atoms: C_11  and  C_17
REMARK    9  A    between atoms: C_12  and  C_18
REMARK   10  A    between atoms: C_15  and  C_19
REMARK   11  A    between atoms: C_20  and  C_21
REMARK   12  A    between atoms: C_22  and  C_23
REMARK   13  A    between atoms: C_24  and  C_27
REMARK                            x       y       z     vdW  Elec       q    Type
REMARK                         _______ _______ _______ _____ _____    ______ ____
ROOT
ATOM      7  C   UNL     1      -3.810 -12.037  12.275  0.00  0.00    +0.000 C 
ATOM      8  C   UNL     1      -2.850 -11.473  13.349  0.00  0.00    +0.029 C 
ATOM      9  C   UNL     1      -4.305 -10.915  11.352  0.00  0.00    +0.012 C 
ATOM     10  C   UNL     1      -3.161 -10.142  10.662  0.00  0.00    +0.024 C 
ATOM     12  C   UNL     1      -1.969  -9.900  11.577  0.00  0.00    -0.073 C 
ATOM     13  C   UNL     1      -1.855 -10.495  12.778  0.00  0.00    -0.023 C 
ATOM     18  C   UNL     1      -0.873  -9.004  11.068  0.00  0.00    +0.039 C 
ENDROOT
BRANCH   7  11
ATOM     11  C   UNL     1      -3.150 -13.166  11.472  0.00  0.00    -0.013 C 
ATOM     16  C   UNL     1      -4.156 -13.796  10.513  0.00  0.00    +0.007 C 
ATOM     17  C   UNL     1      -2.567 -14.217  12.411  0.00  0.00    +0.007 C 
ENDBRANCH   7  11
BRANCH   8  14
ATOM     14  C   UNL     1      -3.614 -10.804  14.496  0.00  0.00    +0.088 C 
BRANCH  14   3
ATOM      3  N   UNL     1      -4.700 -11.625  14.929  0.00  0.00    -0.314 NA
ATOM     31  H   UNL     1      -4.439 -12.147  15.765  0.00  0.00    +0.122 HD
BRANCH   3  20
ATOM     20  C   UNL     1      -5.910 -10.840  15.200  0.00  0.00    +0.099 C 
BRANCH  20  21
ATOM     21  C   UNL     1      -5.628  -9.780  16.253  0.00  0.00    +0.119 C 
BRANCH  21   6
ATOM      2  O   UNL     1      -4.052 -11.381  18.091  0.00  0.00    -0.276 OA
ATOM      6  N   UNL     1      -6.007 -10.232  17.563  0.00  0.00    -0.314 N 
ATOM     24  C   UNL     1      -5.184 -10.999  18.376  0.00  0.00    +0.210 C 
ATOM     27  C   UNL     1      -5.816 -11.313  19.706  0.00  0.00    +0.109 C 
ATOM     32  H   UNL     1      -6.922  -9.957  17.911  0.00  0.00    +0.149 HD
ENDBRANCH  21   6
ENDBRANCH  20  21
ENDBRANCH   3  20
ENDBRANCH  14   3
ENDBRANCH   8  14
BRANCH  10  15
ATOM     15  C   UNL     1      -3.732  -8.847  10.071  0.00  0.00    +0.105 C 
BRANCH  15  19
ATOM      1  O   UNL     1      -4.470  -9.881   7.987  0.00  0.00    -0.420 OA
ATOM      4  N   UNL     1      -6.074  -8.764   9.074  0.00  0.00    -0.112 NA
ATOM      5  N   UNL     1      -6.626  -9.293   7.922  0.00  0.00    -0.107 NA
ATOM     19  C   UNL     1      -4.815  -9.132   9.070  0.00  0.00    +0.218 A 
ATOM     22  C   UNL     1      -5.654  -9.937   7.320  0.00  0.00    +0.248 A 
BRANCH  22  23
ATOM     23  C   UNL     1      -5.648 -10.675   6.091  0.00  0.00    +0.038 A 
ATOM     25  C   UNL     1      -6.676 -10.495   5.163  0.00  0.00    +0.013 A 
ATOM     26  C   UNL     1      -4.617 -11.575   5.822  0.00  0.00    +0.013 A 
ATOM     28  C   UNL     1      -6.670 -11.212   3.968  0.00  0.00    +0.001 A 
ATOM     29  C   UNL     1      -4.612 -12.292   4.625  0.00  0.00    +0.001 A 
ATOM     30  C   UNL     1      -5.638 -12.112   3.699  0.00  0.00    +0.000 A 
ENDBRANCH  22  23
ENDBRANCH  15  19
ENDBRANCH  10  15
TORSDOF 9
ENDMDL
MODEL 6
REMARK VINA RESULT:      -6.0     26.701     29.446
REMARK  Name = 38030234
REMARK  13 active torsions:
REMARK  status: ('A' for Active; 'I' for Inactive)
REMARK    1  A    between atoms: N_3  and  C_14
REMARK    2  A    between atoms: N_3  and  C_20
REMARK    3  A    between atoms: N_6  and  C_21
REMARK    4  A    between atoms: C_7  and  C_11
REMARK    5  A    between atoms: C_8  and  C_14
REMARK    6  A    between atoms: C_10  and  C_15
REMARK    7  A    between atoms: C_11  and  C_16
REMARK    8  A    between atoms: C_11  and  C_17
REMARK    9  A    between atoms: C_12  and  C_18
REMARK   10  A    between atoms: C_15  and  C_19
REMARK   11  A    between atoms: C_20  and  C_21
REMARK   12  A    between atoms: C_22  and  C_23
REMARK   13  A    between atoms: C_24  and  C_27
REMARK                            x       y       z     vdW  Elec       q    Type
REMARK                         _______ _______ _______ _____ _____    ______ ____
ROOT
ATOM      7  C   UNL     1      -5.804 -10.565  10.639  0.00  0.00    +0.000 C 
ATOM      8  C   UNL     1      -5.044 -10.207   9.339  0.00  0.00    +0.029 C 
ATOM      9  C   UNL     1      -4.874 -11.284  11.625  0.00  0.00    +0.012 C 
ATOM     10  C   UNL     1      -3.608 -10.473  11.976  0.00  0.00    +0.024 C 
ATOM     12  C   UNL     1      -3.021  -9.738  10.780  0.00  0.00    -0.073 C 
ATOM     13  C   UNL     1      -3.674  -9.641   9.607  0.00  0.00    -0.023 C 
ATOM     18  C   UNL     1      -1.691  -9.060  10.965  0.00  0.00    +0.039 C 
ENDROOT
BRANCH   7  11
ATOM     11  C   UNL     1      -6.435  -9.320  11.278  0.00  0.00    -0.013 C 
ATOM     16  C   UNL     1      -6.999  -9.658  12.655  0.00  0.00    +0.007 C 
ATOM     17  C   UNL     1      -7.522  -8.749  10.373  0.00  0.00    +0.007 C 
ENDBRANCH   7  11
BRANCH   8  14
ATOM     14  C   UNL     1      -4.917 -11.417   8.407  0.00  0.00    +0.088 C 
BRANCH  14   3
ATOM      3  N   UNL     1      -4.851 -11.001   7.042  0.00  0.00    -0.314 NA
ATOM     31  H   UNL     1      -4.097 -11.489   6.559  0.00  0.00    +0.122 HD
BRANCH   3  20
ATOM     20  C   UNL     1      -6.115 -11.230   6.335  0.00  0.00    +0.099 C 
BRANCH  20  21
ATOM     21  C   UNL     1      -6.416 -10.070   5.399  0.00  0.00    +0.119 C 
BRANCH  21   6
ATOM      2  O   UNL     1      -9.008  -8.781   5.622  0.00  0.00    -0.276 OA
ATOM      6  N   UNL     1      -6.738  -8.878   6.133  0.00  0.00    -0.314 N 
ATOM     24  C   UNL     1      -8.012  -8.330   6.184  0.00  0.00    +0.210 C 
ATOM     27  C   UNL     1      -8.077  -7.096   7.045  0.00  0.00    +0.109 C 
ATOM     32  H   UNL     1      -5.989  -8.428   6.654  0.00  0.00    +0.149 HD
ENDBRANCH  21   6
ENDBRANCH  20  21
ENDBRANCH   3  20
ENDBRANCH  14   3
ENDBRANCH   8  14
BRANCH  10  15
ATOM     15  C   UNL     1      -2.600 -11.406  12.656  0.00  0.00    +0.105 C 
BRANCH  15  19
ATOM      1  O   UNL     1      -3.683 -11.216  14.835  0.00  0.00    -0.420 OA
ATOM      4  N   UNL     1      -1.477 -10.849  14.874  0.00  0.00    -0.112 NA
ATOM      5  N   UNL     1      -1.957 -10.711  16.163  0.00  0.00    -0.107 NA
ATOM     19  C   UNL     1      -2.520 -11.144  14.133  0.00  0.00    +0.218 A 
ATOM     22  C   UNL     1      -3.248 -10.933  16.092  0.00  0.00    +0.248 A 
BRANCH  22  23
ATOM     23  C   UNL     1      -4.251 -10.925  17.117  0.00  0.00    +0.038 A 
ATOM     25  C   UNL     1      -5.444 -10.226  16.920  0.00  0.00    +0.013 A 
ATOM     26  C   UNL     1      -4.036 -11.613  18.310  0.00  0.00    +0.013 A 
ATOM     28  C   UNL     1      -6.420 -10.218  17.915  0.00  0.00    +0.001 A 
ATOM     29  C   UNL     1      -5.013 -11.605  19.307  0.00  0.00    +0.001 A 
ATOM     30  C   UNL     1      -6.204 -10.907  19.109  0.00  0.00    +0.000 A 
ENDBRANCH  22  23
ENDBRANCH  15  19
ENDBRANCH  10  15
TORSDOF 9
ENDMDL
MODEL 7
REMARK VINA RESULT:      -5.9      2.223      7.267
REMARK  Name = 38030234
REMARK  13 active torsions:
REMARK  status: ('A' for Active; 'I' for Inactive)
REMARK    1  A    between atoms: N_3  and  C_14
REMARK    2  A    between atoms: N_3  and  C_20
REMARK    3  A    between atoms: N_6  and  C_21
REMARK    4  A    between atoms: C_7  and  C_11
REMARK    5  A    between atoms: C_8  and  C_14
REMARK    6  A    between atoms: C_10  and  C_15
REMARK    7  A    between atoms: C_11  and  C_16
REMARK    8  A    between atoms: C_11  and  C_17
REMARK    9  A    between atoms: C_12  and  C_18
REMARK   10  A    between atoms: C_15  and  C_19
REMARK   11  A    between atoms: C_20  and  C_21
REMARK   12  A    between atoms: C_22  and  C_23
REMARK   13  A    between atoms: C_24  and  C_27
REMARK                            x       y       z     vdW  Elec       q    Type
REMARK                         _______ _______ _______ _____ _____    ______ ____
ROOT
ATOM      7  C   UNL     1      12.815   7.606  21.323  0.00  0.00    +0.000 C 
ATOM      8  C   UNL     1      13.502   6.762  20.223  0.00  0.00    +0.029 C 
ATOM      9  C   UNL     1      13.101   9.099  21.113  0.00  0.00    +0.012 C 
ATOM     10  C   UNL     1      12.668   9.615  19.724  0.00  0.00    +0.024 C 
ATOM     12  C   UNL     1      12.953   8.625  18.605  0.00  0.00    -0.073 C 
ATOM     13  C   UNL     1      13.336   7.358  18.849  0.00  0.00    -0.023 C 
ATOM     18  C   UNL     1      12.737   9.092  17.192  0.00  0.00    +0.039 C 
ENDROOT
BRANCH   7  11
ATOM     11  C   UNL     1      11.306   7.332  21.377  0.00  0.00    -0.013 C 
ATOM     16  C   UNL     1      10.654   8.162  22.479  0.00  0.00    +0.007 C 
ATOM     17  C   UNL     1      11.042   5.845  21.593  0.00  0.00    +0.007 C 
ENDBRANCH   7  11
BRANCH   8  14
ATOM     14  C   UNL     1      14.993   6.564  20.511  0.00  0.00    +0.088 C 
BRANCH  14   3
ATOM      3  N   UNL     1      15.774   6.817  19.341  0.00  0.00    -0.314 NA
ATOM     31  H   UNL     1      15.801   7.817  19.143  0.00  0.00    +0.122 HD
BRANCH   3  20
ATOM     20  C   UNL     1      17.143   6.306  19.471  0.00  0.00    +0.099 C 
BRANCH  20  21
ATOM     21  C   UNL     1      17.634   6.466  20.901  0.00  0.00    +0.119 C 
BRANCH  21   6
ATOM      2  O   UNL     1      16.789   9.175  21.512  0.00  0.00    -0.276 OA
ATOM      6  N   UNL     1      18.466   7.630  21.039  0.00  0.00    -0.314 N 
ATOM     24  C   UNL     1      17.972   8.893  21.335  0.00  0.00    +0.210 C 
ATOM     27  C   UNL     1      19.060   9.927  21.448  0.00  0.00    +0.109 C 
ATOM     32  H   UNL     1      19.469   7.508  20.930  0.00  0.00    +0.149 HD
ENDBRANCH  21   6
ENDBRANCH  20  21
ENDBRANCH   3  20
ENDBRANCH  14   3
ENDBRANCH   8  14
BRANCH  10  15
ATOM     15  C   UNL     1      13.314  10.986  19.488  0.00  0.00    +0.105 C 
BRANCH  15  19
ATOM      1  O   UNL     1      11.939  12.458  20.866  0.00  0.00    -0.420 OA
ATOM      4  N   UNL     1      14.034  12.200  21.608  0.00  0.00    -0.112 NA
ATOM      5  N   UNL     1      13.374  13.050  22.476  0.00  0.00    -0.107 NA
ATOM     19  C   UNL     1      13.158  11.880  20.685  0.00  0.00    +0.218 A 
ATOM     22  C   UNL     1      12.156  13.172  22.004  0.00  0.00    +0.248 A 
BRANCH  22  23
ATOM     23  C   UNL     1      11.039  13.927  22.493  0.00  0.00    +0.038 A 
ATOM     25  C   UNL     1       9.968  14.216  21.647  0.00  0.00    +0.013 A 
ATOM     26  C   UNL     1      11.023  14.373  23.814  0.00  0.00    +0.013 A 
ATOM     28  C   UNL     1       8.882  14.949  22.122  0.00  0.00    +0.001 A 
ATOM     29  C   UNL     1       9.936  15.107  24.290  0.00  0.00    +0.001 A 
ATOM     30  C   UNL     1       8.866  15.395  23.444  0.00  0.00    +0.000 A 
ENDBRANCH  22  23
ENDBRANCH  15  19
ENDBRANCH  10  15
TORSDOF 9
ENDMDL
MODEL 8
REMARK VINA RESULT:      -5.9      2.134      6.596
REMARK  Name = 38030234
REMARK  13 active torsions:
REMARK  status: ('A' for Active; 'I' for Inactive)
REMARK    1  A    between atoms: N_3  and  C_14
REMARK    2  A    between atoms: N_3  and  C_20
REMARK    3  A    between atoms: N_6  and  C_21
REMARK    4  A    between atoms: C_7  and  C_11
REMARK    5  A    between atoms: C_8  and  C_14
REMARK    6  A    between atoms: C_10  and  C_15
REMARK    7  A    between atoms: C_11  and  C_16
REMARK    8  A    between atoms: C_11  and  C_17
REMARK    9  A    between atoms: C_12  and  C_18
REMARK   10  A    between atoms: C_15  and  C_19
REMARK   11  A    between atoms: C_20  and  C_21
REMARK   12  A    between atoms: C_22  and  C_23
REMARK   13  A    between atoms: C_24  and  C_27
REMARK                            x       y       z     vdW  Elec       q    Type
REMARK                         _______ _______ _______ _____ _____    ______ ____
ROOT
ATOM      7  C   UNL     1      13.905   8.679  19.414  0.00  0.00    +0.000 C 
ATOM      8  C   UNL     1      14.385   7.248  19.753  0.00  0.00    +0.029 C 
ATOM      9  C   UNL     1      14.383   9.674  20.480  0.00  0.00    +0.012 C 
ATOM     10  C   UNL     1      15.915   9.678  20.670  0.00  0.00    +0.024 C 
ATOM     12  C   UNL     1      16.527   8.287  20.605  0.00  0.00    -0.073 C 
ATOM     13  C   UNL     1      15.823   7.212  20.204  0.00  0.00    -0.023 C 
ATOM     18  C   UNL     1      17.984   8.151  20.952  0.00  0.00    +0.039 C 
ENDROOT
BRANCH   7  11
ATOM     11  C   UNL     1      14.363   9.105  18.012  0.00  0.00    -0.013 C 
ATOM     16  C   UNL     1      13.715  10.429  17.621  0.00  0.00    +0.007 C 
ATOM     17  C   UNL     1      14.034   8.019  16.992  0.00  0.00    +0.007 C 
ENDBRANCH   7  11
BRANCH   8  14
ATOM     14  C   UNL     1      13.505   6.595  20.824  0.00  0.00    +0.088 C 
BRANCH  14   3
ATOM      3  N   UNL     1      12.146   6.521  20.388  0.00  0.00    -0.314 NA
ATOM     31  H   UNL     1      12.073   5.936  19.555  0.00  0.00    +0.122 HD
BRANCH   3  20
ATOM     20  C   UNL     1      11.261   5.998  21.433  0.00  0.00    +0.099 C 
BRANCH  20  21
ATOM     21  C   UNL     1      10.283   7.071  21.885  0.00  0.00    +0.119 C 
BRANCH  21   6
ATOM      2  O   UNL     1      10.916   9.464  23.402  0.00  0.00    -0.276 OA
ATOM      6  N   UNL     1      10.650   8.361  21.368  0.00  0.00    -0.314 N 
ATOM     24  C   UNL     1      10.937   9.455  22.174  0.00  0.00    +0.210 C 
ATOM     27  C   UNL     1      11.318  10.675  21.377  0.00  0.00    +0.109 C 
ATOM     32  H   UNL     1      10.717   8.464  20.359  0.00  0.00    +0.149 HD
ENDBRANCH  21   6
ENDBRANCH  20  21
ENDBRANCH   3  20
ENDBRANCH  14   3
ENDBRANCH   8  14
BRANCH  10  15
ATOM     15  C   UNL     1      16.245  10.414  21.974  0.00  0.00    +0.105 C 
BRANCH  15  19
ATOM      1  O   UNL     1      14.381  11.606  23.003  0.00  0.00    -0.420 OA
ATOM      4  N   UNL     1      15.543  12.822  21.528  0.00  0.00    -0.112 NA
ATOM      5  N   UNL     1      14.526  13.614  22.029  0.00  0.00    -0.107 NA
ATOM     19  C   UNL     1      15.419  11.660  22.125  0.00  0.00    +0.218 A 
ATOM     22  C   UNL     1      13.874  12.864  22.886  0.00  0.00    +0.248 A 
BRANCH  22  23
ATOM     23  C   UNL     1      12.733  13.159  23.701  0.00  0.00    +0.038 A 
ATOM     25  C   UNL     1      12.322  12.254  24.681  0.00  0.00    +0.013 A 
ATOM     26  C   UNL     1      12.032  14.350  23.516  0.00  0.00    +0.013 A 
ATOM     28  C   UNL     1      11.212  12.541  25.475  0.00  0.00    +0.001 A 
ATOM     29  C   UNL     1      10.921  14.638  24.310  0.00  0.00    +0.001 A 
ATOM     30  C   UNL     1      10.511  13.733  25.289  0.00  0.00    +0.000 A 
ENDBRANCH  22  23
ENDBRANCH  15  19
ENDBRANCH  10  15
TORSDOF 9
ENDMDL
MODEL 9
REMARK VINA RESULT:      -5.9     27.699     29.629
REMARK  Name = 38030234
REMARK  13 active torsions:
REMARK  status: ('A' for Active; 'I' for Inactive)
REMARK    1  A    between atoms: N_3  and  C_14
REMARK    2  A    between atoms: N_3  and  C_20
REMARK    3  A    between atoms: N_6  and  C_21
REMARK    4  A    between atoms: C_7  and  C_11
REMARK    5  A    between atoms: C_8  and  C_14
REMARK    6  A    between atoms: C_10  and  C_15
REMARK    7  A    between atoms: C_11  and  C_16
REMARK    8  A    between atoms: C_11  and  C_17
REMARK    9  A    between atoms: C_12  and  C_18
REMARK   10  A    between atoms: C_15  and  C_19
REMARK   11  A    between atoms: C_20  and  C_21
REMARK   12  A    between atoms: C_22  and  C_23
REMARK   13  A    between atoms: C_24  and  C_27
REMARK                            x       y       z     vdW  Elec       q    Type
REMARK                         _______ _______ _______ _____ _____    ______ ____
ROOT
ATOM      7  C   UNL     1      -7.428 -12.271  17.189  0.00  0.00    +0.000 C 
ATOM      8  C   UNL     1      -7.492 -11.949  18.701  0.00  0.00    +0.029 C 
ATOM      9  C   UNL     1      -6.235 -11.559  16.537  0.00  0.00    +0.012 C 
ATOM     10  C   UNL     1      -4.882 -11.908  17.194  0.00  0.00    +0.024 C 
ATOM     12  C   UNL     1      -4.965 -12.013  18.709  0.00  0.00    -0.073 C 
ATOM     13  C   UNL     1      -6.140 -12.018  19.364  0.00  0.00    -0.023 C 
ATOM     18  C   UNL     1      -3.675 -12.172  19.467  0.00  0.00    +0.039 C 
ENDROOT
BRANCH   7  11
ATOM     11  C   UNL     1      -7.375 -13.785  16.941  0.00  0.00    -0.013 C 
ATOM     16  C   UNL     1      -7.467 -14.083  15.448  0.00  0.00    +0.007 C 
ATOM     17  C   UNL     1      -8.494 -14.488  17.703  0.00  0.00    +0.007 C 
ENDBRANCH   7  11
BRANCH   8  14
ATOM     14  C   UNL     1      -8.112 -10.572  18.961  0.00  0.00    +0.088 C 
BRANCH  14   3
ATOM      3  N   UNL     1      -9.088 -10.643  20.002  0.00  0.00    -0.314 NA
ATOM     31  H   UNL     1      -8.815 -10.049  20.785  0.00  0.00    +0.122 HD
BRANCH   3  20
ATOM     20  C   UNL     1     -10.422 -10.255  19.534  0.00  0.00    +0.099 C 
BRANCH  20  21
ATOM     21  C   UNL     1     -10.413 -10.038  18.029  0.00  0.00    +0.119 C 
BRANCH  21   6
ATOM      2  O   UNL     1      -9.261  -8.059  16.244  0.00  0.00    -0.276 OA
ATOM      6  N   UNL     1     -10.955  -8.753  17.684  0.00  0.00    -0.314 N 
ATOM     24  C   UNL     1     -10.331  -7.867  16.817  0.00  0.00    +0.210 C 
ATOM     27  C   UNL     1     -11.126  -6.605  16.610  0.00  0.00    +0.109 C 
ATOM     32  H   UNL     1     -11.851  -8.495  18.089  0.00  0.00    +0.149 HD
ENDBRANCH  21   6
ENDBRANCH  20  21
ENDBRANCH   3  20
ENDBRANCH  14   3
ENDBRANCH   8  14
BRANCH  10  15
ATOM     15  C   UNL     1      -3.833 -10.893  16.723  0.00  0.00    +0.105 C 
BRANCH  15  19
ATOM      1  O   UNL     1      -4.046 -10.290  14.367  0.00  0.00    -0.420 OA
ATOM      4  N   UNL     1      -2.651 -11.996  14.754  0.00  0.00    -0.112 NA
ATOM      5  N   UNL     1      -2.675 -11.763  13.392  0.00  0.00    -0.107 NA
ATOM     19  C   UNL     1      -3.465 -11.113  15.283  0.00  0.00    +0.218 A 
ATOM     22  C   UNL     1      -3.501 -10.760  13.212  0.00  0.00    +0.248 A 
BRANCH  22  23
ATOM     23  C   UNL     1      -3.912 -10.096  12.009  0.00  0.00    +0.038 A 
ATOM     25  C   UNL     1      -5.218  -9.621  11.886  0.00  0.00    +0.013 A 
ATOM     26  C   UNL     1      -3.006  -9.925  10.963  0.00  0.00    +0.013 A 
ATOM     28  C   UNL     1      -5.617  -8.975  10.717  0.00  0.00    +0.001 A 
ATOM     29  C   UNL     1      -3.406  -9.278   9.793  0.00  0.00    +0.001 A 
ATOM     30  C   UNL     1      -4.711  -8.803   9.670  0.00  0.00    +0.000 A 
ENDBRANCH  22  23
ENDBRANCH  15  19
ENDBRANCH  10  15
TORSDOF 9
ENDMDL
MODEL 10
REMARK VINA RESULT:      -5.8     24.995     28.174
REMARK  Name = 38030234
REMARK  13 active torsions:
REMARK  status: ('A' for Active; 'I' for Inactive)
REMARK    1  A    between atoms: N_3  and  C_14
REMARK    2  A    between atoms: N_3  and  C_20
REMARK    3  A    between atoms: N_6  and  C_21
REMARK    4  A    between atoms: C_7  and  C_11
REMARK    5  A    between atoms: C_8  and  C_14
REMARK    6  A    between atoms: C_10  and  C_15
REMARK    7  A    between atoms: C_11  and  C_16
REMARK    8  A    between atoms: C_11  and  C_17
REMARK    9  A    between atoms: C_12  and  C_18
REMARK   10  A    between atoms: C_15  and  C_19
REMARK   11  A    between atoms: C_20  and  C_21
REMARK   12  A    between atoms: C_22  and  C_23
REMARK   13  A    between atoms: C_24  and  C_27
REMARK                            x       y       z     vdW  Elec       q    Type
REMARK                         _______ _______ _______ _____ _____    ______ ____
ROOT
ATOM      7  C   UNL     1     -12.352   8.618  18.267  0.00  0.00    +0.000 C 
ATOM      8  C   UNL     1     -11.621   9.760  19.013  0.00  0.00    +0.029 C 
ATOM      9  C   UNL     1     -12.430   7.363  19.147  0.00  0.00    +0.012 C 
ATOM     10  C   UNL     1     -13.118   7.611  20.506  0.00  0.00    +0.024 C 
ATOM     12  C   UNL     1     -12.746   8.949  21.127  0.00  0.00    -0.073 C 
ATOM     13  C   UNL     1     -12.067   9.891  20.447  0.00  0.00    -0.023 C 
ATOM     18  C   UNL     1     -13.217   9.219  22.530  0.00  0.00    +0.039 C 
ENDROOT
BRANCH   7  11
ATOM     11  C   UNL     1     -13.747   9.057  17.801  0.00  0.00    -0.013 C 
ATOM     16  C   UNL     1     -14.289   8.086  16.757  0.00  0.00    +0.007 C 
ATOM     17  C   UNL     1     -13.700  10.477  17.247  0.00  0.00    +0.007 C 
ENDBRANCH   7  11
BRANCH   8  14
ATOM     14  C   UNL     1     -10.100   9.580  18.972  0.00  0.00    +0.088 C 
BRANCH  14   3
ATOM      3  N   UNL     1      -9.624   9.591  17.625  0.00  0.00    -0.314 NA
ATOM     31  H   UNL     1     -10.150   8.927  17.057  0.00  0.00    +0.122 HD
BRANCH   3  20
ATOM     20  C   UNL     1      -9.709  10.926  17.022  0.00  0.00    +0.099 C 
BRANCH  20  21
ATOM     21  C   UNL     1     -10.532  10.879  15.745  0.00  0.00    +0.119 C 
BRANCH  21   6
ATOM      2  O   UNL     1     -12.539   9.603  14.080  0.00  0.00    -0.276 OA
ATOM      6  N   UNL     1     -10.457   9.585  15.124  0.00  0.00    -0.314 N 
ATOM     24  C   UNL     1     -11.472   9.052  14.340  0.00  0.00    +0.210 C 
ATOM     27  C   UNL     1     -11.125   7.693  13.792  0.00  0.00    +0.109 C 
ATOM     32  H   UNL     1      -9.606   9.045  15.259  0.00  0.00    +0.149 HD
ENDBRANCH  21   6
ENDBRANCH  20  21
ENDBRANCH   3  20
ENDBRANCH  14   3
ENDBRANCH   8  14
BRANCH  10  15
ATOM     15  C   UNL     1     -12.823   6.422  21.429  0.00  0.00    +0.105 C 
BRANCH  15  19
ATOM      1  O   UNL     1     -14.303   5.503  23.138  0.00  0.00    -0.420 OA
ATOM      4  N   UNL     1     -15.029   5.208  21.043  0.00  0.00    -0.112 NA
ATOM      5  N   UNL     1     -15.956   4.644  21.900  0.00  0.00    -0.107 NA
ATOM     19  C   UNL     1     -14.083   5.697  21.809  0.00  0.00    +0.218 A 
ATOM     22  C   UNL     1     -15.491   4.840  23.111  0.00  0.00    +0.248 A 
BRANCH  22  23
ATOM     23  C   UNL     1     -16.032   4.470  24.387  0.00  0.00    +0.038 A 
ATOM     25  C   UNL     1     -15.705   3.236  24.952  0.00  0.00    +0.013 A 
ATOM     26  C   UNL     1     -16.885   5.341  25.063  0.00  0.00    +0.013 A 
ATOM     28  C   UNL     1     -16.230   2.876  26.192  0.00  0.00    +0.001 A 
ATOM     29  C   UNL     1     -17.410   4.981  26.304  0.00  0.00    +0.001 A 
ATOM     30  C   UNL     1     -17.084   3.748  26.869  0.00  0.00    +0.000 A 
ENDBRANCH  22  23
ENDBRANCH  15  19
ENDBRANCH  10  15
TORSDOF 9
ENDMDL
