REMARK  Name = 38027722
REMARK  14 active torsions:
REMARK  status: ('A' for Active; 'I' for Inactive)
REMARK    1  A    between atoms: S_1  and  N_6
REMARK    2  A    between atoms: S_1  and  C_21
REMARK    3  A    between atoms: O_5  and  C_28
REMARK    4  A    between atoms: O_5  and  C_29
REMARK    5  A    between atoms: N_6  and  C_15
REMARK    6  A    between atoms: N_7  and  C_22
REMARK    7  A    between atoms: C_8  and  C_12
REMARK    8  A    between atoms: C_9  and  C_15
REMARK    9  A    between atoms: C_11  and  C_16
REMARK   10  A    between atoms: C_12  and  C_17
REMARK   11  A    between atoms: C_12  and  C_18
REMARK   12  A    between atoms: C_13  and  C_19
REMARK   13  A    between atoms: C_16  and  C_20
REMARK   14  A    between atoms: C_22  and  C_23
REMARK                            x       y       z     vdW  Elec       q    Type
REMARK                         _______ _______ _______ _____ _____    ______ ____
ROOT
ATOM      8  C   UNL     1       1.448   0.111  -1.233  0.00  0.00    +0.000 C 
ATOM      9  C   UNL     1       2.983  -0.040  -1.377  0.00  0.00    +0.030 C 
ATOM     10  C   UNL     1       1.035   1.581  -1.404  0.00  0.00    +0.012 C 
ATOM     11  C   UNL     1       1.715   2.501  -0.372  0.00  0.00    +0.023 C 
ATOM     13  C   UNL     1       3.200   2.224  -0.263  0.00  0.00    -0.073 C 
ATOM     14  C   UNL     1       3.751   1.089  -0.729  0.00  0.00    -0.023 C 
ATOM     19  C   UNL     1       4.047   3.302   0.355  0.00  0.00    +0.039 C 
ENDROOT
BRANCH   8  12
ATOM     12  C   UNL     1       0.694  -0.760  -2.242  0.00  0.00    -0.013 C 
ATOM     17  C   UNL     1      -0.709  -1.073  -1.731  0.00  0.00    +0.007 C 
ATOM     18  C   UNL     1       0.633  -0.070  -3.601  0.00  0.00    +0.007 C 
ENDBRANCH   8  12
BRANCH   9  15
ATOM     15  C   UNL     1       3.464  -1.378  -0.805  0.00  0.00    +0.113 C 
BRANCH  15   6
ATOM      6  N   UNL     1       3.233  -1.391   0.648  0.00  0.00    -0.194 NA
ATOM     30  H   UNL     1       3.827  -0.732   1.169  0.00  0.00    +0.148 HD
BRANCH   6   1
ATOM      1  S   UNL     1       2.921  -2.877   1.431  0.00  0.00    +0.027 S 
ATOM      3  O   UNL     1       1.727  -3.484   0.874  0.00  0.00    -0.158 OA
ATOM      4  O   UNL     1       3.055  -2.682   2.862  0.00  0.00    -0.158 OA
ATOM     21  C   UNL     1       4.322  -3.830   0.891  0.00  0.00    +0.214 C 
ENDBRANCH   6   1
ENDBRANCH  15   6
ENDBRANCH   9  15
BRANCH  11  16
ATOM     16  C   UNL     1       1.034   2.393   0.997  0.00  0.00    +0.103 C 
BRANCH  16  20
ATOM      2  O   UNL     1      -0.973   3.395   0.090  0.00  0.00    -0.276 OA
ATOM      7  N   UNL     1      -1.136   1.924   1.883  0.00  0.00    -0.311 N 
ATOM     20  C   UNL     1      -0.454   2.645   0.913  0.00  0.00    +0.214 C 
ATOM     31  H   UNL     1      -0.618   1.327   2.520  0.00  0.00    +0.149 HD
BRANCH   7  22
ATOM     22  C   UNL     1      -2.572   1.974   2.038  0.00  0.00    +0.139 C 
BRANCH  22  23
ATOM     23  C   UNL     1      -3.263   0.928   1.213  0.00  0.00    -0.030 A 
ATOM     24  C   UNL     1      -4.190   1.306   0.241  0.00  0.00    +0.009 A 
ATOM     25  C   UNL     1      -2.977  -0.422   1.416  0.00  0.00    +0.009 A 
ATOM     26  C   UNL     1      -4.830   0.334  -0.528  0.00  0.00    +0.046 A 
ATOM     27  C   UNL     1      -3.618  -1.394   0.647  0.00  0.00    +0.046 A 
ATOM     28  C   UNL     1      -4.544  -1.016  -0.325  0.00  0.00    +0.120 A 
BRANCH  28   5
ATOM      5  O   UNL     1      -5.168  -1.964  -1.076  0.00  0.00    -0.495 OA
ATOM     29  C   UNL     1      -4.828  -3.325  -0.815  0.00  0.00    +0.277 C 
ENDBRANCH  28   5
ENDBRANCH  22  23
ENDBRANCH   7  22
ENDBRANCH  16  20
ENDBRANCH  11  16
TORSDOF 9
