MODEL 1
REMARK VINA RESULT:      -6.9      0.000      0.000
REMARK  Name = 45783710
REMARK  8 active torsions:
REMARK  status: ('A' for Active; 'I' for Inactive)
REMARK    1  A    between atoms: O_2  and  C_27
REMARK    2  A    between atoms: O_2  and  C_29
REMARK    3  A    between atoms: N_4  and  C_13
REMARK    4  A    between atoms: N_7  and  C_21
REMARK    5  A    between atoms: C_9  and  C_14
REMARK    6  A    between atoms: C_13  and  C_15
REMARK    7  A    between atoms: C_18  and  C_22
REMARK    8  A    between atoms: C_26  and  C_28
REMARK                            x       y       z     vdW  Elec       q    Type
REMARK                         _______ _______ _______ _____ _____    ______ ____
ROOT
ATOM      4  N   UNL     1      -2.887 -10.416  13.872  0.00  0.00    -0.287 NA
ATOM      9  C   UNL     1      -3.128 -11.166  15.121  0.00  0.00    +0.146 C 
ATOM     10  C   UNL     1      -2.014 -10.703  16.077  0.00  0.00    +0.030 C 
ATOM     11  C   UNL     1      -1.162  -9.742  15.261  0.00  0.00    +0.017 C 
ATOM     12  C   UNL     1      -1.451 -10.141  13.827  0.00  0.00    +0.085 C 
ENDROOT
BRANCH   9  14
ATOM      1  O   UNL     1      -4.892 -11.729  16.715  0.00  0.00    -0.336 OA
ATOM      5  N   UNL     1      -5.424 -10.064  15.315  0.00  0.00    -0.190 NA
ATOM      6  N   UNL     1      -6.192 -11.331  17.058  0.00  0.00    -0.056 NA
ATOM     14  C   UNL     1      -4.515 -10.932  15.682  0.00  0.00    +0.245 A 
ATOM     18  C   UNL     1      -6.434 -10.347  16.187  0.00  0.00    +0.204 A 
BRANCH  18  22
ATOM      8  N   UNL     1      -9.552  -8.786  14.894  0.00  0.00    -0.221 NA
ATOM     22  C   UNL     1      -7.673  -9.625  16.164  0.00  0.00    +0.041 A 
ATOM     23  C   UNL     1      -8.201  -9.071  17.324  0.00  0.00    +0.018 A 
ATOM     24  C   UNL     1      -8.381  -9.456  14.985  0.00  0.00    +0.126 A 
ATOM     25  C   UNL     1      -9.404  -8.375  17.271  0.00  0.00    +0.068 A 
ATOM     27  C   UNL     1     -10.034  -8.263  16.042  0.00  0.00    +0.214 A 
BRANCH  27   2
ATOM      2  O   UNL     1     -11.221  -7.581  15.964  0.00  0.00    -0.480 OA
ATOM     29  C   UNL     1     -11.139  -6.162  15.884  0.00  0.00    +0.279 C 
ENDBRANCH  27   2
ENDBRANCH  18  22
ENDBRANCH   9  14
BRANCH   4  13
ATOM     13  C   UNL     1      -3.348 -11.118  12.682  0.00  0.00    +0.120 C 
BRANCH  13  15
ATOM     15  C   UNL     1      -4.096 -10.205  11.747  0.00  0.00    -0.033 A 
ATOM     16  C   UNL     1      -3.531  -9.847  10.523  0.00  0.00    +0.007 A 
ATOM     17  C   UNL     1      -5.352  -9.716  12.103  0.00  0.00    +0.007 A 
ATOM     19  C   UNL     1      -4.222  -9.001   9.655  0.00  0.00    +0.023 A 
ATOM     20  C   UNL     1      -6.044  -8.870  11.237  0.00  0.00    +0.023 A 
ATOM     21  C   UNL     1      -5.479  -8.512  10.013  0.00  0.00    +0.033 A 
BRANCH  21   7
ATOM      3  O   UNL     1      -8.252  -8.735   8.864  0.00  0.00    -0.276 OA
ATOM      7  N   UNL     1      -6.171  -7.666   9.147  0.00  0.00    -0.286 N 
ATOM     26  C   UNL     1      -7.467  -7.819   8.639  0.00  0.00    +0.214 C 
ATOM     28  C   UNL     1      -7.852  -6.680   7.729  0.00  0.00    +0.109 C 
ATOM     30  H   UNL     1      -5.661  -6.835   8.851  0.00  0.00    +0.155 HD
ENDBRANCH  21   7
ENDBRANCH  13  15
ENDBRANCH   4  13
TORSDOF 6
ENDMDL
MODEL 2
REMARK VINA RESULT:      -6.8      2.378      2.921
REMARK  Name = 45783710
REMARK  8 active torsions:
REMARK  status: ('A' for Active; 'I' for Inactive)
REMARK    1  A    between atoms: O_2  and  C_27
REMARK    2  A    between atoms: O_2  and  C_29
REMARK    3  A    between atoms: N_4  and  C_13
REMARK    4  A    between atoms: N_7  and  C_21
REMARK    5  A    between atoms: C_9  and  C_14
REMARK    6  A    between atoms: C_13  and  C_15
REMARK    7  A    between atoms: C_18  and  C_22
REMARK    8  A    between atoms: C_26  and  C_28
REMARK                            x       y       z     vdW  Elec       q    Type
REMARK                         _______ _______ _______ _____ _____    ______ ____
ROOT
ATOM      4  N   UNL     1      -3.098 -10.507  14.094  0.00  0.00    -0.287 NA
ATOM      9  C   UNL     1      -3.234 -11.203  15.389  0.00  0.00    +0.146 C 
ATOM     10  C   UNL     1      -2.019 -10.740  16.212  0.00  0.00    +0.030 C 
ATOM     11  C   UNL     1      -1.227  -9.835  15.279  0.00  0.00    +0.017 C 
ATOM     12  C   UNL     1      -1.667 -10.277  13.897  0.00  0.00    +0.085 C 
ENDROOT
BRANCH   9  14
ATOM      1  O   UNL     1      -5.133  -9.716  15.777  0.00  0.00    -0.336 OA
ATOM      5  N   UNL     1      -5.229 -11.637  16.924  0.00  0.00    -0.190 NA
ATOM      6  N   UNL     1      -6.322  -9.668  16.518  0.00  0.00    -0.056 NA
ATOM     14  C   UNL     1      -4.552 -10.907  16.074  0.00  0.00    +0.245 A 
ATOM     18  C   UNL     1      -6.306 -10.836  17.167  0.00  0.00    +0.204 A 
BRANCH  18  22
ATOM      8  N   UNL     1      -9.572 -10.859  18.945  0.00  0.00    -0.221 NA
ATOM     22  C   UNL     1      -7.352 -11.233  18.065  0.00  0.00    +0.041 A 
ATOM     23  C   UNL     1      -7.196 -12.328  18.907  0.00  0.00    +0.018 A 
ATOM     24  C   UNL     1      -8.549 -10.538  18.122  0.00  0.00    +0.126 A 
ATOM     25  C   UNL     1      -8.226 -12.689  19.769  0.00  0.00    +0.068 A 
ATOM     27  C   UNL     1      -9.384 -11.929  19.749  0.00  0.00    +0.214 A 
BRANCH  27   2
ATOM      2  O   UNL     1     -10.414 -12.265  20.589  0.00  0.00    -0.480 OA
ATOM     29  C   UNL     1     -10.534 -13.640  20.935  0.00  0.00    +0.279 C 
ENDBRANCH  27   2
ENDBRANCH  18  22
ENDBRANCH   9  14
BRANCH   4  13
ATOM     13  C   UNL     1      -3.694 -11.238  12.984  0.00  0.00    +0.120 C 
BRANCH  13  15
ATOM     15  C   UNL     1      -4.363 -10.315  11.999  0.00  0.00    -0.033 A 
ATOM     16  C   UNL     1      -3.756 -10.048  10.772  0.00  0.00    +0.007 A 
ATOM     17  C   UNL     1      -5.588  -9.727  12.314  0.00  0.00    +0.007 A 
ATOM     19  C   UNL     1      -4.375  -9.193   9.859  0.00  0.00    +0.023 A 
ATOM     20  C   UNL     1      -6.207  -8.872  11.402  0.00  0.00    +0.023 A 
ATOM     21  C   UNL     1      -5.600  -8.605  10.175  0.00  0.00    +0.033 A 
BRANCH  21   7
ATOM      3  O   UNL     1      -8.310  -8.766   8.873  0.00  0.00    -0.276 OA
ATOM      7  N   UNL     1      -6.219  -7.750   9.264  0.00  0.00    -0.286 N 
ATOM     26  C   UNL     1      -7.489  -7.874   8.685  0.00  0.00    +0.214 C 
ATOM     28  C   UNL     1      -7.790  -6.734   7.745  0.00  0.00    +0.109 C 
ATOM     30  H   UNL     1      -5.671  -6.936   8.990  0.00  0.00    +0.155 HD
ENDBRANCH  21   7
ENDBRANCH  13  15
ENDBRANCH   4  13
TORSDOF 6
ENDMDL
MODEL 3
REMARK VINA RESULT:      -6.7     18.918     20.212
REMARK  Name = 45783710
REMARK  8 active torsions:
REMARK  status: ('A' for Active; 'I' for Inactive)
REMARK    1  A    between atoms: O_2  and  C_27
REMARK    2  A    between atoms: O_2  and  C_29
REMARK    3  A    between atoms: N_4  and  C_13
REMARK    4  A    between atoms: N_7  and  C_21
REMARK    5  A    between atoms: C_9  and  C_14
REMARK    6  A    between atoms: C_13  and  C_15
REMARK    7  A    between atoms: C_18  and  C_22
REMARK    8  A    between atoms: C_26  and  C_28
REMARK                            x       y       z     vdW  Elec       q    Type
REMARK                         _______ _______ _______ _____ _____    ______ ____
ROOT
ATOM      4  N   UNL     1     -14.942   6.030  21.359  0.00  0.00    -0.287 NA
ATOM      9  C   UNL     1     -16.200   5.973  22.131  0.00  0.00    +0.146 C 
ATOM     10  C   UNL     1     -17.312   6.155  21.083  0.00  0.00    +0.030 C 
ATOM     11  C   UNL     1     -16.584   6.368  19.762  0.00  0.00    +0.017 C 
ATOM     12  C   UNL     1     -15.215   6.862  20.187  0.00  0.00    +0.085 C 
ENDROOT
BRANCH   9  14
ATOM      1  O   UNL     1     -16.547   3.555  22.195  0.00  0.00    -0.336 OA
ATOM      5  N   UNL     1     -16.297   4.495  24.212  0.00  0.00    -0.190 NA
ATOM      6  N   UNL     1     -16.645   2.512  23.125  0.00  0.00    -0.056 NA
ATOM     14  C   UNL     1     -16.342   4.687  22.918  0.00  0.00    +0.245 A 
ATOM     18  C   UNL     1     -16.488   3.147  24.291  0.00  0.00    +0.204 A 
BRANCH  18  22
ATOM      8  N   UNL     1     -16.941   0.431  26.791  0.00  0.00    -0.221 NA
ATOM     22  C   UNL     1     -16.514   2.462  25.551  0.00  0.00    +0.041 A 
ATOM     23  C   UNL     1     -16.161   3.114  26.727  0.00  0.00    +0.018 A 
ATOM     24  C   UNL     1     -16.893   1.132  25.636  0.00  0.00    +0.126 A 
ATOM     25  C   UNL     1     -16.198   2.426  27.935  0.00  0.00    +0.068 A 
ATOM     27  C   UNL     1     -16.591   1.098  27.913  0.00  0.00    +0.214 A 
BRANCH  27   2
ATOM      2  O   UNL     1     -16.635   0.398  29.091  0.00  0.00    -0.480 OA
ATOM     29  C   UNL     1     -15.685   0.762  30.086  0.00  0.00    +0.279 C 
ENDBRANCH  27   2
ENDBRANCH  18  22
ENDBRANCH   9  14
BRANCH   4  13
ATOM     13  C   UNL     1     -13.814   6.528  22.134  0.00  0.00    +0.120 C 
BRANCH  13  15
ATOM     15  C   UNL     1     -12.959   7.475  21.334  0.00  0.00    -0.033 A 
ATOM     16  C   UNL     1     -12.014   6.975  20.439  0.00  0.00    +0.007 A 
ATOM     17  C   UNL     1     -13.112   8.853  21.489  0.00  0.00    +0.007 A 
ATOM     19  C   UNL     1     -11.222   7.852  19.698  0.00  0.00    +0.023 A 
ATOM     20  C   UNL     1     -12.320   9.731  20.749  0.00  0.00    +0.023 A 
ATOM     21  C   UNL     1     -11.375   9.230  19.854  0.00  0.00    +0.033 A 
BRANCH  21   7
ATOM      3  O   UNL     1     -11.980  10.751  17.327  0.00  0.00    -0.276 OA
ATOM      7  N   UNL     1     -10.583  10.108  19.113  0.00  0.00    -0.286 N 
ATOM     26  C   UNL     1     -10.916  10.792  17.936  0.00  0.00    +0.214 C 
ATOM     28  C   UNL     1      -9.777  11.650  17.445  0.00  0.00    +0.109 C 
ATOM     30  H   UNL     1      -9.647  10.265  19.482  0.00  0.00    +0.155 HD
ENDBRANCH  21   7
ENDBRANCH  13  15
ENDBRANCH   4  13
TORSDOF 6
ENDMDL
MODEL 4
REMARK VINA RESULT:      -6.7     18.927     21.718
REMARK  Name = 45783710
REMARK  8 active torsions:
REMARK  status: ('A' for Active; 'I' for Inactive)
REMARK    1  A    between atoms: O_2  and  C_27
REMARK    2  A    between atoms: O_2  and  C_29
REMARK    3  A    between atoms: N_4  and  C_13
REMARK    4  A    between atoms: N_7  and  C_21
REMARK    5  A    between atoms: C_9  and  C_14
REMARK    6  A    between atoms: C_13  and  C_15
REMARK    7  A    between atoms: C_18  and  C_22
REMARK    8  A    between atoms: C_26  and  C_28
REMARK                            x       y       z     vdW  Elec       q    Type
REMARK                         _______ _______ _______ _____ _____    ______ ____
ROOT
ATOM      4  N   UNL     1     -11.062   9.308  17.437  0.00  0.00    -0.287 NA
ATOM      9  C   UNL     1     -10.367  10.279  18.306  0.00  0.00    +0.146 C 
ATOM     10  C   UNL     1      -9.997  11.445  17.373  0.00  0.00    +0.030 C 
ATOM     11  C   UNL     1     -10.467  11.014  15.990  0.00  0.00    +0.017 C 
ATOM     12  C   UNL     1     -10.525   9.503  16.090  0.00  0.00    +0.085 C 
ENDROOT
BRANCH   9  14
ATOM      1  O   UNL     1     -12.122  11.699  19.241  0.00  0.00    -0.336 OA
ATOM      5  N   UNL     1     -11.207  10.287  20.719  0.00  0.00    -0.190 NA
ATOM      6  N   UNL     1     -12.777  11.930  20.458  0.00  0.00    -0.056 NA
ATOM     14  C   UNL     1     -11.215  10.717  19.482  0.00  0.00    +0.245 A 
ATOM     18  C   UNL     1     -12.181  11.060  21.279  0.00  0.00    +0.204 A 
BRANCH  18  22
ATOM      8  N   UNL     1     -14.099  10.153  24.333  0.00  0.00    -0.221 NA
ATOM     22  C   UNL     1     -12.537  10.937  22.663  0.00  0.00    +0.041 A 
ATOM     23  C   UNL     1     -11.719  11.454  23.661  0.00  0.00    +0.018 A 
ATOM     24  C   UNL     1     -13.706  10.301  23.048  0.00  0.00    +0.126 A 
ATOM     25  C   UNL     1     -12.090  11.322  24.995  0.00  0.00    +0.068 A 
ATOM     27  C   UNL     1     -13.279  10.668  25.275  0.00  0.00    +0.214 A 
BRANCH  27   2
ATOM      2  O   UNL     1     -13.666  10.525  26.582  0.00  0.00    -0.480 OA
ATOM     29  C   UNL     1     -15.055  10.327  26.820  0.00  0.00    +0.279 C 
ENDBRANCH  27   2
ENDBRANCH  18  22
ENDBRANCH   9  14
BRANCH   4  13
ATOM     13  C   UNL     1     -10.922   7.930  17.889  0.00  0.00    +0.120 C 
BRANCH  13  15
ATOM     15  C   UNL     1     -11.894   7.599  18.990  0.00  0.00    -0.033 A 
ATOM     16  C   UNL     1     -11.444   6.977  20.154  0.00  0.00    +0.007 A 
ATOM     17  C   UNL     1     -13.245   7.915  18.847  0.00  0.00    +0.007 A 
ATOM     19  C   UNL     1     -12.344   6.670  21.175  0.00  0.00    +0.023 A 
ATOM     20  C   UNL     1     -14.146   7.608  19.867  0.00  0.00    +0.023 A 
ATOM     21  C   UNL     1     -13.695   6.986  21.030  0.00  0.00    +0.033 A 
BRANCH  21   7
ATOM      3  O   UNL     1     -14.761   4.329  21.964  0.00  0.00    -0.276 OA
ATOM      7  N   UNL     1     -14.596   6.679  22.050  0.00  0.00    -0.286 N 
ATOM     26  C   UNL     1     -15.061   5.418  22.444  0.00  0.00    +0.214 C 
ATOM     28  C   UNL     1     -16.031   5.512  23.595  0.00  0.00    +0.109 C 
ATOM     30  H   UNL     1     -14.955   7.479  22.568  0.00  0.00    +0.155 HD
ENDBRANCH  21   7
ENDBRANCH  13  15
ENDBRANCH   4  13
TORSDOF 6
ENDMDL
MODEL 5
REMARK VINA RESULT:      -6.7      4.012      7.770
REMARK  Name = 45783710
REMARK  8 active torsions:
REMARK  status: ('A' for Active; 'I' for Inactive)
REMARK    1  A    between atoms: O_2  and  C_27
REMARK    2  A    between atoms: O_2  and  C_29
REMARK    3  A    between atoms: N_4  and  C_13
REMARK    4  A    between atoms: N_7  and  C_21
REMARK    5  A    between atoms: C_9  and  C_14
REMARK    6  A    between atoms: C_13  and  C_15
REMARK    7  A    between atoms: C_18  and  C_22
REMARK    8  A    between atoms: C_26  and  C_28
REMARK                            x       y       z     vdW  Elec       q    Type
REMARK                         _______ _______ _______ _____ _____    ______ ____
ROOT
ATOM      4  N   UNL     1     -11.297 -10.453  17.420  0.00  0.00    -0.287 NA
ATOM      9  C   UNL     1     -10.744 -11.424  18.386  0.00  0.00    +0.146 C 
ATOM     10  C   UNL     1     -11.084 -12.803  17.793  0.00  0.00    +0.030 C 
ATOM     11  C   UNL     1     -11.879 -12.508  16.529  0.00  0.00    +0.017 C 
ATOM     12  C   UNL     1     -12.427 -11.116  16.770  0.00  0.00    +0.085 C 
ENDROOT
BRANCH   9  14
ATOM      1  O   UNL     1      -8.874 -10.962  19.889  0.00  0.00    -0.336 OA
ATOM      5  N   UNL     1      -8.272 -11.296  17.758  0.00  0.00    -0.190 NA
ATOM      6  N   UNL     1      -7.479 -10.831  19.853  0.00  0.00    -0.056 NA
ATOM     14  C   UNL     1      -9.259 -11.235  18.616  0.00  0.00    +0.245 A 
ATOM     18  C   UNL     1      -7.200 -11.041  18.563  0.00  0.00    +0.204 A 
BRANCH  18  22
ATOM      8  N   UNL     1      -4.337 -10.307  16.306  0.00  0.00    -0.221 NA
ATOM     22  C   UNL     1      -5.862 -11.006  18.047  0.00  0.00    +0.041 A 
ATOM     23  C   UNL     1      -4.813 -11.605  18.735  0.00  0.00    +0.018 A 
ATOM     24  C   UNL     1      -5.575 -10.375  16.848  0.00  0.00    +0.126 A 
ATOM     25  C   UNL     1      -3.527 -11.557  18.209  0.00  0.00    +0.068 A 
ATOM     27  C   UNL     1      -3.344 -10.901  17.003  0.00  0.00    +0.214 A 
BRANCH  27   2
ATOM      2  O   UNL     1      -2.084 -10.840  16.465  0.00  0.00    -0.480 OA
ATOM     29  C   UNL     1      -1.999 -10.715  15.050  0.00  0.00    +0.279 C 
ENDBRANCH  27   2
ENDBRANCH  18  22
ENDBRANCH   9  14
BRANCH   4  13
ATOM     13  C   UNL     1     -11.681  -9.188  18.033  0.00  0.00    +0.120 C 
BRANCH  13  15
ATOM     15  C   UNL     1     -11.748  -8.073  17.022  0.00  0.00    -0.033 A 
ATOM     16  C   UNL     1     -10.579  -7.426  16.620  0.00  0.00    +0.007 A 
ATOM     17  C   UNL     1     -12.977  -7.688  16.488  0.00  0.00    +0.007 A 
ATOM     19  C   UNL     1     -10.640  -6.393  15.684  0.00  0.00    +0.023 A 
ATOM     20  C   UNL     1     -13.039  -6.655  15.552  0.00  0.00    +0.023 A 
ATOM     21  C   UNL     1     -11.870  -6.008  15.151  0.00  0.00    +0.033 A 
BRANCH  21   7
ATOM      3  O   UNL     1     -12.513  -6.070  12.210  0.00  0.00    -0.276 OA
ATOM      7  N   UNL     1     -11.932  -4.975  14.215  0.00  0.00    -0.286 N 
ATOM     26  C   UNL     1     -12.237  -5.061  12.851  0.00  0.00    +0.214 C 
ATOM     28  C   UNL     1     -12.199  -3.709  12.182  0.00  0.00    +0.109 C 
ATOM     30  H   UNL     1     -11.728  -4.046  14.579  0.00  0.00    +0.155 HD
ENDBRANCH  21   7
ENDBRANCH  13  15
ENDBRANCH   4  13
TORSDOF 6
ENDMDL
MODEL 6
REMARK VINA RESULT:      -6.6     24.508     27.126
REMARK  Name = 45783710
REMARK  8 active torsions:
REMARK  status: ('A' for Active; 'I' for Inactive)
REMARK    1  A    between atoms: O_2  and  C_27
REMARK    2  A    between atoms: O_2  and  C_29
REMARK    3  A    between atoms: N_4  and  C_13
REMARK    4  A    between atoms: N_7  and  C_21
REMARK    5  A    between atoms: C_9  and  C_14
REMARK    6  A    between atoms: C_13  and  C_15
REMARK    7  A    between atoms: C_18  and  C_22
REMARK    8  A    between atoms: C_26  and  C_28
REMARK                            x       y       z     vdW  Elec       q    Type
REMARK                         _______ _______ _______ _____ _____    ______ ____
ROOT
ATOM      4  N   UNL     1      10.209   5.292   6.171  0.00  0.00    -0.287 NA
ATOM      9  C   UNL     1       9.947   6.449   7.051  0.00  0.00    +0.146 C 
ATOM     10  C   UNL     1       9.815   5.847   8.461  0.00  0.00    +0.030 C 
ATOM     11  C   UNL     1       9.956   4.344   8.268  0.00  0.00    +0.017 C 
ATOM     12  C   UNL     1       9.583   4.136   6.813  0.00  0.00    +0.085 C 
ENDROOT
BRANCH   9  14
ATOM      1  O   UNL     1      10.641   8.790   7.161  0.00  0.00    -0.336 OA
ATOM      5  N   UNL     1      12.309   7.362   6.721  0.00  0.00    -0.190 NA
ATOM      6  N   UNL     1      11.798   9.570   7.033  0.00  0.00    -0.056 NA
ATOM     14  C   UNL     1      11.030   7.504   6.963  0.00  0.00    +0.245 A 
ATOM     18  C   UNL     1      12.737   8.657   6.774  0.00  0.00    +0.204 A 
BRANCH  18  22
ATOM      8  N   UNL     1      15.836  10.700   6.541  0.00  0.00    -0.221 NA
ATOM     22  C   UNL     1      14.113   9.003   6.565  0.00  0.00    +0.041 A 
ATOM     23  C   UNL     1      15.046   8.042   6.194  0.00  0.00    +0.018 A 
ATOM     24  C   UNL     1      14.555  10.307   6.724  0.00  0.00    +0.126 A 
ATOM     25  C   UNL     1      16.373   8.407   5.996  0.00  0.00    +0.068 A 
ATOM     27  C   UNL     1      16.713   9.737   6.181  0.00  0.00    +0.214 A 
BRANCH  27   2
ATOM      2  O   UNL     1      18.016  10.122   5.992  0.00  0.00    -0.480 OA
ATOM     29  C   UNL     1      18.891   9.157   5.421  0.00  0.00    +0.279 C 
ENDBRANCH  27   2
ENDBRANCH  18  22
ENDBRANCH   9  14
BRANCH   4  13
ATOM     13  C   UNL     1       9.733   5.487   4.809  0.00  0.00    +0.120 C 
BRANCH  13  15
ATOM     15  C   UNL     1      10.833   5.301   3.798  0.00  0.00    -0.033 A 
ATOM     16  C   UNL     1      11.733   6.338   3.549  0.00  0.00    +0.007 A 
ATOM     17  C   UNL     1      10.954   4.093   3.111  0.00  0.00    +0.007 A 
ATOM     19  C   UNL     1      12.753   6.167   2.613  0.00  0.00    +0.023 A 
ATOM     20  C   UNL     1      11.974   3.922   2.174  0.00  0.00    +0.023 A 
ATOM     21  C   UNL     1      12.873   4.959   1.926  0.00  0.00    +0.033 A 
BRANCH  21   7
ATOM      3  O   UNL     1      15.253   3.114   1.943  0.00  0.00    -0.276 OA
ATOM      7  N   UNL     1      13.893   4.787   0.990  0.00  0.00    -0.286 N 
ATOM     26  C   UNL     1      14.984   3.910   1.049  0.00  0.00    +0.214 C 
ATOM     28  C   UNL     1      15.864   4.027  -0.170  0.00  0.00    +0.109 C 
ATOM     30  H   UNL     1      13.828   5.377   0.163  0.00  0.00    +0.155 HD
ENDBRANCH  21   7
ENDBRANCH  13  15
ENDBRANCH   4  13
TORSDOF 6
ENDMDL
MODEL 7
REMARK VINA RESULT:      -6.4     23.263     25.383
REMARK  Name = 45783710
REMARK  8 active torsions:
REMARK  status: ('A' for Active; 'I' for Inactive)
REMARK    1  A    between atoms: O_2  and  C_27
REMARK    2  A    between atoms: O_2  and  C_29
REMARK    3  A    between atoms: N_4  and  C_13
REMARK    4  A    between atoms: N_7  and  C_21
REMARK    5  A    between atoms: C_9  and  C_14
REMARK    6  A    between atoms: C_13  and  C_15
REMARK    7  A    between atoms: C_18  and  C_22
REMARK    8  A    between atoms: C_26  and  C_28
REMARK                            x       y       z     vdW  Elec       q    Type
REMARK                         _______ _______ _______ _____ _____    ______ ____
ROOT
ATOM      4  N   UNL     1       9.413   7.775   6.209  0.00  0.00    -0.287 NA
ATOM      9  C   UNL     1      10.538   6.831   6.362  0.00  0.00    +0.146 C 
ATOM     10  C   UNL     1      10.316   6.176   7.737  0.00  0.00    +0.030 C 
ATOM     11  C   UNL     1       9.079   6.857   8.307  0.00  0.00    +0.017 C 
ATOM     12  C   UNL     1       9.023   8.175   7.561  0.00  0.00    +0.085 C 
ENDROOT
BRANCH   9  14
ATOM      1  O   UNL     1      10.027   4.615   5.470  0.00  0.00    -0.336 OA
ATOM      5  N   UNL     1      11.151   5.934   4.050  0.00  0.00    -0.190 NA
ATOM      6  N   UNL     1      10.215   3.861   4.303  0.00  0.00    -0.056 NA
ATOM     14  C   UNL     1      10.607   5.821   5.236  0.00  0.00    +0.245 A 
ATOM     18  C   UNL     1      10.885   4.707   3.515  0.00  0.00    +0.204 A 
BRANCH  18  22
ATOM      8  N   UNL     1      10.735   4.057  -0.143  0.00  0.00    -0.221 NA
ATOM     22  C   UNL     1      11.302   4.359   2.188  0.00  0.00    +0.041 A 
ATOM     23  C   UNL     1      12.616   3.993   1.923  0.00  0.00    +0.018 A 
ATOM     24  C   UNL     1      10.407   4.375   1.130  0.00  0.00    +0.126 A 
ATOM     25  C   UNL     1      12.992   3.659   0.626  0.00  0.00    +0.068 A 
ATOM     27  C   UNL     1      12.022   3.707  -0.362  0.00  0.00    +0.214 A 
BRANCH  27   2
ATOM      2  O   UNL     1      12.367   3.382  -1.649  0.00  0.00    -0.480 OA
ATOM     29  C   UNL     1      11.456   2.557  -2.366  0.00  0.00    +0.279 C 
ENDBRANCH  27   2
ENDBRANCH  18  22
ENDBRANCH   9  14
BRANCH   4  13
ATOM     13  C   UNL     1       9.735   8.921   5.369  0.00  0.00    +0.120 C 
BRANCH  13  15
ATOM     15  C   UNL     1       8.733   9.102   4.259  0.00  0.00    -0.033 A 
ATOM     16  C   UNL     1       9.033   8.657   2.971  0.00  0.00    +0.007 A 
ATOM     17  C   UNL     1       7.507   9.713   4.517  0.00  0.00    +0.007 A 
ATOM     19  C   UNL     1       8.106   8.824   1.942  0.00  0.00    +0.023 A 
ATOM     20  C   UNL     1       6.579   9.880   3.489  0.00  0.00    +0.023 A 
ATOM     21  C   UNL     1       6.880   9.436   2.201  0.00  0.00    +0.033 A 
BRANCH  21   7
ATOM      3  O   UNL     1       3.884   9.721   2.297  0.00  0.00    -0.276 OA
ATOM      7  N   UNL     1       5.952   9.603   1.173  0.00  0.00    -0.286 N 
ATOM     26  C   UNL     1       4.561   9.730   1.274  0.00  0.00    +0.214 C 
ATOM     28  C   UNL     1       3.913   9.896  -0.078  0.00  0.00    +0.109 C 
ATOM     30  H   UNL     1       6.346   9.635   0.234  0.00  0.00    +0.155 HD
ENDBRANCH  21   7
ENDBRANCH  13  15
ENDBRANCH   4  13
TORSDOF 6
ENDMDL
MODEL 8
REMARK VINA RESULT:      -6.4      2.163      6.821
REMARK  Name = 45783710
REMARK  8 active torsions:
REMARK  status: ('A' for Active; 'I' for Inactive)
REMARK    1  A    between atoms: O_2  and  C_27
REMARK    2  A    between atoms: O_2  and  C_29
REMARK    3  A    between atoms: N_4  and  C_13
REMARK    4  A    between atoms: N_7  and  C_21
REMARK    5  A    between atoms: C_9  and  C_14
REMARK    6  A    between atoms: C_13  and  C_15
REMARK    7  A    between atoms: C_18  and  C_22
REMARK    8  A    between atoms: C_26  and  C_28
REMARK                            x       y       z     vdW  Elec       q    Type
REMARK                         _______ _______ _______ _____ _____    ______ ____
ROOT
ATOM      4  N   UNL     1      -7.516 -10.690  17.732  0.00  0.00    -0.287 NA
ATOM      9  C   UNL     1      -6.139 -11.055  18.120  0.00  0.00    +0.146 C 
ATOM     10  C   UNL     1      -6.259 -12.476  18.699  0.00  0.00    +0.030 C 
ATOM     11  C   UNL     1      -7.746 -12.801  18.652  0.00  0.00    +0.017 C 
ATOM     12  C   UNL     1      -8.407 -11.438  18.619  0.00  0.00    +0.085 C 
ENDROOT
BRANCH   9  14
ATOM      1  O   UNL     1      -3.868 -11.253  17.241  0.00  0.00    -0.336 OA
ATOM      5  N   UNL     1      -5.394 -10.675  15.707  0.00  0.00    -0.190 NA
ATOM      6  N   UNL     1      -3.172 -11.117  16.031  0.00  0.00    -0.056 NA
ATOM     14  C   UNL     1      -5.168 -10.976  16.961  0.00  0.00    +0.245 A 
ATOM     18  C   UNL     1      -4.141 -10.775  15.176  0.00  0.00    +0.204 A 
BRANCH  18  22
ATOM      8  N   UNL     1      -4.749  -9.936  11.605  0.00  0.00    -0.221 NA
ATOM     22  C   UNL     1      -3.890 -10.527  13.786  0.00  0.00    +0.041 A 
ATOM     23  C   UNL     1      -2.607 -10.630  13.260  0.00  0.00    +0.018 A 
ATOM     24  C   UNL     1      -4.918 -10.180  12.924  0.00  0.00    +0.126 A 
ATOM     25  C   UNL     1      -2.394 -10.386  11.908  0.00  0.00    +0.068 A 
ATOM     27  C   UNL     1      -3.489 -10.045  11.131  0.00  0.00    +0.214 A 
BRANCH  27   2
ATOM      2  O   UNL     1      -3.304  -9.800   9.794  0.00  0.00    -0.480 OA
ATOM     29  C   UNL     1      -4.317  -9.046   9.137  0.00  0.00    +0.279 C 
ENDBRANCH  27   2
ENDBRANCH  18  22
ENDBRANCH   9  14
BRANCH   4  13
ATOM     13  C   UNL     1      -7.767  -9.256  17.785  0.00  0.00    +0.120 C 
BRANCH  13  15
ATOM     15  C   UNL     1      -8.909  -8.853  16.890  0.00  0.00    -0.033 A 
ATOM     16  C   UNL     1      -9.941  -8.059  17.392  0.00  0.00    +0.007 A 
ATOM     17  C   UNL     1      -8.937  -9.272  15.560  0.00  0.00    +0.007 A 
ATOM     19  C   UNL     1     -11.000  -7.685  16.564  0.00  0.00    +0.023 A 
ATOM     20  C   UNL     1      -9.995  -8.899  14.732  0.00  0.00    +0.023 A 
ATOM     21  C   UNL     1     -11.026  -8.106  15.235  0.00  0.00    +0.033 A 
BRANCH  21   7
ATOM      3  O   UNL     1     -11.776  -5.414  14.113  0.00  0.00    -0.276 OA
ATOM      7  N   UNL     1     -12.085  -7.732  14.406  0.00  0.00    -0.286 N 
ATOM     26  C   UNL     1     -12.390  -6.457  13.912  0.00  0.00    +0.214 C 
ATOM     28  C   UNL     1     -13.623  -6.472  13.044  0.00  0.00    +0.109 C 
ATOM     30  H   UNL     1     -12.709  -8.488  14.131  0.00  0.00    +0.155 HD
ENDBRANCH  21   7
ENDBRANCH  13  15
ENDBRANCH   4  13
TORSDOF 6
ENDMDL
MODEL 9
REMARK VINA RESULT:      -6.3      3.851      7.242
REMARK  Name = 45783710
REMARK  8 active torsions:
REMARK  status: ('A' for Active; 'I' for Inactive)
REMARK    1  A    between atoms: O_2  and  C_27
REMARK    2  A    between atoms: O_2  and  C_29
REMARK    3  A    between atoms: N_4  and  C_13
REMARK    4  A    between atoms: N_7  and  C_21
REMARK    5  A    between atoms: C_9  and  C_14
REMARK    6  A    between atoms: C_13  and  C_15
REMARK    7  A    between atoms: C_18  and  C_22
REMARK    8  A    between atoms: C_26  and  C_28
REMARK                            x       y       z     vdW  Elec       q    Type
REMARK                         _______ _______ _______ _____ _____    ______ ____
ROOT
ATOM      4  N   UNL     1      -9.324 -10.683  18.290  0.00  0.00    -0.287 NA
ATOM      9  C   UNL     1     -10.699 -10.316  17.896  0.00  0.00    +0.146 C 
ATOM     10  C   UNL     1     -11.426 -10.036  19.223  0.00  0.00    +0.030 C 
ATOM     11  C   UNL     1     -10.400 -10.330  20.309  0.00  0.00    +0.017 C 
ATOM     12  C   UNL     1      -9.421 -11.266  19.628  0.00  0.00    +0.085 C 
ENDROOT
BRANCH   9  14
ATOM      1  O   UNL     1      -9.706  -8.255  17.037  0.00  0.00    -0.336 OA
ATOM      5  N   UNL     1     -11.627  -8.827  16.039  0.00  0.00    -0.190 NA
ATOM      6  N   UNL     1      -9.956  -7.265  16.076  0.00  0.00    -0.056 NA
ATOM     14  C   UNL     1     -10.736  -9.135  16.948  0.00  0.00    +0.245 A 
ATOM     18  C   UNL     1     -11.106  -7.673  15.532  0.00  0.00    +0.204 A 
BRANCH  18  22
ATOM      8  N   UNL     1     -12.579  -4.848  13.614  0.00  0.00    -0.221 NA
ATOM     22  C   UNL     1     -11.758  -6.952  14.477  0.00  0.00    +0.041 A 
ATOM     23  C   UNL     1     -12.201  -7.603  13.331  0.00  0.00    +0.018 A 
ATOM     24  C   UNL     1     -11.969  -5.585  14.569  0.00  0.00    +0.126 A 
ATOM     25  C   UNL     1     -12.832  -6.878  12.327  0.00  0.00    +0.068 A 
ATOM     27  C   UNL     1     -12.994  -5.515  12.515  0.00  0.00    +0.214 A 
BRANCH  27   2
ATOM      2  O   UNL     1     -13.614  -4.779  11.538  0.00  0.00    -0.480 OA
ATOM     29  C   UNL     1     -13.211  -3.420  11.409  0.00  0.00    +0.279 C 
ENDBRANCH  27   2
ENDBRANCH  18  22
ENDBRANCH   9  14
BRANCH   4  13
ATOM     13  C   UNL     1      -8.676 -11.583  17.345  0.00  0.00    +0.120 C 
BRANCH  13  15
ATOM     15  C   UNL     1      -7.252 -11.177  17.071  0.00  0.00    -0.033 A 
ATOM     16  C   UNL     1      -6.223 -11.652  17.883  0.00  0.00    +0.007 A 
ATOM     17  C   UNL     1      -6.962 -10.326  16.004  0.00  0.00    +0.007 A 
ATOM     19  C   UNL     1      -4.903 -11.277  17.630  0.00  0.00    +0.023 A 
ATOM     20  C   UNL     1      -5.642  -9.950  15.750  0.00  0.00    +0.023 A 
ATOM     21  C   UNL     1      -4.614 -10.426  16.563  0.00  0.00    +0.033 A 
BRANCH  21   7
ATOM      3  O   UNL     1      -2.458 -11.807  14.980  0.00  0.00    -0.276 OA
ATOM      7  N   UNL     1      -3.295 -10.049  16.309  0.00  0.00    -0.286 N 
ATOM     26  C   UNL     1      -2.328 -10.735  15.562  0.00  0.00    +0.214 C 
ATOM     28  C   UNL     1      -1.017  -9.990  15.525  0.00  0.00    +0.109 C 
ATOM     30  H   UNL     1      -3.008  -9.164  16.723  0.00  0.00    +0.155 HD
ENDBRANCH  21   7
ENDBRANCH  13  15
ENDBRANCH   4  13
TORSDOF 6
ENDMDL
MODEL 10
REMARK VINA RESULT:      -6.3     24.339     27.363
REMARK  Name = 45783710
REMARK  8 active torsions:
REMARK  status: ('A' for Active; 'I' for Inactive)
REMARK    1  A    between atoms: O_2  and  C_27
REMARK    2  A    between atoms: O_2  and  C_29
REMARK    3  A    between atoms: N_4  and  C_13
REMARK    4  A    between atoms: N_7  and  C_21
REMARK    5  A    between atoms: C_9  and  C_14
REMARK    6  A    between atoms: C_13  and  C_15
REMARK    7  A    between atoms: C_18  and  C_22
REMARK    8  A    between atoms: C_26  and  C_28
REMARK                            x       y       z     vdW  Elec       q    Type
REMARK                         _______ _______ _______ _____ _____    ______ ____
ROOT
ATOM      4  N   UNL     1      10.036   8.272   6.073  0.00  0.00    -0.287 NA
ATOM      9  C   UNL     1       9.210   7.097   5.728  0.00  0.00    +0.146 C 
ATOM     10  C   UNL     1       7.965   7.683   5.039  0.00  0.00    +0.030 C 
ATOM     11  C   UNL     1       8.150   9.193   5.097  0.00  0.00    +0.017 C 
ATOM     12  C   UNL     1       9.109   9.389   6.255  0.00  0.00    +0.085 C 
ENDROOT
BRANCH   9  14
ATOM      1  O   UNL     1       9.707   4.789   5.100  0.00  0.00    -0.336 OA
ATOM      5  N   UNL     1      10.799   6.321   3.885  0.00  0.00    -0.190 NA
ATOM      6  N   UNL     1      10.490   4.074   4.183  0.00  0.00    -0.056 NA
ATOM     14  C   UNL     1       9.948   6.103   4.856  0.00  0.00    +0.245 A 
ATOM     18  C   UNL     1      11.103   5.047   3.504  0.00  0.00    +0.204 A 
BRANCH  18  22
ATOM      8  N   UNL     1      13.594   5.625   0.804  0.00  0.00    -0.221 NA
ATOM     22  C   UNL     1      12.025   4.780   2.437  0.00  0.00    +0.041 A 
ATOM     23  C   UNL     1      12.253   3.482   1.996  0.00  0.00    +0.018 A 
ATOM     24  C   UNL     1      12.714   5.808   1.814  0.00  0.00    +0.126 A 
ATOM     25  C   UNL     1      13.151   3.254   0.959  0.00  0.00    +0.068 A 
ATOM     27  C   UNL     1      13.790   4.350   0.402  0.00  0.00    +0.214 A 
BRANCH  27   2
ATOM      2  O   UNL     1      14.680   4.150  -0.622  0.00  0.00    -0.480 OA
ATOM     29  C   UNL     1      16.055   4.367  -0.326  0.00  0.00    +0.279 C 
ENDBRANCH  27   2
ENDBRANCH  18  22
ENDBRANCH   9  14
BRANCH   4  13
ATOM     13  C   UNL     1      10.875   8.060   7.245  0.00  0.00    +0.120 C 
BRANCH  13  15
ATOM     15  C   UNL     1      12.340   8.135   6.906  0.00  0.00    -0.033 A 
ATOM     16  C   UNL     1      13.119   6.978   6.921  0.00  0.00    +0.007 A 
ATOM     17  C   UNL     1      12.919   9.361   6.578  0.00  0.00    +0.007 A 
ATOM     19  C   UNL     1      14.477   7.047   6.608  0.00  0.00    +0.023 A 
ATOM     20  C   UNL     1      14.277   9.431   6.264  0.00  0.00    +0.023 A 
ATOM     21  C   UNL     1      15.055   8.273   6.280  0.00  0.00    +0.033 A 
BRANCH  21   7
ATOM      3  O   UNL     1      16.445   8.321   3.609  0.00  0.00    -0.276 OA
ATOM      7  N   UNL     1      16.413   8.343   5.966  0.00  0.00    -0.286 N 
ATOM     26  C   UNL     1      17.009   8.361   4.698  0.00  0.00    +0.214 C 
ATOM     28  C   UNL     1      18.512   8.444   4.787  0.00  0.00    +0.109 C 
ATOM     30  H   UNL     1      17.042   8.386   6.766  0.00  0.00    +0.155 HD
ENDBRANCH  21   7
ENDBRANCH  13  15
ENDBRANCH   4  13
TORSDOF 6
ENDMDL
