MODEL 1
REMARK VINA RESULT:      -8.0      0.000      0.000
REMARK  Name = 11912767
REMARK  5 active torsions:
REMARK  status: ('A' for Active; 'I' for Inactive)
REMARK    1  A    between atoms: O_3  and  C_14
REMARK    2  A    between atoms: O_3  and  C_18
REMARK    3  A    between atoms: N_7  and  C_13
REMARK    4  A    between atoms: N_10  and  C_23
REMARK    5  A    between atoms: C_19  and  C_22
REMARK                            x       y       z     vdW  Elec       q    Type
REMARK                         _______ _______ _______ _____ _____    ______ ____
ROOT
ATOM      1  O   UNL     1      -5.377  -9.043  10.314  0.00  0.00    -0.368 OA
ATOM      2  O   UNL     1      -6.587 -11.812  10.848  0.00  0.00    -0.368 OA
ATOM     11  C   UNL     1      -5.228 -11.331  10.921  0.00  0.00    +0.173 C 
ATOM     12  C   UNL     1      -5.052 -10.340   9.788  0.00  0.00    +0.192 C 
ATOM     13  C   UNL     1      -5.041 -10.497  12.167  0.00  0.00    +0.130 C 
ATOM     14  C   UNL     1      -6.076 -10.808   8.781  0.00  0.00    +0.235 C 
ATOM     15  C   UNL     1      -5.571  -9.141  11.733  0.00  0.00    +0.185 C 
ATOM     16  C   UNL     1      -7.207 -11.273   9.671  0.00  0.00    +0.207 C 
ENDROOT
BRANCH  13   7
ATOM      7  N   UNL     1      -3.636 -10.402  12.502  0.00  0.00    -0.306 N 
ATOM      8  N   UNL     1      -4.051 -10.679  14.795  0.00  0.00    -0.214 NA
ATOM      9  N   UNL     1      -1.805 -10.390  13.969  0.00  0.00    -0.223 NA
ATOM     17  C   UNL     1      -3.149 -10.494  13.794  0.00  0.00    +0.216 A 
ATOM     19  C   UNL     1      -3.541 -10.763  16.041  0.00  0.00    +0.076 A 
ATOM     20  C   UNL     1      -1.364 -10.483  15.242  0.00  0.00    +0.116 A 
ATOM     21  C   UNL     1      -2.194 -10.671  16.328  0.00  0.00    +0.048 A 
ATOM     35  H   UNL     1      -2.952 -10.318  11.759  0.00  0.00    +0.149 HD
BRANCH  19  22
ATOM      5  O   UNL     1      -8.061 -10.470  17.904  0.00  0.00    -0.453 OA
ATOM      6  O   UNL     1      -7.381 -11.467  19.989  0.00  0.00    -0.453 OA
ATOM     22  C   UNL     1      -4.514 -10.961  17.089  0.00  0.00    +0.004 A 
ATOM     24  C   UNL     1      -5.844 -10.574  16.888  0.00  0.00    +0.059 A 
ATOM     25  C   UNL     1      -4.120 -11.543  18.309  0.00  0.00    +0.014 A 
ATOM     26  C   UNL     1      -6.737 -10.783  17.918  0.00  0.00    +0.167 A 
ATOM     29  C   UNL     1      -6.349 -11.352  19.110  0.00  0.00    +0.166 A 
ATOM     30  C   UNL     1      -5.045 -11.744  19.337  0.00  0.00    +0.050 A 
ATOM     31  C   UNL     1      -8.463 -10.906  19.218  0.00  0.00    +0.466 C 
ENDBRANCH  19  22
ENDBRANCH  13   7
BRANCH  14   3
ATOM      3  O   UNL     1      -6.487  -9.800   7.885  0.00  0.00    -0.442 OA
BRANCH   3  18
ATOM      4  O   UNL     1      -6.405  -9.136   5.699  0.00  0.00    -0.226 OA
ATOM     10  N   UNL     1      -5.505 -11.181   6.397  0.00  0.00    -0.251 N 
ATOM     18  C   UNL     1      -6.149  -9.969   6.559  0.00  0.00    +0.405 C 
ATOM     36  H   UNL     1      -5.383 -11.739   7.238  0.00  0.00    +0.158 HD
BRANCH  10  23
ATOM     23  C   UNL     1      -4.994 -11.743   5.205  0.00  0.00    +0.036 A 
ATOM     27  C   UNL     1      -3.641 -12.029   5.115  0.00  0.00    +0.023 A 
ATOM     28  C   UNL     1      -5.855 -11.998   4.150  0.00  0.00    +0.023 A 
ATOM     32  C   UNL     1      -3.136 -12.585   3.940  0.00  0.00    +0.002 A 
ATOM     33  C   UNL     1      -5.351 -12.553   2.974  0.00  0.00    +0.002 A 
ATOM     34  C   UNL     1      -3.991 -12.847   2.869  0.00  0.00    +0.000 A 
ENDBRANCH  10  23
ENDBRANCH   3  18
ENDBRANCH  14   3
TORSDOF 5
ENDMDL
MODEL 2
REMARK VINA RESULT:      -8.0      3.357     10.657
REMARK  Name = 11912767
REMARK  5 active torsions:
REMARK  status: ('A' for Active; 'I' for Inactive)
REMARK    1  A    between atoms: O_3  and  C_14
REMARK    2  A    between atoms: O_3  and  C_18
REMARK    3  A    between atoms: N_7  and  C_13
REMARK    4  A    between atoms: N_10  and  C_23
REMARK    5  A    between atoms: C_19  and  C_22
REMARK                            x       y       z     vdW  Elec       q    Type
REMARK                         _______ _______ _______ _____ _____    ______ ____
ROOT
ATOM      1  O   UNL     1      -6.101 -12.317  19.167  0.00  0.00    -0.368 OA
ATOM      2  O   UNL     1      -7.396 -11.319  16.571  0.00  0.00    -0.368 OA
ATOM     11  C   UNL     1      -6.129 -11.009  17.189  0.00  0.00    +0.173 C 
ATOM     12  C   UNL     1      -6.365 -10.989  18.686  0.00  0.00    +0.192 C 
ATOM     13  C   UNL     1      -5.161 -12.151  16.987  0.00  0.00    +0.130 C 
ATOM     14  C   UNL     1      -7.832 -10.641  18.782  0.00  0.00    +0.235 C 
ATOM     15  C   UNL     1      -5.551 -13.107  18.102  0.00  0.00    +0.185 C 
ATOM     16  C   UNL     1      -8.409 -11.365  17.587  0.00  0.00    +0.207 C 
ENDROOT
BRANCH  13   7
ATOM      7  N   UNL     1      -3.800 -11.695  17.170  0.00  0.00    -0.306 N 
ATOM      8  N   UNL     1      -3.604 -11.033  14.927  0.00  0.00    -0.214 NA
ATOM      9  N   UNL     1      -1.770 -10.753  16.465  0.00  0.00    -0.223 NA
ATOM     17  C   UNL     1      -3.035 -11.143  16.157  0.00  0.00    +0.216 A 
ATOM     19  C   UNL     1      -2.831 -10.491  13.964  0.00  0.00    +0.076 A 
ATOM     20  C   UNL     1      -1.052 -10.220  15.454  0.00  0.00    +0.116 A 
ATOM     21  C   UNL     1      -1.535 -10.063  14.171  0.00  0.00    +0.048 A 
ATOM     35  H   UNL     1      -3.385 -11.724  18.094  0.00  0.00    +0.149 HD
BRANCH  19  22
ATOM      5  O   UNL     1      -6.725 -10.330  10.998  0.00  0.00    -0.453 OA
ATOM      6  O   UNL     1      -5.351 -10.081   9.034  0.00  0.00    -0.453 OA
ATOM     22  C   UNL     1      -3.453 -10.382  12.667  0.00  0.00    +0.004 A 
ATOM     24  C   UNL     1      -4.848 -10.419  12.557  0.00  0.00    +0.059 A 
ATOM     25  C   UNL     1      -2.654 -10.236  11.517  0.00  0.00    +0.014 A 
ATOM     26  C   UNL     1      -5.397 -10.311  11.296  0.00  0.00    +0.167 A 
ATOM     29  C   UNL     1      -4.613 -10.169  10.174  0.00  0.00    +0.166 A 
ATOM     30  C   UNL     1      -3.236 -10.128  10.251  0.00  0.00    +0.050 A 
ATOM     31  C   UNL     1      -6.688 -10.183   9.564  0.00  0.00    +0.466 C 
ENDBRANCH  19  22
ENDBRANCH  13   7
BRANCH  14   3
ATOM      3  O   UNL     1      -8.430 -11.053  19.991  0.00  0.00    -0.442 OA
BRANCH   3  18
ATOM      4  O   UNL     1     -10.280 -12.387  20.152  0.00  0.00    -0.226 OA
ATOM     10  N   UNL     1     -10.452 -10.094  19.714  0.00  0.00    -0.251 N 
ATOM     18  C   UNL     1      -9.790 -11.280  19.968  0.00  0.00    +0.405 C 
ATOM     36  H   UNL     1      -9.866  -9.272  19.589  0.00  0.00    +0.158 HD
BRANCH  10  23
ATOM     23  C   UNL     1     -11.845  -9.880  19.608  0.00  0.00    +0.036 A 
ATOM     27  C   UNL     1     -12.602  -9.753  20.761  0.00  0.00    +0.023 A 
ATOM     28  C   UNL     1     -12.427  -9.800  18.353  0.00  0.00    +0.023 A 
ATOM     32  C   UNL     1     -13.977  -9.540  20.657  0.00  0.00    +0.002 A 
ATOM     33  C   UNL     1     -13.801  -9.588  18.248  0.00  0.00    +0.002 A 
ATOM     34  C   UNL     1     -14.577  -9.458  19.401  0.00  0.00    +0.000 A 
ENDBRANCH  10  23
ENDBRANCH   3  18
ENDBRANCH  14   3
TORSDOF 5
ENDMDL
MODEL 3
REMARK VINA RESULT:      -7.9      2.298      3.895
REMARK  Name = 11912767
REMARK  5 active torsions:
REMARK  status: ('A' for Active; 'I' for Inactive)
REMARK    1  A    between atoms: O_3  and  C_14
REMARK    2  A    between atoms: O_3  and  C_18
REMARK    3  A    between atoms: N_7  and  C_13
REMARK    4  A    between atoms: N_10  and  C_23
REMARK    5  A    between atoms: C_19  and  C_22
REMARK                            x       y       z     vdW  Elec       q    Type
REMARK                         _______ _______ _______ _____ _____    ______ ____
ROOT
ATOM      1  O   UNL     1      -4.656  -9.035  10.110  0.00  0.00    -0.368 OA
ATOM      2  O   UNL     1      -6.073 -11.734  10.464  0.00  0.00    -0.368 OA
ATOM     11  C   UNL     1      -4.707 -11.332  10.703  0.00  0.00    +0.173 C 
ATOM     12  C   UNL     1      -4.344 -10.346   9.610  0.00  0.00    +0.192 C 
ATOM     13  C   UNL     1      -4.623 -10.517  11.972  0.00  0.00    +0.130 C 
ATOM     14  C   UNL     1      -5.266 -10.749   8.484  0.00  0.00    +0.235 C 
ATOM     15  C   UNL     1      -5.022  -9.131  11.496  0.00  0.00    +0.185 C 
ATOM     16  C   UNL     1      -6.518 -11.154   9.229  0.00  0.00    +0.207 C 
ENDROOT
BRANCH  13   7
ATOM      7  N   UNL     1      -3.264 -10.505  12.471  0.00  0.00    -0.306 N 
ATOM      8  N   UNL     1      -3.967 -10.637  14.706  0.00  0.00    -0.214 NA
ATOM      9  N   UNL     1      -1.624 -10.548  14.148  0.00  0.00    -0.223 NA
ATOM     17  C   UNL     1      -2.942 -10.566  13.815  0.00  0.00    +0.216 A 
ATOM     19  C   UNL     1      -3.616 -10.695  16.008  0.00  0.00    +0.076 A 
ATOM     20  C   UNL     1      -1.345 -10.608  15.468  0.00  0.00    +0.116 A 
ATOM     21  C   UNL     1      -2.310 -10.684  16.452  0.00  0.00    +0.048 A 
ATOM     35  H   UNL     1      -2.492 -10.505  11.814  0.00  0.00    +0.149 HD
BRANCH  19  22
ATOM      5  O   UNL     1      -8.306 -10.062  17.268  0.00  0.00    -0.453 OA
ATOM      6  O   UNL     1      -7.939 -10.937  19.483  0.00  0.00    -0.453 OA
ATOM     22  C   UNL     1      -4.718 -10.773  16.936  0.00  0.00    +0.004 A 
ATOM     24  C   UNL     1      -5.991 -10.341  16.546  0.00  0.00    +0.059 A 
ATOM     25  C   UNL     1      -4.508 -11.283  18.231  0.00  0.00    +0.014 A 
ATOM     26  C   UNL     1      -7.012 -10.434  17.468  0.00  0.00    +0.167 A 
ATOM     29  C   UNL     1      -6.803 -10.934  18.734  0.00  0.00    +0.166 A 
ATOM     30  C   UNL     1      -5.560 -11.367  19.147  0.00  0.00    +0.050 A 
ATOM     31  C   UNL     1      -8.887 -10.384  18.548  0.00  0.00    +0.466 C 
ENDBRANCH  19  22
ENDBRANCH  13   7
BRANCH  14   3
ATOM      3  O   UNL     1      -5.511  -9.714   7.559  0.00  0.00    -0.442 OA
BRANCH   3  18
ATOM      4  O   UNL     1      -7.625  -9.763   6.690  0.00  0.00    -0.226 OA
ATOM     10  N   UNL     1      -7.006  -8.211   8.329  0.00  0.00    -0.251 N 
ATOM     18  C   UNL     1      -6.811  -9.264   7.456  0.00  0.00    +0.405 C 
ATOM     36  H   UNL     1      -6.202  -7.938   8.889  0.00  0.00    +0.158 HD
BRANCH  10  23
ATOM     23  C   UNL     1      -8.187  -7.464   8.542  0.00  0.00    +0.036 A 
ATOM     27  C   UNL     1      -8.221  -6.129   8.174  0.00  0.00    +0.023 A 
ATOM     28  C   UNL     1      -9.288  -8.081   9.113  0.00  0.00    +0.023 A 
ATOM     32  C   UNL     1      -9.386  -5.391   8.383  0.00  0.00    +0.002 A 
ATOM     33  C   UNL     1     -10.453  -7.345   9.322  0.00  0.00    +0.002 A 
ATOM     34  C   UNL     1     -10.503  -5.999   8.957  0.00  0.00    +0.000 A 
ENDBRANCH  10  23
ENDBRANCH   3  18
ENDBRANCH  14   3
TORSDOF 5
ENDMDL
MODEL 4
REMARK VINA RESULT:      -7.8      5.680      9.222
REMARK  Name = 11912767
REMARK  5 active torsions:
REMARK  status: ('A' for Active; 'I' for Inactive)
REMARK    1  A    between atoms: O_3  and  C_14
REMARK    2  A    between atoms: O_3  and  C_18
REMARK    3  A    between atoms: N_7  and  C_13
REMARK    4  A    between atoms: N_10  and  C_23
REMARK    5  A    between atoms: C_19  and  C_22
REMARK                            x       y       z     vdW  Elec       q    Type
REMARK                         _______ _______ _______ _____ _____    ______ ____
ROOT
ATOM      1  O   UNL     1     -11.780  -9.819  16.938  0.00  0.00    -0.368 OA
ATOM      2  O   UNL     1      -9.622  -8.804  15.007  0.00  0.00    -0.368 OA
ATOM     11  C   UNL     1      -9.598  -9.041  16.431  0.00  0.00    +0.173 C 
ATOM     12  C   UNL     1     -10.958  -8.640  16.965  0.00  0.00    +0.192 C 
ATOM     13  C   UNL     1      -9.519 -10.524  16.708  0.00  0.00    +0.130 C 
ATOM     14  C   UNL     1     -11.418  -7.615  15.955  0.00  0.00    +0.235 C 
ATOM     15  C   UNL     1     -10.972 -10.953  16.590  0.00  0.00    +0.185 C 
ATOM     16  C   UNL     1     -10.863  -8.170  14.663  0.00  0.00    +0.207 C 
ENDROOT
BRANCH  13   7
ATOM      7  N   UNL     1      -9.033 -10.759  18.051  0.00  0.00    -0.306 N 
ATOM      8  N   UNL     1      -6.795 -10.814  17.349  0.00  0.00    -0.214 NA
ATOM      9  N   UNL     1      -7.373 -11.116  19.669  0.00  0.00    -0.223 NA
ATOM     17  C   UNL     1      -7.694 -10.900  18.366  0.00  0.00    +0.216 A 
ATOM     19  C   UNL     1      -5.498 -10.956  17.693  0.00  0.00    +0.076 A 
ATOM     20  C   UNL     1      -6.058 -11.249  19.942  0.00  0.00    +0.116 A 
ATOM     21  C   UNL     1      -5.066 -11.177  18.985  0.00  0.00    +0.048 A 
ATOM     35  H   UNL     1      -9.690 -10.772  18.823  0.00  0.00    +0.149 HD
BRANCH  19  22
ATOM      5  O   UNL     1      -4.362 -10.410  12.960  0.00  0.00    -0.453 OA
ATOM      6  O   UNL     1      -1.999 -10.571  13.400  0.00  0.00    -0.453 OA
ATOM     22  C   UNL     1      -4.561 -10.860  16.600  0.00  0.00    +0.004 A 
ATOM     24  C   UNL     1      -5.028 -10.673  15.294  0.00  0.00    +0.059 A 
ATOM     25  C   UNL     1      -3.179 -10.953  16.853  0.00  0.00    +0.014 A 
ATOM     26  C   UNL     1      -4.094 -10.587  14.283  0.00  0.00    +0.167 A 
ATOM     29  C   UNL     1      -2.744 -10.680  14.533  0.00  0.00    +0.166 A 
ATOM     30  C   UNL     1      -2.253 -10.863  15.810  0.00  0.00    +0.050 A 
ATOM     31  C   UNL     1      -3.030 -10.400  12.407  0.00  0.00    +0.466 C 
ENDBRANCH  19  22
ENDBRANCH  13   7
BRANCH  14   3
ATOM      3  O   UNL     1     -12.818  -7.460  15.907  0.00  0.00    -0.442 OA
BRANCH   3  18
ATOM      4  O   UNL     1     -14.052  -7.649  13.992  0.00  0.00    -0.226 OA
ATOM     10  N   UNL     1     -12.971  -5.654  14.566  0.00  0.00    -0.251 N 
ATOM     18  C   UNL     1     -13.352  -6.971  14.734  0.00  0.00    +0.405 C 
ATOM     36  H   UNL     1     -12.383  -5.261  15.297  0.00  0.00    +0.158 HD
BRANCH  10  23
ATOM     23  C   UNL     1     -13.298  -4.781  13.503  0.00  0.00    +0.036 A 
ATOM     27  C   UNL     1     -12.297  -4.347  12.649  0.00  0.00    +0.023 A 
ATOM     28  C   UNL     1     -14.613  -4.378  13.334  0.00  0.00    +0.023 A 
ATOM     32  C   UNL     1     -12.619  -3.487  11.599  0.00  0.00    +0.002 A 
ATOM     33  C   UNL     1     -14.935  -3.518  12.286  0.00  0.00    +0.002 A 
ATOM     34  C   UNL     1     -13.938  -3.073  11.417  0.00  0.00    +0.000 A 
ENDBRANCH  10  23
ENDBRANCH   3  18
ENDBRANCH  14   3
TORSDOF 5
ENDMDL
MODEL 5
REMARK VINA RESULT:      -7.7     21.154     24.741
REMARK  Name = 11912767
REMARK  5 active torsions:
REMARK  status: ('A' for Active; 'I' for Inactive)
REMARK    1  A    between atoms: O_3  and  C_14
REMARK    2  A    between atoms: O_3  and  C_18
REMARK    3  A    between atoms: N_7  and  C_13
REMARK    4  A    between atoms: N_10  and  C_23
REMARK    5  A    between atoms: C_19  and  C_22
REMARK                            x       y       z     vdW  Elec       q    Type
REMARK                         _______ _______ _______ _____ _____    ______ ____
ROOT
ATOM      1  O   UNL     1     -14.807   4.344  24.425  0.00  0.00    -0.368 OA
ATOM      2  O   UNL     1     -17.134   4.317  22.424  0.00  0.00    -0.368 OA
ATOM     11  C   UNL     1     -16.681   5.326  23.352  0.00  0.00    +0.173 C 
ATOM     12  C   UNL     1     -16.211   4.598  24.595  0.00  0.00    +0.192 C 
ATOM     13  C   UNL     1     -15.431   5.991  22.824  0.00  0.00    +0.130 C 
ATOM     14  C   UNL     1     -17.020   3.323  24.554  0.00  0.00    +0.235 C 
ATOM     15  C   UNL     1     -14.343   5.017  23.244  0.00  0.00    +0.185 C 
ATOM     16  C   UNL     1     -17.086   3.037  23.071  0.00  0.00    +0.207 C 
ENDROOT
BRANCH  13   7
ATOM      7  N   UNL     1     -15.233   7.272  23.468  0.00  0.00    -0.306 N 
ATOM      8  N   UNL     1     -13.761   8.009  21.796  0.00  0.00    -0.214 NA
ATOM      9  N   UNL     1     -14.318   9.423  23.666  0.00  0.00    -0.223 NA
ATOM     17  C   UNL     1     -14.414   8.265  22.962  0.00  0.00    +0.216 A 
ATOM     19  C   UNL     1     -12.971   8.999  21.331  0.00  0.00    +0.076 A 
ATOM     20  C   UNL     1     -13.510  10.370  23.144  0.00  0.00    +0.116 A 
ATOM     21  C   UNL     1     -12.805  10.212  21.968  0.00  0.00    +0.048 A 
ATOM     35  H   UNL     1     -15.755   7.492  24.308  0.00  0.00    +0.149 HD
BRANCH  19  22
ATOM      5  O   UNL     1     -11.158  10.248  16.957  0.00  0.00    -0.453 OA
ATOM      6  O   UNL     1     -10.365   8.014  16.529  0.00  0.00    -0.453 OA
ATOM     22  C   UNL     1     -12.289   8.708  20.093  0.00  0.00    +0.004 A 
ATOM     24  C   UNL     1     -12.091   9.724  19.150  0.00  0.00    +0.059 A 
ATOM     25  C   UNL     1     -11.824   7.404  19.840  0.00  0.00    +0.014 A 
ATOM     26  C   UNL     1     -11.435   9.397  17.982  0.00  0.00    +0.167 A 
ATOM     29  C   UNL     1     -10.982   8.121  17.737  0.00  0.00    +0.166 A 
ATOM     30  C   UNL     1     -11.161   7.100  18.648  0.00  0.00    +0.050 A 
ATOM     31  C   UNL     1     -10.479   9.365  16.040  0.00  0.00    +0.466 C 
ENDBRANCH  19  22
ENDBRANCH  13   7
BRANCH  14   3
ATOM      3  O   UNL     1     -16.433   2.261  25.273  0.00  0.00    -0.442 OA
BRANCH   3  18
ATOM      4  O   UNL     1     -17.589   1.599  27.131  0.00  0.00    -0.226 OA
ATOM     10  N   UNL     1     -15.709   2.986  27.282  0.00  0.00    -0.251 N 
ATOM     18  C   UNL     1     -16.663   2.227  26.632  0.00  0.00    +0.405 C 
ATOM     36  H   UNL     1     -15.014   3.435  26.690  0.00  0.00    +0.158 HD
BRANCH  10  23
ATOM     23  C   UNL     1     -15.578   3.217  28.670  0.00  0.00    +0.036 A 
ATOM     27  C   UNL     1     -14.948   2.269  29.460  0.00  0.00    +0.023 A 
ATOM     28  C   UNL     1     -16.079   4.389  29.215  0.00  0.00    +0.023 A 
ATOM     32  C   UNL     1     -14.817   2.497  30.829  0.00  0.00    +0.002 A 
ATOM     33  C   UNL     1     -15.949   4.617  30.584  0.00  0.00    +0.002 A 
ATOM     34  C   UNL     1     -15.317   3.671  31.392  0.00  0.00    +0.000 A 
ENDBRANCH  10  23
ENDBRANCH   3  18
ENDBRANCH  14   3
TORSDOF 5
ENDMDL
MODEL 6
REMARK VINA RESULT:      -7.7      2.620     11.578
REMARK  Name = 11912767
REMARK  5 active torsions:
REMARK  status: ('A' for Active; 'I' for Inactive)
REMARK    1  A    between atoms: O_3  and  C_14
REMARK    2  A    between atoms: O_3  and  C_18
REMARK    3  A    between atoms: N_7  and  C_13
REMARK    4  A    between atoms: N_10  and  C_23
REMARK    5  A    between atoms: C_19  and  C_22
REMARK                            x       y       z     vdW  Elec       q    Type
REMARK                         _______ _______ _______ _____ _____    ______ ____
ROOT
ATOM      1  O   UNL     1      -4.975  -8.941  10.791  0.00  0.00    -0.368 OA
ATOM      2  O   UNL     1      -3.401 -11.554  10.452  0.00  0.00    -0.368 OA
ATOM     11  C   UNL     1      -4.649 -11.106   9.878  0.00  0.00    +0.173 C 
ATOM     12  C   UNL     1      -5.366 -10.315  10.953  0.00  0.00    +0.192 C 
ATOM     13  C   UNL     1      -4.383 -10.089   8.792  0.00  0.00    +0.130 C 
ATOM     14  C   UNL     1      -4.808 -10.908  12.225  0.00  0.00    +0.235 C 
ATOM     15  C   UNL     1      -4.206  -8.806   9.586  0.00  0.00    +0.185 C 
ATOM     16  C   UNL     1      -3.374 -11.193  11.840  0.00  0.00    +0.207 C 
ENDROOT
BRANCH  13   7
ATOM      7  N   UNL     1      -5.528  -9.982   7.913  0.00  0.00    -0.306 N 
ATOM      8  N   UNL     1      -4.512 -11.290   6.250  0.00  0.00    -0.214 NA
ATOM      9  N   UNL     1      -6.729 -10.397   5.941  0.00  0.00    -0.223 NA
ATOM     17  C   UNL     1      -5.592 -10.574   6.665  0.00  0.00    +0.216 A 
ATOM     19  C   UNL     1      -4.609 -11.853   5.029  0.00  0.00    +0.076 A 
ATOM     20  C   UNL     1      -6.757 -10.987   4.727  0.00  0.00    +0.116 A 
ATOM     21  C   UNL     1      -5.717 -11.735   4.214  0.00  0.00    +0.048 A 
ATOM     35  H   UNL     1      -6.358  -9.496   8.234  0.00  0.00    +0.149 HD
BRANCH  19  22
ATOM      5  O   UNL     1      -1.408 -13.416   1.668  0.00  0.00    -0.453 OA
ATOM      6  O   UNL     1      -0.184 -14.717   3.284  0.00  0.00    -0.453 OA
ATOM     22  C   UNL     1      -3.454 -12.609   4.609  0.00  0.00    +0.004 A 
ATOM     24  C   UNL     1      -3.051 -12.582   3.269  0.00  0.00    +0.059 A 
ATOM     25  C   UNL     1      -2.736 -13.371   5.551  0.00  0.00    +0.014 A 
ATOM     26  C   UNL     1      -1.941 -13.321   2.916  0.00  0.00    +0.167 A 
ATOM     29  C   UNL     1      -1.242 -14.065   3.839  0.00  0.00    +0.166 A 
ATOM     30  C   UNL     1      -1.615 -14.111   5.167  0.00  0.00    +0.050 A 
ATOM     31  C   UNL     1      -0.296 -14.302   1.908  0.00  0.00    +0.466 C 
ENDBRANCH  19  22
ENDBRANCH  13   7
BRANCH  14   3
ATOM      3  O   UNL     1      -4.898 -10.045  13.336  0.00  0.00    -0.442 OA
BRANCH   3  18
ATOM      4  O   UNL     1      -6.572 -11.130  14.453  0.00  0.00    -0.226 OA
ATOM     10  N   UNL     1      -4.688 -10.299  15.567  0.00  0.00    -0.251 N 
ATOM     18  C   UNL     1      -5.492 -10.551  14.472  0.00  0.00    +0.405 C 
ATOM     36  H   UNL     1      -3.820  -9.802  15.380  0.00  0.00    +0.158 HD
BRANCH  10  23
ATOM     23  C   UNL     1      -4.920 -10.647  16.917  0.00  0.00    +0.036 A 
ATOM     27  C   UNL     1      -6.072 -10.201  17.545  0.00  0.00    +0.023 A 
ATOM     28  C   UNL     1      -3.992 -11.429  17.586  0.00  0.00    +0.023 A 
ATOM     32  C   UNL     1      -6.302 -10.545  18.877  0.00  0.00    +0.002 A 
ATOM     33  C   UNL     1      -4.221 -11.773  18.918  0.00  0.00    +0.002 A 
ATOM     34  C   UNL     1      -5.377 -11.331  19.564  0.00  0.00    +0.000 A 
ENDBRANCH  10  23
ENDBRANCH   3  18
ENDBRANCH  14   3
TORSDOF 5
ENDMDL
MODEL 7
REMARK VINA RESULT:      -7.6     28.600     32.126
REMARK  Name = 11912767
REMARK  5 active torsions:
REMARK  status: ('A' for Active; 'I' for Inactive)
REMARK    1  A    between atoms: O_3  and  C_14
REMARK    2  A    between atoms: O_3  and  C_18
REMARK    3  A    between atoms: N_7  and  C_13
REMARK    4  A    between atoms: N_10  and  C_23
REMARK    5  A    between atoms: C_19  and  C_22
REMARK                            x       y       z     vdW  Elec       q    Type
REMARK                         _______ _______ _______ _____ _____    ______ ____
ROOT
ATOM      1  O   UNL     1      19.700   8.012  22.844  0.00  0.00    -0.368 OA
ATOM      2  O   UNL     1      19.551   6.612  20.117  0.00  0.00    -0.368 OA
ATOM     11  C   UNL     1      18.609   6.683  21.209  0.00  0.00    +0.173 C 
ATOM     12  C   UNL     1      19.420   6.647  22.489  0.00  0.00    +0.192 C 
ATOM     13  C   UNL     1      17.948   8.041  21.234  0.00  0.00    +0.130 C 
ATOM     14  C   UNL     1      20.669   5.912  22.066  0.00  0.00    +0.235 C 
ATOM     15  C   UNL     1      18.972   8.888  21.969  0.00  0.00    +0.185 C 
ATOM     16  C   UNL     1      20.867   6.409  20.652  0.00  0.00    +0.207 C 
ENDROOT
BRANCH  13   7
ATOM      7  N   UNL     1      16.712   7.984  21.984  0.00  0.00    -0.306 N 
ATOM      8  N   UNL     1      15.434   8.690  20.147  0.00  0.00    -0.214 NA
ATOM      9  N   UNL     1      14.393   8.203  22.264  0.00  0.00    -0.223 NA
ATOM     17  C   UNL     1      15.476   8.301  21.449  0.00  0.00    +0.216 A 
ATOM     19  C   UNL     1      14.214   8.992  19.658  0.00  0.00    +0.076 A 
ATOM     20  C   UNL     1      13.203   8.521  21.711  0.00  0.00    +0.116 A 
ATOM     21  C   UNL     1      13.052   8.925  20.400  0.00  0.00    +0.048 A 
ATOM     35  H   UNL     1      16.725   7.645  22.940  0.00  0.00    +0.149 HD
BRANCH  19  22
ATOM      5  O   UNL     1      14.360  12.358  16.104  0.00  0.00    -0.453 OA
ATOM      6  O   UNL     1      14.140  10.695  14.375  0.00  0.00    -0.453 OA
ATOM     22  C   UNL     1      14.191   9.400  18.274  0.00  0.00    +0.004 A 
ATOM     24  C   UNL     1      14.299  10.756  17.945  0.00  0.00    +0.059 A 
ATOM     25  C   UNL     1      14.063   8.431  17.261  0.00  0.00    +0.014 A 
ATOM     26  C   UNL     1      14.272  11.097  16.609  0.00  0.00    +0.167 A 
ATOM     29  C   UNL     1      14.146  10.148  15.620  0.00  0.00    +0.166 A 
ATOM     30  C   UNL     1      14.039   8.804  15.914  0.00  0.00    +0.050 A 
ATOM     31  C   UNL     1      14.277  12.096  14.689  0.00  0.00    +0.466 C 
ENDBRANCH  19  22
ENDBRANCH  13   7
BRANCH  14   3
ATOM      3  O   UNL     1      21.786   6.181  22.884  0.00  0.00    -0.442 OA
BRANCH   3  18
ATOM      4  O   UNL     1      24.028   5.748  22.765  0.00  0.00    -0.226 OA
ATOM     10  N   UNL     1      22.435   4.039  22.615  0.00  0.00    -0.251 N 
ATOM     18  C   UNL     1      22.872   5.342  22.753  0.00  0.00    +0.405 C 
ATOM     36  H   UNL     1      21.428   3.900  22.630  0.00  0.00    +0.158 HD
BRANCH  10  23
ATOM     23  C   UNL     1      23.216   2.871  22.456  0.00  0.00    +0.036 A 
ATOM     27  C   UNL     1      23.664   2.521  21.193  0.00  0.00    +0.023 A 
ATOM     28  C   UNL     1      23.519   2.100  23.566  0.00  0.00    +0.023 A 
ATOM     32  C   UNL     1      24.436   1.370  21.035  0.00  0.00    +0.002 A 
ATOM     33  C   UNL     1      24.289   0.948  23.410  0.00  0.00    +0.002 A 
ATOM     34  C   UNL     1      24.749   0.583  22.144  0.00  0.00    +0.000 A 
ENDBRANCH  10  23
ENDBRANCH   3  18
ENDBRANCH  14   3
TORSDOF 5
ENDMDL
MODEL 8
REMARK VINA RESULT:      -7.4      1.548      2.223
REMARK  Name = 11912767
REMARK  5 active torsions:
REMARK  status: ('A' for Active; 'I' for Inactive)
REMARK    1  A    between atoms: O_3  and  C_14
REMARK    2  A    between atoms: O_3  and  C_18
REMARK    3  A    between atoms: N_7  and  C_13
REMARK    4  A    between atoms: N_10  and  C_23
REMARK    5  A    between atoms: C_19  and  C_22
REMARK                            x       y       z     vdW  Elec       q    Type
REMARK                         _______ _______ _______ _____ _____    ______ ____
ROOT
ATOM      1  O   UNL     1      -3.778 -10.067   9.365  0.00  0.00    -0.368 OA
ATOM      2  O   UNL     1      -6.212 -11.175  10.870  0.00  0.00    -0.368 OA
ATOM     11  C   UNL     1      -4.794 -11.315  11.107  0.00  0.00    +0.173 C 
ATOM     12  C   UNL     1      -4.130 -11.407   9.748  0.00  0.00    +0.192 C 
ATOM     13  C   UNL     1      -4.241 -10.040  11.699  0.00  0.00    +0.130 C 
ATOM     14  C   UNL     1      -5.233 -11.965   8.880  0.00  0.00    +0.235 C 
ATOM     15  C   UNL     1      -4.021  -9.179  10.467  0.00  0.00    +0.185 C 
ATOM     16  C   UNL     1      -6.461 -11.302   9.462  0.00  0.00    +0.207 C 
ENDROOT
BRANCH  13   7
ATOM      7  N   UNL     1      -2.980 -10.299  12.362  0.00  0.00    -0.306 N 
ATOM      8  N   UNL     1      -3.997 -10.468  14.470  0.00  0.00    -0.214 NA
ATOM      9  N   UNL     1      -1.617 -10.747  14.218  0.00  0.00    -0.223 NA
ATOM     17  C   UNL     1      -2.861 -10.512  13.723  0.00  0.00    +0.216 A 
ATOM     19  C   UNL     1      -3.844 -10.679  15.793  0.00  0.00    +0.076 A 
ATOM     20  C   UNL     1      -1.536 -10.949  15.550  0.00  0.00    +0.116 A 
ATOM     21  C   UNL     1      -2.627 -10.927  16.395  0.00  0.00    +0.048 A 
ATOM     35  H   UNL     1      -2.136 -10.386  11.808  0.00  0.00    +0.149 HD
BRANCH  19  22
ATOM      5  O   UNL     1      -6.858 -12.323  19.286  0.00  0.00    -0.453 OA
ATOM      6  O   UNL     1      -8.485 -10.603  18.838  0.00  0.00    -0.453 OA
ATOM     22  C   UNL     1      -5.061 -10.630  16.566  0.00  0.00    +0.004 A 
ATOM     24  C   UNL     1      -5.289 -11.579  17.570  0.00  0.00    +0.059 A 
ATOM     25  C   UNL     1      -6.015  -9.627  16.308  0.00  0.00    +0.014 A 
ATOM     26  C   UNL     1      -6.467 -11.491  18.282  0.00  0.00    +0.167 A 
ATOM     29  C   UNL     1      -7.398 -10.509  18.026  0.00  0.00    +0.166 A 
ATOM     30  C   UNL     1      -7.201  -9.560  17.044  0.00  0.00    +0.050 A 
ATOM     31  C   UNL     1      -8.137 -11.754  19.634  0.00  0.00    +0.466 C 
ENDBRANCH  19  22
ENDBRANCH  13   7
BRANCH  14   3
ATOM      3  O   UNL     1      -5.072 -11.675   7.510  0.00  0.00    -0.442 OA
BRANCH   3  18
ATOM      4  O   UNL     1      -4.842 -13.851   6.847  0.00  0.00    -0.226 OA
ATOM     10  N   UNL     1      -3.653 -12.119   5.815  0.00  0.00    -0.251 N 
ATOM     18  C   UNL     1      -4.538 -12.671   6.720  0.00  0.00    +0.405 C 
ATOM     36  H   UNL     1      -3.533 -11.110   5.863  0.00  0.00    +0.158 HD
BRANCH  10  23
ATOM     23  C   UNL     1      -2.891 -12.782   4.826  0.00  0.00    +0.036 A 
ATOM     27  C   UNL     1      -3.155 -12.537   3.488  0.00  0.00    +0.023 A 
ATOM     28  C   UNL     1      -1.895 -13.664   5.213  0.00  0.00    +0.023 A 
ATOM     32  C   UNL     1      -2.403 -13.191   2.512  0.00  0.00    +0.002 A 
ATOM     33  C   UNL     1      -1.143 -14.318   4.238  0.00  0.00    +0.002 A 
ATOM     34  C   UNL     1      -1.397 -14.081   2.886  0.00  0.00    +0.000 A 
ENDBRANCH  10  23
ENDBRANCH   3  18
ENDBRANCH  14   3
TORSDOF 5
ENDMDL
MODEL 9
REMARK VINA RESULT:      -7.3      3.639      9.865
REMARK  Name = 11912767
REMARK  5 active torsions:
REMARK  status: ('A' for Active; 'I' for Inactive)
REMARK    1  A    between atoms: O_3  and  C_14
REMARK    2  A    between atoms: O_3  and  C_18
REMARK    3  A    between atoms: N_7  and  C_13
REMARK    4  A    between atoms: N_10  and  C_23
REMARK    5  A    between atoms: C_19  and  C_22
REMARK                            x       y       z     vdW  Elec       q    Type
REMARK                         _______ _______ _______ _____ _____    ______ ____
ROOT
ATOM      1  O   UNL     1      -6.818 -12.499  16.993  0.00  0.00    -0.368 OA
ATOM      2  O   UNL     1      -5.148 -10.537  18.659  0.00  0.00    -0.368 OA
ATOM     11  C   UNL     1      -4.825 -11.822  18.086  0.00  0.00    +0.173 C 
ATOM     12  C   UNL     1      -6.068 -12.680  18.206  0.00  0.00    +0.192 C 
ATOM     13  C   UNL     1      -4.617 -11.686  16.596  0.00  0.00    +0.130 C 
ATOM     14  C   UNL     1      -6.773 -12.072  19.395  0.00  0.00    +0.235 C 
ATOM     15  C   UNL     1      -6.040 -11.728  16.065  0.00  0.00    +0.185 C 
ATOM     16  C   UNL     1      -6.463 -10.602  19.231  0.00  0.00    +0.207 C 
ENDROOT
BRANCH  13   7
ATOM      7  N   UNL     1      -3.859 -12.810  16.090  0.00  0.00    -0.306 N 
ATOM      8  N   UNL     1      -3.837 -11.953  13.905  0.00  0.00    -0.214 NA
ATOM      9  N   UNL     1      -2.762 -14.047  14.425  0.00  0.00    -0.223 NA
ATOM     17  C   UNL     1      -3.474 -12.941  14.767  0.00  0.00    +0.216 A 
ATOM     19  C   UNL     1      -3.445 -12.113  12.624  0.00  0.00    +0.076 A 
ATOM     20  C   UNL     1      -2.403 -14.143  13.127  0.00  0.00    +0.116 A 
ATOM     21  C   UNL     1      -2.720 -13.197  12.173  0.00  0.00    +0.048 A 
ATOM     35  H   UNL     1      -3.538 -13.525  16.734  0.00  0.00    +0.149 HD
BRANCH  19  22
ATOM      5  O   UNL     1      -6.783  -9.394  10.290  0.00  0.00    -0.453 OA
ATOM      6  O   UNL     1      -5.094  -8.071   9.194  0.00  0.00    -0.453 OA
ATOM     22  C   UNL     1      -3.839 -11.054  11.727  0.00  0.00    +0.004 A 
ATOM     24  C   UNL     1      -5.196 -10.801  11.499  0.00  0.00    +0.059 A 
ATOM     25  C   UNL     1      -2.855 -10.279  11.084  0.00  0.00    +0.014 A 
ATOM     26  C   UNL     1      -5.523  -9.779  10.632  0.00  0.00    +0.167 A 
ATOM     29  C   UNL     1      -4.559  -9.023  10.006  0.00  0.00    +0.166 A 
ATOM     30  C   UNL     1      -3.213  -9.249  10.211  0.00  0.00    +0.050 A 
ATOM     31  C   UNL     1      -6.503  -8.311   9.379  0.00  0.00    +0.466 C 
ENDBRANCH  19  22
ENDBRANCH  13   7
BRANCH  14   3
ATOM      3  O   UNL     1      -8.161 -12.322  19.415  0.00  0.00    -0.442 OA
BRANCH   3  18
ATOM      4  O   UNL     1      -9.455 -10.710  20.392  0.00  0.00    -0.226 OA
ATOM     10  N   UNL     1      -9.190 -10.834  18.069  0.00  0.00    -0.251 N 
ATOM     18  C   UNL     1      -8.993 -11.223  19.380  0.00  0.00    +0.405 C 
ATOM     36  H   UNL     1      -8.716 -11.389  17.361  0.00  0.00    +0.158 HD
BRANCH  10  23
ATOM     23  C   UNL     1      -9.970  -9.757  17.589  0.00  0.00    +0.036 A 
ATOM     27  C   UNL     1      -9.348  -8.568  17.246  0.00  0.00    +0.023 A 
ATOM     28  C   UNL     1     -11.342  -9.913  17.467  0.00  0.00    +0.023 A 
ATOM     32  C   UNL     1     -10.117  -7.506  16.771  0.00  0.00    +0.002 A 
ATOM     33  C   UNL     1     -12.112  -8.852  16.992  0.00  0.00    +0.002 A 
ATOM     34  C   UNL     1     -11.499  -7.648  16.643  0.00  0.00    +0.000 A 
ENDBRANCH  10  23
ENDBRANCH   3  18
ENDBRANCH  14   3
TORSDOF 5
ENDMDL
MODEL 10
REMARK VINA RESULT:      -7.3     28.580     32.820
REMARK  Name = 11912767
REMARK  5 active torsions:
REMARK  status: ('A' for Active; 'I' for Inactive)
REMARK    1  A    between atoms: O_3  and  C_14
REMARK    2  A    between atoms: O_3  and  C_18
REMARK    3  A    between atoms: N_7  and  C_13
REMARK    4  A    between atoms: N_10  and  C_23
REMARK    5  A    between atoms: C_19  and  C_22
REMARK                            x       y       z     vdW  Elec       q    Type
REMARK                         _______ _______ _______ _____ _____    ______ ____
ROOT
ATOM      1  O   UNL     1      11.333  13.268  24.555  0.00  0.00    -0.368 OA
ATOM      2  O   UNL     1      14.138  12.399  23.665  0.00  0.00    -0.368 OA
ATOM     11  C   UNL     1      12.925  11.646  23.875  0.00  0.00    +0.173 C 
ATOM     12  C   UNL     1      12.226  12.266  25.068  0.00  0.00    +0.192 C 
ATOM     13  C   UNL     1      11.966  11.878  22.730  0.00  0.00    +0.130 C 
ATOM     14  C   UNL     1      13.372  12.880  25.838  0.00  0.00    +0.235 C 
ATOM     15  C   UNL     1      11.304  13.188  23.121  0.00  0.00    +0.185 C 
ATOM     16  C   UNL     1      14.282  13.353  24.727  0.00  0.00    +0.207 C 
ENDROOT
BRANCH  13   7
ATOM      7  N   UNL     1      10.985  10.816  22.674  0.00  0.00    -0.306 N 
ATOM      8  N   UNL     1      12.564   9.244  21.940  0.00  0.00    -0.214 NA
ATOM      9  N   UNL     1      10.262   8.619  22.281  0.00  0.00    -0.223 NA
ATOM     17  C   UNL     1      11.279   9.521  22.287  0.00  0.00    +0.216 A 
ATOM     19  C   UNL     1      12.815   7.972  21.568  0.00  0.00    +0.076 A 
ATOM     20  C   UNL     1      10.583   7.365  21.898  0.00  0.00    +0.116 A 
ATOM     21  C   UNL     1      11.856   6.980  21.527  0.00  0.00    +0.048 A 
ATOM     35  H   UNL     1      10.036  10.999  22.982  0.00  0.00    +0.149 HD
BRANCH  19  22
ATOM      5  O   UNL     1      16.253   5.682  18.937  0.00  0.00    -0.453 OA
ATOM      6  O   UNL     1      18.039   6.829  20.076  0.00  0.00    -0.453 OA
ATOM     22  C   UNL     1      14.185   7.699  21.205  0.00  0.00    +0.004 A 
ATOM     24  C   UNL     1      14.467   6.772  20.195  0.00  0.00    +0.059 A 
ATOM     25  C   UNL     1      15.231   8.367  21.868  0.00  0.00    +0.014 A 
ATOM     26  C   UNL     1      15.792   6.544  19.884  0.00  0.00    +0.167 A 
ATOM     29  C   UNL     1      16.813   7.199  20.534  0.00  0.00    +0.166 A 
ATOM     30  C   UNL     1      16.565   8.118  21.533  0.00  0.00    +0.050 A 
ATOM     31  C   UNL     1      17.677   5.867  19.065  0.00  0.00    +0.466 C 
ENDBRANCH  19  22
ENDBRANCH  13   7
BRANCH  14   3
ATOM      3  O   UNL     1      12.979  13.934  26.687  0.00  0.00    -0.442 OA
BRANCH   3  18
ATOM      4  O   UNL     1      14.003  15.236  28.263  0.00  0.00    -0.226 OA
ATOM     10  N   UNL     1      14.076  12.899  28.363  0.00  0.00    -0.251 N 
ATOM     18  C   UNL     1      13.726  14.124  27.831  0.00  0.00    +0.405 C 
ATOM     36  H   UNL     1      13.748  12.080  27.857  0.00  0.00    +0.158 HD
BRANCH  10  23
ATOM     23  C   UNL     1      14.836  12.640  29.527  0.00  0.00    +0.036 A 
ATOM     27  C   UNL     1      16.196  12.406  29.411  0.00  0.00    +0.023 A 
ATOM     28  C   UNL     1      14.206  12.626  30.760  0.00  0.00    +0.023 A 
ATOM     32  C   UNL     1      16.947  12.152  30.559  0.00  0.00    +0.002 A 
ATOM     33  C   UNL     1      14.954  12.372  31.909  0.00  0.00    +0.002 A 
ATOM     34  C   UNL     1      16.326  12.134  31.808  0.00  0.00    +0.000 A 
ENDBRANCH  10  23
ENDBRANCH   3  18
ENDBRANCH  14   3
TORSDOF 5
ENDMDL
