MODEL 1
REMARK VINA RESULT:      -7.5      0.000      0.000
REMARK  Name = 26743812
REMARK  6 active torsions:
REMARK  status: ('A' for Active; 'I' for Inactive)
REMARK    1  A    between atoms: O_2  and  C_11
REMARK    2  A    between atoms: N_4  and  C_13
REMARK    3  A    between atoms: C_9  and  C_14
REMARK    4  A    between atoms: C_13  and  C_15
REMARK    5  A    between atoms: C_16  and  C_17
REMARK    6  A    between atoms: C_24  and  C_25
REMARK                            x       y       z     vdW  Elec       q    Type
REMARK                         _______ _______ _______ _____ _____    ______ ____
ROOT
ATOM      4  N   UNL     1      12.354   8.577  19.774  0.00  0.00    -0.282 NA
ATOM      9  C   UNL     1      13.158   8.291  20.980  0.00  0.00    +0.149 C 
ATOM     10  C   UNL     1      12.255   7.401  21.854  0.00  0.00    +0.061 C 
ATOM     11  C   UNL     1      10.950   7.281  21.078  0.00  0.00    +0.130 C 
ATOM     12  C   UNL     1      10.954   8.508  20.185  0.00  0.00    +0.117 C 
ENDROOT
BRANCH   9  14
ATOM      3  O   UNL     1      14.454   6.613  19.764  0.00  0.00    -0.336 OA
ATOM      5  N   UNL     1      15.682   7.917  21.109  0.00  0.00    -0.190 NA
ATOM      8  N   UNL     1      15.778   6.178  19.626  0.00  0.00    -0.056 NA
ATOM     14  C   UNL     1      14.486   7.639  20.654  0.00  0.00    +0.245 A 
ATOM     16  C   UNL     1      16.441   6.995  20.450  0.00  0.00    +0.202 A 
BRANCH  16  17
ATOM      1  F   UNL     1      20.596   4.598  20.034  0.00  0.00    -0.205 F 
ATOM     17  C   UNL     1      17.861   6.917  20.637  0.00  0.00    +0.025 A 
ATOM     20  C   UNL     1      18.556   5.774  20.238  0.00  0.00    +0.050 A 
ATOM     21  C   UNL     1      18.547   7.983  21.218  0.00  0.00    +0.012 A 
ATOM     22  C   UNL     1      19.936   5.699  20.420  0.00  0.00    +0.127 A 
ATOM     23  C   UNL     1      19.928   7.907  21.400  0.00  0.00    +0.007 A 
ATOM     24  C   UNL     1      20.623   6.766  21.000  0.00  0.00    -0.015 A 
ATOM     25  C   UNL     1      22.100   6.689  21.197  0.00  0.00    +0.047 C 
ENDBRANCH  16  17
ENDBRANCH   9  14
BRANCH  11   2
ATOM      2  O   UNL     1       9.842   7.274  21.957  0.00  0.00    -0.390 OA
ATOM     26  H   UNL     1      10.189   7.275  22.865  0.00  0.00    +0.210 HD
ENDBRANCH  11   2
BRANCH   4  13
ATOM     13  C   UNL     1      12.682   9.854  19.154  0.00  0.00    +0.159 C 
BRANCH  13  15
ATOM      6  N   UNL     1      13.264  10.748  16.887  0.00  0.00    -0.347 N 
ATOM      7  N   UNL     1      13.525   8.560  17.159  0.00  0.00    -0.239 NA
ATOM     15  C   UNL     1      13.162   9.683  17.737  0.00  0.00    +0.121 A 
ATOM     18  C   UNL     1      13.722  10.274  15.690  0.00  0.00    +0.104 A 
ATOM     19  C   UNL     1      13.877   8.921  15.883  0.00  0.00    +0.130 A 
ATOM     27  H   UNL     1      13.041  11.711  17.102  0.00  0.00    +0.167 HD
ENDBRANCH  13  15
ENDBRANCH   4  13
TORSDOF 5
ENDMDL
MODEL 2
REMARK VINA RESULT:      -7.3      1.811      3.685
REMARK  Name = 26743812
REMARK  6 active torsions:
REMARK  status: ('A' for Active; 'I' for Inactive)
REMARK    1  A    between atoms: O_2  and  C_11
REMARK    2  A    between atoms: N_4  and  C_13
REMARK    3  A    between atoms: C_9  and  C_14
REMARK    4  A    between atoms: C_13  and  C_15
REMARK    5  A    between atoms: C_16  and  C_17
REMARK    6  A    between atoms: C_24  and  C_25
REMARK                            x       y       z     vdW  Elec       q    Type
REMARK                         _______ _______ _______ _____ _____    ______ ____
ROOT
ATOM      4  N   UNL     1      12.506   8.134  18.644  0.00  0.00    -0.282 NA
ATOM      9  C   UNL     1      13.741   7.507  18.130  0.00  0.00    +0.149 C 
ATOM     10  C   UNL     1      13.970   8.160  16.754  0.00  0.00    +0.061 C 
ATOM     11  C   UNL     1      12.789   9.103  16.563  0.00  0.00    +0.130 C 
ATOM     12  C   UNL     1      11.723   8.525  17.474  0.00  0.00    +0.117 C 
ENDROOT
BRANCH   9  14
ATOM      3  O   UNL     1      14.875   8.760  19.896  0.00  0.00    -0.336 OA
ATOM      5  N   UNL     1      15.991   6.947  19.201  0.00  0.00    -0.190 NA
ATOM      8  N   UNL     1      16.052   8.714  20.653  0.00  0.00    -0.056 NA
ATOM     14  C   UNL     1      14.918   7.685  19.067  0.00  0.00    +0.245 A 
ATOM     16  C   UNL     1      16.657   7.618  20.185  0.00  0.00    +0.202 A 
BRANCH  16  17
ATOM      1  F   UNL     1      20.295   4.465  20.120  0.00  0.00    -0.205 F 
ATOM     17  C   UNL     1      17.925   7.165  20.679  0.00  0.00    +0.025 A 
ATOM     20  C   UNL     1      18.509   6.013  20.152  0.00  0.00    +0.050 A 
ATOM     21  C   UNL     1      18.574   7.877  21.688  0.00  0.00    +0.012 A 
ATOM     22  C   UNL     1      19.742   5.574  20.633  0.00  0.00    +0.127 A 
ATOM     23  C   UNL     1      19.808   7.437  22.168  0.00  0.00    +0.007 A 
ATOM     24  C   UNL     1      20.392   6.286  21.641  0.00  0.00    -0.015 A 
ATOM     25  C   UNL     1      21.711   5.818  22.158  0.00  0.00    +0.047 C 
ENDBRANCH  16  17
ENDBRANCH   9  14
BRANCH  11   2
ATOM      2  O   UNL     1      12.373   9.120  15.211  0.00  0.00    -0.390 OA
ATOM     26  H   UNL     1      12.514  10.020  14.874  0.00  0.00    +0.210 HD
ENDBRANCH  11   2
BRANCH   4  13
ATOM     13  C   UNL     1      11.753   7.268  19.543  0.00  0.00    +0.159 C 
BRANCH  13  15
ATOM      6  N   UNL     1      11.984   9.159  21.170  0.00  0.00    -0.347 N 
ATOM      7  N   UNL     1      10.594   7.535  21.768  0.00  0.00    -0.239 NA
ATOM     15  C   UNL     1      11.420   7.960  20.839  0.00  0.00    +0.121 A 
ATOM     18  C   UNL     1      11.487   9.522  22.391  0.00  0.00    +0.104 A 
ATOM     19  C   UNL     1      10.630   8.505  22.738  0.00  0.00    +0.130 A 
ATOM     27  H   UNL     1      12.650   9.683  20.617  0.00  0.00    +0.167 HD
ENDBRANCH  13  15
ENDBRANCH   4  13
TORSDOF 5
ENDMDL
MODEL 3
REMARK VINA RESULT:      -7.2      2.299      3.934
REMARK  Name = 26743812
REMARK  6 active torsions:
REMARK  status: ('A' for Active; 'I' for Inactive)
REMARK    1  A    between atoms: O_2  and  C_11
REMARK    2  A    between atoms: N_4  and  C_13
REMARK    3  A    between atoms: C_9  and  C_14
REMARK    4  A    between atoms: C_13  and  C_15
REMARK    5  A    between atoms: C_16  and  C_17
REMARK    6  A    between atoms: C_24  and  C_25
REMARK                            x       y       z     vdW  Elec       q    Type
REMARK                         _______ _______ _______ _____ _____    ______ ____
ROOT
ATOM      4  N   UNL     1      14.354   8.445  20.165  0.00  0.00    -0.282 NA
ATOM      9  C   UNL     1      14.530   7.240  19.328  0.00  0.00    +0.149 C 
ATOM     10  C   UNL     1      14.174   7.697  17.901  0.00  0.00    +0.061 C 
ATOM     11  C   UNL     1      13.766   9.157  18.044  0.00  0.00    +0.130 C 
ATOM     12  C   UNL     1      13.347   9.268  19.499  0.00  0.00    +0.117 C 
ENDROOT
BRANCH   9  14
ATOM      3  O   UNL     1      16.343   5.904  18.379  0.00  0.00    -0.336 OA
ATOM      5  N   UNL     1      16.809   6.782  20.386  0.00  0.00    -0.190 NA
ATOM      8  N   UNL     1      17.642   5.486  18.694  0.00  0.00    -0.056 NA
ATOM     14  C   UNL     1      15.927   6.661  19.426  0.00  0.00    +0.245 A 
ATOM     16  C   UNL     1      17.845   6.044  19.892  0.00  0.00    +0.202 A 
BRANCH  16  17
ATOM      1  F   UNL     1      20.722   7.236  23.564  0.00  0.00    -0.205 F 
ATOM     17  C   UNL     1      19.071   5.884  20.620  0.00  0.00    +0.025 A 
ATOM     20  C   UNL     1      19.309   6.651  21.761  0.00  0.00    +0.050 A 
ATOM     21  C   UNL     1      20.024   4.962  20.187  0.00  0.00    +0.012 A 
ATOM     22  C   UNL     1      20.501   6.495  22.468  0.00  0.00    +0.127 A 
ATOM     23  C   UNL     1      21.215   4.806  20.895  0.00  0.00    +0.007 A 
ATOM     24  C   UNL     1      21.454   5.573  22.036  0.00  0.00    -0.015 A 
ATOM     25  C   UNL     1      22.730   5.404  22.791  0.00  0.00    +0.047 C 
ENDBRANCH  16  17
ENDBRANCH   9  14
BRANCH  11   2
ATOM      2  O   UNL     1      12.703   9.471  17.166  0.00  0.00    -0.390 OA
ATOM     26  H   UNL     1      12.833  10.386  16.865  0.00  0.00    +0.210 HD
ENDBRANCH  11   2
BRANCH   4  13
ATOM     13  C   UNL     1      13.989   8.139  21.542  0.00  0.00    +0.159 C 
BRANCH  13  15
ATOM      6  N   UNL     1      12.434   6.179  21.400  0.00  0.00    -0.347 N 
ATOM      7  N   UNL     1      11.496   8.120  21.932  0.00  0.00    -0.239 NA
ATOM     15  C   UNL     1      12.622   7.512  21.634  0.00  0.00    +0.121 A 
ATOM     18  C   UNL     1      11.102   5.919  21.558  0.00  0.00    +0.104 A 
ATOM     19  C   UNL     1      10.544   7.132  21.888  0.00  0.00    +0.130 A 
ATOM     27  H   UNL     1      13.148   5.507  21.152  0.00  0.00    +0.167 HD
ENDBRANCH  13  15
ENDBRANCH   4  13
TORSDOF 5
ENDMDL
MODEL 4
REMARK VINA RESULT:      -7.1      2.058      2.620
REMARK  Name = 26743812
REMARK  6 active torsions:
REMARK  status: ('A' for Active; 'I' for Inactive)
REMARK    1  A    between atoms: O_2  and  C_11
REMARK    2  A    between atoms: N_4  and  C_13
REMARK    3  A    between atoms: C_9  and  C_14
REMARK    4  A    between atoms: C_13  and  C_15
REMARK    5  A    between atoms: C_16  and  C_17
REMARK    6  A    between atoms: C_24  and  C_25
REMARK                            x       y       z     vdW  Elec       q    Type
REMARK                         _______ _______ _______ _____ _____    ______ ____
ROOT
ATOM      4  N   UNL     1      12.149   8.201  21.945  0.00  0.00    -0.282 NA
ATOM      9  C   UNL     1      12.895   9.342  21.378  0.00  0.00    +0.149 C 
ATOM     10  C   UNL     1      12.400  10.567  22.169  0.00  0.00    +0.061 C 
ATOM     11  C   UNL     1      11.346  10.021  23.123  0.00  0.00    +0.130 C 
ATOM     12  C   UNL     1      10.889   8.740  22.452  0.00  0.00    +0.117 C 
ENDROOT
BRANCH   9  14
ATOM      3  O   UNL     1      15.105  10.191  21.986  0.00  0.00    -0.336 OA
ATOM      5  N   UNL     1      15.128   8.134  21.100  0.00  0.00    -0.190 NA
ATOM      8  N   UNL     1      16.447   9.793  21.960  0.00  0.00    -0.056 NA
ATOM     14  C   UNL     1      14.396   9.157  21.462  0.00  0.00    +0.245 A 
ATOM     16  C   UNL     1      16.379   8.571  21.425  0.00  0.00    +0.202 A 
BRANCH  16  17
ATOM      1  F   UNL     1      18.525   4.819  19.302  0.00  0.00    -0.205 F 
ATOM     17  C   UNL     1      17.541   7.759  21.201  0.00  0.00    +0.025 A 
ATOM     20  C   UNL     1      17.471   6.661  20.344  0.00  0.00    +0.050 A 
ATOM     21  C   UNL     1      18.740   8.068  21.842  0.00  0.00    +0.012 A 
ATOM     22  C   UNL     1      18.601   5.873  20.128  0.00  0.00    +0.127 A 
ATOM     23  C   UNL     1      19.871   7.280  21.625  0.00  0.00    +0.007 A 
ATOM     24  C   UNL     1      19.801   6.182  20.768  0.00  0.00    -0.015 A 
ATOM     25  C   UNL     1      21.012   5.341  20.539  0.00  0.00    +0.047 C 
ENDBRANCH  16  17
ENDBRANCH   9  14
BRANCH  11   2
ATOM      2  O   UNL     1      10.283  10.942  23.277  0.00  0.00    -0.390 OA
ATOM     26  H   UNL     1      10.593  11.803  22.949  0.00  0.00    +0.210 HD
ENDBRANCH  11   2
BRANCH   4  13
ATOM     13  C   UNL     1      11.938   7.120  20.989  0.00  0.00    +0.159 C 
BRANCH  13  15
ATOM      6  N   UNL     1      13.027   7.322  18.742  0.00  0.00    -0.347 N 
ATOM      7  N   UNL     1      11.068   8.345  18.962  0.00  0.00    -0.239 NA
ATOM     15  C   UNL     1      11.977   7.614  19.567  0.00  0.00    +0.121 A 
ATOM     18  C   UNL     1      12.771   7.906  17.532  0.00  0.00    +0.104 A 
ATOM     19  C   UNL     1      11.556   8.530  17.693  0.00  0.00    +0.130 A 
ATOM     27  H   UNL     1      13.845   6.778  18.981  0.00  0.00    +0.167 HD
ENDBRANCH  13  15
ENDBRANCH   4  13
TORSDOF 5
ENDMDL
MODEL 5
REMARK VINA RESULT:      -7.1      2.261      3.795
REMARK  Name = 26743812
REMARK  6 active torsions:
REMARK  status: ('A' for Active; 'I' for Inactive)
REMARK    1  A    between atoms: O_2  and  C_11
REMARK    2  A    between atoms: N_4  and  C_13
REMARK    3  A    between atoms: C_9  and  C_14
REMARK    4  A    between atoms: C_13  and  C_15
REMARK    5  A    between atoms: C_16  and  C_17
REMARK    6  A    between atoms: C_24  and  C_25
REMARK                            x       y       z     vdW  Elec       q    Type
REMARK                         _______ _______ _______ _____ _____    ______ ____
ROOT
ATOM      4  N   UNL     1      12.296   8.381  20.207  0.00  0.00    -0.282 NA
ATOM      9  C   UNL     1      13.105   7.273  19.660  0.00  0.00    +0.149 C 
ATOM     10  C   UNL     1      12.799   7.271  18.151  0.00  0.00    +0.061 C 
ATOM     11  C   UNL     1      11.775   8.381  17.954  0.00  0.00    +0.130 C 
ATOM     12  C   UNL     1      11.141   8.526  19.324  0.00  0.00    +0.117 C 
ENDROOT
BRANCH   9  14
ATOM      3  O   UNL     1      15.033   8.694  20.145  0.00  0.00    -0.336 OA
ATOM      5  N   UNL     1      15.507   6.506  20.068  0.00  0.00    -0.190 NA
ATOM      8  N   UNL     1      16.405   8.583  20.402  0.00  0.00    -0.056 NA
ATOM     14  C   UNL     1      14.582   7.426  19.959  0.00  0.00    +0.245 A 
ATOM     16  C   UNL     1      16.608   7.264  20.340  0.00  0.00    +0.202 A 
BRANCH  16  17
ATOM      1  F   UNL     1      20.807   7.074  22.688  0.00  0.00    -0.205 F 
ATOM     17  C   UNL     1      17.898   6.670  20.544  0.00  0.00    +0.025 A 
ATOM     20  C   UNL     1      18.746   7.168  21.535  0.00  0.00    +0.050 A 
ATOM     21  C   UNL     1      18.305   5.597  19.752  0.00  0.00    +0.012 A 
ATOM     22  C   UNL     1      19.999   6.590  21.733  0.00  0.00    +0.127 A 
ATOM     23  C   UNL     1      19.559   5.019  19.952  0.00  0.00    +0.007 A 
ATOM     24  C   UNL     1      20.406   5.515  20.942  0.00  0.00    -0.015 A 
ATOM     25  C   UNL     1      21.747   4.895  21.152  0.00  0.00    +0.047 C 
ENDBRANCH  16  17
ENDBRANCH   9  14
BRANCH  11   2
ATOM      2  O   UNL     1      10.825   8.019  16.970  0.00  0.00    -0.390 OA
ATOM     26  H   UNL     1      10.185   8.748  16.901  0.00  0.00    +0.210 HD
ENDBRANCH  11   2
BRANCH   4  13
ATOM     13  C   UNL     1      11.903   8.176  21.595  0.00  0.00    +0.159 C 
BRANCH  13  15
ATOM      6  N   UNL     1      11.003   9.676  23.389  0.00  0.00    -0.347 N 
ATOM      7  N   UNL     1      12.683  10.499  22.193  0.00  0.00    -0.239 NA
ATOM     15  C   UNL     1      11.892   9.465  22.373  0.00  0.00    +0.121 A 
ATOM     18  C   UNL     1      11.242  10.925  23.890  0.00  0.00    +0.104 A 
ATOM     19  C   UNL     1      12.284  11.413  23.136  0.00  0.00    +0.130 A 
ATOM     27  H   UNL     1      10.295   9.029  23.711  0.00  0.00    +0.167 HD
ENDBRANCH  13  15
ENDBRANCH   4  13
TORSDOF 5
ENDMDL
MODEL 6
REMARK VINA RESULT:      -6.6      1.501      2.430
REMARK  Name = 26743812
REMARK  6 active torsions:
REMARK  status: ('A' for Active; 'I' for Inactive)
REMARK    1  A    between atoms: O_2  and  C_11
REMARK    2  A    between atoms: N_4  and  C_13
REMARK    3  A    between atoms: C_9  and  C_14
REMARK    4  A    between atoms: C_13  and  C_15
REMARK    5  A    between atoms: C_16  and  C_17
REMARK    6  A    between atoms: C_24  and  C_25
REMARK                            x       y       z     vdW  Elec       q    Type
REMARK                         _______ _______ _______ _____ _____    ______ ____
ROOT
ATOM      4  N   UNL     1      12.388   8.657  19.881  0.00  0.00    -0.282 NA
ATOM      9  C   UNL     1      13.174   8.275  21.071  0.00  0.00    +0.149 C 
ATOM     10  C   UNL     1      12.253   7.330  21.865  0.00  0.00    +0.061 C 
ATOM     11  C   UNL     1      10.957   7.281  21.067  0.00  0.00    +0.130 C 
ATOM     12  C   UNL     1      10.982   8.571  20.269  0.00  0.00    +0.117 C 
ENDROOT
BRANCH   9  14
ATOM      3  O   UNL     1      14.462   6.638  19.793  0.00  0.00    -0.336 OA
ATOM      5  N   UNL     1      15.700   7.904  21.164  0.00  0.00    -0.190 NA
ATOM      8  N   UNL     1      15.786   6.211  19.629  0.00  0.00    -0.056 NA
ATOM     14  C   UNL     1      14.500   7.636  20.713  0.00  0.00    +0.245 A 
ATOM     16  C   UNL     1      16.455   7.004  20.470  0.00  0.00    +0.202 A 
BRANCH  16  17
ATOM      1  F   UNL     1      20.597   4.588  20.040  0.00  0.00    -0.205 F 
ATOM     17  C   UNL     1      17.877   6.925  20.640  0.00  0.00    +0.025 A 
ATOM     20  C   UNL     1      18.563   5.774  20.251  0.00  0.00    +0.050 A 
ATOM     21  C   UNL     1      18.573   7.998  21.195  0.00  0.00    +0.012 A 
ATOM     22  C   UNL     1      19.946   5.698  20.417  0.00  0.00    +0.127 A 
ATOM     23  C   UNL     1      19.956   7.922  21.361  0.00  0.00    +0.007 A 
ATOM     24  C   UNL     1      20.643   6.772  20.971  0.00  0.00    -0.015 A 
ATOM     25  C   UNL     1      22.122   6.693  21.150  0.00  0.00    +0.047 C 
ENDBRANCH  16  17
ENDBRANCH   9  14
BRANCH  11   2
ATOM      2  O   UNL     1       9.838   7.218  21.929  0.00  0.00    -0.390 OA
ATOM     26  H   UNL     1      10.169   7.274  22.841  0.00  0.00    +0.210 HD
ENDBRANCH  11   2
BRANCH   4  13
ATOM     13  C   UNL     1      12.733   9.975  19.362  0.00  0.00    +0.159 C 
BRANCH  13  15
ATOM      6  N   UNL     1      14.169  11.378  20.861  0.00  0.00    -0.347 N 
ATOM      7  N   UNL     1      11.978  11.576  21.160  0.00  0.00    -0.239 NA
ATOM     15  C   UNL     1      12.923  10.981  20.467  0.00  0.00    +0.121 A 
ATOM     18  C   UNL     1      14.010  12.285  21.871  0.00  0.00    +0.104 A 
ATOM     19  C   UNL     1      12.649  12.392  22.036  0.00  0.00    +0.130 A 
ATOM     27  H   UNL     1      15.050  11.059  20.479  0.00  0.00    +0.167 HD
ENDBRANCH  13  15
ENDBRANCH   4  13
TORSDOF 5
ENDMDL
MODEL 7
REMARK VINA RESULT:      -6.6     26.929     28.459
REMARK  Name = 26743812
REMARK  6 active torsions:
REMARK  status: ('A' for Active; 'I' for Inactive)
REMARK    1  A    between atoms: O_2  and  C_11
REMARK    2  A    between atoms: N_4  and  C_13
REMARK    3  A    between atoms: C_9  and  C_14
REMARK    4  A    between atoms: C_13  and  C_15
REMARK    5  A    between atoms: C_16  and  C_17
REMARK    6  A    between atoms: C_24  and  C_25
REMARK                            x       y       z     vdW  Elec       q    Type
REMARK                         _______ _______ _______ _____ _____    ______ ____
ROOT
ATOM      4  N   UNL     1      -4.117 -11.458  10.485  0.00  0.00    -0.282 NA
ATOM      9  C   UNL     1      -3.076 -10.600  11.087  0.00  0.00    +0.149 C 
ATOM     10  C   UNL     1      -3.362  -9.191  10.537  0.00  0.00    +0.061 C 
ATOM     11  C   UNL     1      -4.550  -9.366   9.600  0.00  0.00    +0.130 C 
ATOM     12  C   UNL     1      -4.487 -10.832   9.218  0.00  0.00    +0.117 C 
ENDROOT
BRANCH   9  14
ATOM      3  O   UNL     1      -1.876 -10.786  13.208  0.00  0.00    -0.336 OA
ATOM      5  N   UNL     1      -4.095 -10.584  13.429  0.00  0.00    -0.190 NA
ATOM      8  N   UNL     1      -2.133 -10.809  14.584  0.00  0.00    -0.056 NA
ATOM     14  C   UNL     1      -3.083 -10.651  12.601  0.00  0.00    +0.245 A 
ATOM     16  C   UNL     1      -3.463 -10.686  14.634  0.00  0.00    +0.202 A 
BRANCH  16  17
ATOM      1  F   UNL     1      -3.830 -11.801  19.304  0.00  0.00    -0.205 F 
ATOM     17  C   UNL     1      -4.190 -10.659  15.871  0.00  0.00    +0.025 A 
ATOM     20  C   UNL     1      -3.649 -11.254  17.011  0.00  0.00    +0.050 A 
ATOM     21  C   UNL     1      -5.438 -10.040  15.932  0.00  0.00    +0.012 A 
ATOM     22  C   UNL     1      -4.357 -11.227  18.212  0.00  0.00    +0.127 A 
ATOM     23  C   UNL     1      -6.145 -10.013  17.134  0.00  0.00    +0.007 A 
ATOM     24  C   UNL     1      -5.604 -10.607  18.274  0.00  0.00    -0.015 A 
ATOM     25  C   UNL     1      -6.364 -10.577  19.558  0.00  0.00    +0.047 C 
ENDBRANCH  16  17
ENDBRANCH   9  14
BRANCH  11   2
ATOM      2  O   UNL     1      -4.428  -8.522   8.472  0.00  0.00    -0.390 OA
ATOM     26  H   UNL     1      -3.552  -8.681   8.082  0.00  0.00    +0.210 HD
ENDBRANCH  11   2
BRANCH   4  13
ATOM     13  C   UNL     1      -3.691 -12.841  10.310  0.00  0.00    +0.159 C 
BRANCH  13  15
ATOM      6  N   UNL     1      -2.330 -13.866  12.146  0.00  0.00    -0.347 N 
ATOM      7  N   UNL     1      -4.532 -13.959  12.410  0.00  0.00    -0.239 NA
ATOM     15  C   UNL     1      -3.556 -13.557  11.628  0.00  0.00    +0.121 A 
ATOM     18  C   UNL     1      -2.538 -14.506  13.336  0.00  0.00    +0.104 A 
ATOM     19  C   UNL     1      -3.905 -14.550  13.477  0.00  0.00    +0.130 A 
ATOM     27  H   UNL     1      -1.432 -13.662  11.727  0.00  0.00    +0.167 HD
ENDBRANCH  13  15
ENDBRANCH   4  13
TORSDOF 5
ENDMDL
MODEL 8
REMARK VINA RESULT:      -6.4     14.426     17.856
REMARK  Name = 26743812
REMARK  6 active torsions:
REMARK  status: ('A' for Active; 'I' for Inactive)
REMARK    1  A    between atoms: O_2  and  C_11
REMARK    2  A    between atoms: N_4  and  C_13
REMARK    3  A    between atoms: C_9  and  C_14
REMARK    4  A    between atoms: C_13  and  C_15
REMARK    5  A    between atoms: C_16  and  C_17
REMARK    6  A    between atoms: C_24  and  C_25
REMARK                            x       y       z     vdW  Elec       q    Type
REMARK                         _______ _______ _______ _____ _____    ______ ____
ROOT
ATOM      4  N   UNL     1      10.313   7.317   5.836  0.00  0.00    -0.282 NA
ATOM      9  C   UNL     1       9.393   6.284   5.320  0.00  0.00    +0.149 C 
ATOM     10  C   UNL     1       8.207   7.072   4.732  0.00  0.00    +0.061 C 
ATOM     11  C   UNL     1       8.531   8.535   5.006  0.00  0.00    +0.130 C 
ATOM     12  C   UNL     1       9.488   8.472   6.181  0.00  0.00    +0.117 C 
ENDROOT
BRANCH   9  14
ATOM      3  O   UNL     1      10.364   4.120   4.732  0.00  0.00    -0.336 OA
ATOM      5  N   UNL     1      10.368   5.608   3.058  0.00  0.00    -0.190 NA
ATOM      8  N   UNL     1      10.951   3.473   3.637  0.00  0.00    -0.056 NA
ATOM     14  C   UNL     1      10.050   5.371   4.306  0.00  0.00    +0.245 A 
ATOM     16  C   UNL     1      10.919   4.415   2.690  0.00  0.00    +0.202 A 
BRANCH  16  17
ATOM      1  F   UNL     1      10.357   4.569  -2.090  0.00  0.00    -0.205 F 
ATOM     17  C   UNL     1      11.426   4.197   1.366  0.00  0.00    +0.025 A 
ATOM     20  C   UNL     1      10.632   4.493   0.257  0.00  0.00    +0.050 A 
ATOM     21  C   UNL     1      12.712   3.687   1.187  0.00  0.00    +0.012 A 
ATOM     22  C   UNL     1      11.126   4.281  -1.029  0.00  0.00    +0.127 A 
ATOM     23  C   UNL     1      13.205   3.476  -0.100  0.00  0.00    +0.007 A 
ATOM     24  C   UNL     1      12.413   3.773  -1.208  0.00  0.00    -0.015 A 
ATOM     25  C   UNL     1      12.944   3.544  -2.584  0.00  0.00    +0.047 C 
ENDBRANCH  16  17
ENDBRANCH   9  14
BRANCH  11   2
ATOM      2  O   UNL     1       7.357   9.258   5.321  0.00  0.00    -0.390 OA
ATOM     26  H   UNL     1       7.524  10.192   5.109  0.00  0.00    +0.210 HD
ENDBRANCH  11   2
BRANCH   4  13
ATOM     13  C   UNL     1      11.117   6.860   6.963  0.00  0.00    +0.159 C 
BRANCH  13  15
ATOM      6  N   UNL     1      10.524   4.609   7.888  0.00  0.00    -0.347 N 
ATOM      7  N   UNL     1       9.416   6.329   8.749  0.00  0.00    -0.239 NA
ATOM     15  C   UNL     1      10.333   5.962   7.882  0.00  0.00    +0.121 A 
ATOM     18  C   UNL     1       9.675   4.078   8.818  0.00  0.00    +0.104 A 
ATOM     19  C   UNL     1       9.002   5.160   9.337  0.00  0.00    +0.130 A 
ATOM     27  H   UNL     1      11.173   4.092   7.309  0.00  0.00    +0.167 HD
ENDBRANCH  13  15
ENDBRANCH   4  13
TORSDOF 5
ENDMDL
MODEL 9
REMARK VINA RESULT:      -6.4      1.986      2.150
REMARK  Name = 26743812
REMARK  6 active torsions:
REMARK  status: ('A' for Active; 'I' for Inactive)
REMARK    1  A    between atoms: O_2  and  C_11
REMARK    2  A    between atoms: N_4  and  C_13
REMARK    3  A    between atoms: C_9  and  C_14
REMARK    4  A    between atoms: C_13  and  C_15
REMARK    5  A    between atoms: C_16  and  C_17
REMARK    6  A    between atoms: C_24  and  C_25
REMARK                            x       y       z     vdW  Elec       q    Type
REMARK                         _______ _______ _______ _____ _____    ______ ____
ROOT
ATOM      4  N   UNL     1      12.663  10.793  20.744  0.00  0.00    -0.282 NA
ATOM      9  C   UNL     1      13.636  10.757  21.855  0.00  0.00    +0.149 C 
ATOM     10  C   UNL     1      12.775  10.727  23.131  0.00  0.00    +0.061 C 
ATOM     11  C   UNL     1      11.335  10.797  22.638  0.00  0.00    +0.130 C 
ATOM     12  C   UNL     1      11.460  11.437  21.268  0.00  0.00    +0.117 C 
ENDROOT
BRANCH   9  14
ATOM      3  O   UNL     1      14.057   8.355  22.013  0.00  0.00    -0.336 OA
ATOM      5  N   UNL     1      15.861   9.564  21.466  0.00  0.00    -0.190 NA
ATOM      8  N   UNL     1      15.108   7.442  21.868  0.00  0.00    -0.056 NA
ATOM     14  C   UNL     1      14.585   9.580  21.760  0.00  0.00    +0.245 A 
ATOM     16  C   UNL     1      16.137   8.230  21.545  0.00  0.00    +0.202 A 
BRANCH  16  17
ATOM      1  F   UNL     1      19.039   4.811  19.793  0.00  0.00    -0.205 F 
ATOM     17  C   UNL     1      17.453   7.718  21.294  0.00  0.00    +0.025 A 
ATOM     20  C   UNL     1      17.614   6.489  20.653  0.00  0.00    +0.050 A 
ATOM     21  C   UNL     1      18.573   8.449  21.693  0.00  0.00    +0.012 A 
ATOM     22  C   UNL     1      18.894   5.993  20.410  0.00  0.00    +0.127 A 
ATOM     23  C   UNL     1      19.853   7.952  21.449  0.00  0.00    +0.007 A 
ATOM     24  C   UNL     1      20.014   6.724  20.807  0.00  0.00    -0.015 A 
ATOM     25  C   UNL     1      21.385   6.195  20.549  0.00  0.00    +0.047 C 
ENDBRANCH  16  17
ENDBRANCH   9  14
BRANCH  11   2
ATOM      2  O   UNL     1      10.542  11.576  23.512  0.00  0.00    -0.390 OA
ATOM     26  H   UNL     1       9.689  11.730  23.073  0.00  0.00    +0.210 HD
ENDBRANCH  11   2
BRANCH   4  13
ATOM     13  C   UNL     1      13.171  11.467  19.556  0.00  0.00    +0.159 C 
BRANCH  13  15
ATOM      6  N   UNL     1      13.407  11.005  17.105  0.00  0.00    -0.347 N 
ATOM      7  N   UNL     1      13.230   9.219  18.411  0.00  0.00    -0.239 NA
ATOM     15  C   UNL     1      13.266  10.532  18.379  0.00  0.00    +0.121 A 
ATOM     18  C   UNL     1      13.462   9.924  16.270  0.00  0.00    +0.104 A 
ATOM     19  C   UNL     1      13.353   8.833  17.100  0.00  0.00    +0.130 A 
ATOM     27  H   UNL     1      13.457  11.976  16.827  0.00  0.00    +0.167 HD
ENDBRANCH  13  15
ENDBRANCH   4  13
TORSDOF 5
ENDMDL
MODEL 10
REMARK VINA RESULT:      -6.3     14.406     18.052
REMARK  Name = 26743812
REMARK  6 active torsions:
REMARK  status: ('A' for Active; 'I' for Inactive)
REMARK    1  A    between atoms: O_2  and  C_11
REMARK    2  A    between atoms: N_4  and  C_13
REMARK    3  A    between atoms: C_9  and  C_14
REMARK    4  A    between atoms: C_13  and  C_15
REMARK    5  A    between atoms: C_16  and  C_17
REMARK    6  A    between atoms: C_24  and  C_25
REMARK                            x       y       z     vdW  Elec       q    Type
REMARK                         _______ _______ _______ _____ _____    ______ ____
ROOT
ATOM      4  N   UNL     1      12.063   6.830   6.181  0.00  0.00    -0.282 NA
ATOM      9  C   UNL     1      12.324   7.238   4.785  0.00  0.00    +0.149 C 
ATOM     10  C   UNL     1      13.827   7.570   4.747  0.00  0.00    +0.061 C 
ATOM     11  C   UNL     1      14.314   7.364   6.175  0.00  0.00    +0.130 C 
ATOM     12  C   UNL     1      13.053   7.519   7.005  0.00  0.00    +0.117 C 
ENDROOT
BRANCH   9  14
ATOM      3  O   UNL     1      11.066   5.221   4.218  0.00  0.00    -0.336 OA
ATOM      5  N   UNL     1      12.312   6.024   2.538  0.00  0.00    -0.190 NA
ATOM      8  N   UNL     1      10.859   4.360   3.133  0.00  0.00    -0.056 NA
ATOM     14  C   UNL     1      11.933   6.172   3.783  0.00  0.00    +0.245 A 
ATOM     16  C   UNL     1      11.627   4.899   2.182  0.00  0.00    +0.202 A 
BRANCH  16  17
ATOM      1  F   UNL     1       9.905   4.333  -2.279  0.00  0.00    -0.205 F 
ATOM     17  C   UNL     1      11.732   4.339   0.865  0.00  0.00    +0.025 A 
ATOM     20  C   UNL     1      10.750   4.611  -0.089  0.00  0.00    +0.050 A 
ATOM     21  C   UNL     1      12.815   3.524   0.539  0.00  0.00    +0.012 A 
ATOM     22  C   UNL     1      10.853   4.066  -1.368  0.00  0.00    +0.127 A 
ATOM     23  C   UNL     1      12.918   2.980  -0.742  0.00  0.00    +0.007 A 
ATOM     24  C   UNL     1      11.936   3.252  -1.695  0.00  0.00    -0.015 A 
ATOM     25  C   UNL     1      12.049   2.667  -3.064  0.00  0.00    +0.047 C 
ENDBRANCH  16  17
ENDBRANCH   9  14
BRANCH  11   2
ATOM      2  O   UNL     1      15.291   8.327   6.518  0.00  0.00    -0.390 OA
ATOM     26  H   UNL     1      15.090   8.640   7.416  0.00  0.00    +0.210 HD
ENDBRANCH  11   2
BRANCH   4  13
ATOM     13  C   UNL     1      10.700   7.106   6.615  0.00  0.00    +0.159 C 
BRANCH  13  15
ATOM      6  N   UNL     1      10.338   4.721   7.291  0.00  0.00    -0.347 N 
ATOM      7  N   UNL     1       9.566   6.253   8.701  0.00  0.00    -0.239 NA
ATOM     15  C   UNL     1      10.188   6.052   7.561  0.00  0.00    +0.121 A 
ATOM     18  C   UNL     1       9.776   4.027   8.326  0.00  0.00    +0.104 A 
ATOM     19  C   UNL     1       9.308   4.994   9.184  0.00  0.00    +0.130 A 
ATOM     27  H   UNL     1      10.781   4.321   6.475  0.00  0.00    +0.167 HD
ENDBRANCH  13  15
ENDBRANCH   4  13
TORSDOF 5
ENDMDL
