MODEL 1
REMARK VINA RESULT:      -6.8      0.000      0.000
REMARK  Name = 45784296
REMARK  5 active torsions:
REMARK  status: ('A' for Active; 'I' for Inactive)
REMARK    1  A    between atoms: O_1  and  C_18
REMARK    2  A    between atoms: O_1  and  C_23
REMARK    3  A    between atoms: N_2  and  C_11
REMARK    4  A    between atoms: C_6  and  C_10
REMARK    5  A    between atoms: C_11  and  C_13
REMARK                            x       y       z     vdW  Elec       q    Type
REMARK                         _______ _______ _______ _____ _____    ______ ____
ROOT
ATOM      2  N   UNL     1      11.498   9.572  21.411  0.00  0.00    -0.296 NA
ATOM      6  C   UNL     1      13.354   9.081  20.063  0.00  0.00    +0.070 C 
ATOM      7  C   UNL     1      12.103   8.396  19.485  0.00  0.00    +0.028 C 
ATOM      8  C   UNL     1      12.957   9.473  21.493  0.00  0.00    +0.096 C 
ATOM      9  C   UNL     1      11.085   8.412  20.619  0.00  0.00    +0.085 C 
ENDROOT
BRANCH   6  10
ATOM      3  N   UNL     1      15.618   8.421  20.921  0.00  0.00    -0.341 N 
ATOM      4  N   UNL     1      14.901   7.312  19.134  0.00  0.00    -0.232 NA
ATOM     10  C   UNL     1      14.614   8.250  20.008  0.00  0.00    +0.113 A 
ATOM     12  C   UNL     1      16.618   7.535  20.615  0.00  0.00    +0.070 A 
ATOM     14  C   UNL     1      16.147   6.854  19.496  0.00  0.00    +0.089 A 
ATOM     15  C   UNL     1      17.857   7.277  21.203  0.00  0.00    +0.073 A 
ATOM     16  C   UNL     1      16.945   5.854  18.916  0.00  0.00    +0.033 A 
ATOM     18  C   UNL     1      18.638   6.278  20.613  0.00  0.00    +0.122 A 
ATOM     19  C   UNL     1      18.193   5.578  19.489  0.00  0.00    +0.048 A 
ATOM     24  H   UNL     1      15.626   9.083  21.687  0.00  0.00    +0.167 HD
BRANCH  18   1
ATOM      1  O   UNL     1      19.859   5.984  21.145  0.00  0.00    -0.495 OA
ATOM     23  C   UNL     1      20.633   4.989  20.479  0.00  0.00    +0.277 C 
ENDBRANCH  18   1
ENDBRANCH   6  10
BRANCH   2  11
ATOM     11  C   UNL     1      10.868   9.598  22.722  0.00  0.00    +0.139 C 
BRANCH  11  13
ATOM      5  N   UNL     1      10.892  11.047  24.676  0.00  0.00    -0.259 NA
ATOM     13  C   UNL     1      10.887  10.976  23.326  0.00  0.00    +0.055 A 
ATOM     17  C   UNL     1      10.897  12.084  22.492  0.00  0.00    +0.024 A 
ATOM     20  C   UNL     1      10.915  13.342  23.082  0.00  0.00    +0.003 A 
ATOM     21  C   UNL     1      10.910  12.287  25.213  0.00  0.00    +0.111 A 
ATOM     22  C   UNL     1      10.922  13.455  24.467  0.00  0.00    +0.020 A 
ENDBRANCH  11  13
ENDBRANCH   2  11
TORSDOF 4
ENDMDL
MODEL 2
REMARK VINA RESULT:      -6.8      4.194     10.354
REMARK  Name = 45784296
REMARK  5 active torsions:
REMARK  status: ('A' for Active; 'I' for Inactive)
REMARK    1  A    between atoms: O_1  and  C_18
REMARK    2  A    between atoms: O_1  and  C_23
REMARK    3  A    between atoms: N_2  and  C_11
REMARK    4  A    between atoms: C_6  and  C_10
REMARK    5  A    between atoms: C_11  and  C_13
REMARK                            x       y       z     vdW  Elec       q    Type
REMARK                         _______ _______ _______ _____ _____    ______ ____
ROOT
ATOM      2  N   UNL     1      21.243   5.070  21.256  0.00  0.00    -0.296 NA
ATOM      6  C   UNL     1      19.550   6.563  20.618  0.00  0.00    +0.070 C 
ATOM      7  C   UNL     1      20.179   7.033  21.941  0.00  0.00    +0.028 C 
ATOM      8  C   UNL     1      20.011   5.106  20.464  0.00  0.00    +0.096 C 
ATOM      9  C   UNL     1      20.931   5.819  22.473  0.00  0.00    +0.085 C 
ENDROOT
BRANCH   6  10
ATOM      3  N   UNL     1      17.312   7.067  21.636  0.00  0.00    -0.341 N 
ATOM      4  N   UNL     1      17.296   6.545  19.476  0.00  0.00    -0.232 NA
ATOM     10  C   UNL     1      18.049   6.717  20.539  0.00  0.00    +0.113 A 
ATOM     12  C   UNL     1      15.996   7.125  21.256  0.00  0.00    +0.070 A 
ATOM     14  C   UNL     1      16.012   6.795  19.903  0.00  0.00    +0.089 A 
ATOM     15  C   UNL     1      14.829   7.429  21.956  0.00  0.00    +0.073 A 
ATOM     16  C   UNL     1      14.801   6.761  19.191  0.00  0.00    +0.033 A 
ATOM     18  C   UNL     1      13.632   7.391  21.232  0.00  0.00    +0.122 A 
ATOM     19  C   UNL     1      13.616   7.062  19.875  0.00  0.00    +0.048 A 
ATOM     24  H   UNL     1      17.669   7.251  22.564  0.00  0.00    +0.167 HD
BRANCH  18   1
ATOM      1  O   UNL     1      12.459   7.678  21.867  0.00  0.00    -0.495 OA
ATOM     23  C   UNL     1      11.381   6.763  21.680  0.00  0.00    +0.277 C 
ENDBRANCH  18   1
ENDBRANCH   6  10
BRANCH   2  11
ATOM     11  C   UNL     1      21.680   3.711  21.541  0.00  0.00    +0.139 C 
BRANCH  11  13
ATOM      5  N   UNL     1      23.639   4.434  20.292  0.00  0.00    -0.259 NA
ATOM     13  C   UNL     1      23.064   3.445  21.013  0.00  0.00    +0.055 A 
ATOM     17  C   UNL     1      23.672   2.229  21.283  0.00  0.00    +0.024 A 
ATOM     20  C   UNL     1      24.951   2.016  20.781  0.00  0.00    +0.003 A 
ATOM     21  C   UNL     1      24.881   4.191  19.821  0.00  0.00    +0.111 A 
ATOM     22  C   UNL     1      25.574   3.010  20.036  0.00  0.00    +0.020 A 
ENDBRANCH  11  13
ENDBRANCH   2  11
TORSDOF 4
ENDMDL
MODEL 3
REMARK VINA RESULT:      -6.5     27.130     28.952
REMARK  Name = 45784296
REMARK  5 active torsions:
REMARK  status: ('A' for Active; 'I' for Inactive)
REMARK    1  A    between atoms: O_1  and  C_18
REMARK    2  A    between atoms: O_1  and  C_23
REMARK    3  A    between atoms: N_2  and  C_11
REMARK    4  A    between atoms: C_6  and  C_10
REMARK    5  A    between atoms: C_11  and  C_13
REMARK                            x       y       z     vdW  Elec       q    Type
REMARK                         _______ _______ _______ _____ _____    ______ ____
ROOT
ATOM      2  N   UNL     1      -2.569 -11.246  12.647  0.00  0.00    -0.296 NA
ATOM      6  C   UNL     1      -2.850 -10.535  14.865  0.00  0.00    +0.070 C 
ATOM      7  C   UNL     1      -1.639 -11.481  14.777  0.00  0.00    +0.028 C 
ATOM      8  C   UNL     1      -3.612 -10.758  13.551  0.00  0.00    +0.096 C 
ATOM      9  C   UNL     1      -1.796 -12.200  13.443  0.00  0.00    +0.085 C 
ENDROOT
BRANCH   6  10
ATOM      3  N   UNL     1      -5.014 -10.296  16.114  0.00  0.00    -0.341 N 
ATOM      4  N   UNL     1      -3.364 -11.293  17.221  0.00  0.00    -0.232 NA
ATOM     10  C   UNL     1      -3.716 -10.726  16.088  0.00  0.00    +0.113 A 
ATOM     12  C   UNL     1      -5.533 -10.606  17.344  0.00  0.00    +0.070 A 
ATOM     14  C   UNL     1      -4.484 -11.228  18.017  0.00  0.00    +0.089 A 
ATOM     15  C   UNL     1      -6.792 -10.403  17.910  0.00  0.00    +0.073 A 
ATOM     16  C   UNL     1      -4.685 -11.680  19.332  0.00  0.00    +0.033 A 
ATOM     18  C   UNL     1      -6.975 -10.860  19.220  0.00  0.00    +0.122 A 
ATOM     19  C   UNL     1      -5.941 -11.486  19.920  0.00  0.00    +0.048 A 
ATOM     24  H   UNL     1      -5.506  -9.832  15.362  0.00  0.00    +0.167 HD
BRANCH  18   1
ATOM      1  O   UNL     1      -8.186 -10.687  19.823  0.00  0.00    -0.495 OA
ATOM     23  C   UNL     1      -9.195 -11.653  19.537  0.00  0.00    +0.277 C 
ENDBRANCH  18   1
ENDBRANCH   6  10
BRANCH   2  11
ATOM     11  C   UNL     1      -3.116 -11.847  11.440  0.00  0.00    +0.139 C 
BRANCH  11  13
ATOM      5  N   UNL     1      -5.160 -11.145  10.323  0.00  0.00    -0.259 NA
ATOM     13  C   UNL     1      -3.873 -10.847  10.609  0.00  0.00    +0.055 A 
ATOM     17  C   UNL     1      -3.232  -9.693  10.183  0.00  0.00    +0.024 A 
ATOM     20  C   UNL     1      -3.960  -8.790   9.417  0.00  0.00    +0.003 A 
ATOM     21  C   UNL     1      -5.836 -10.244   9.577  0.00  0.00    +0.111 A 
ATOM     22  C   UNL     1      -5.287  -9.062   9.104  0.00  0.00    +0.020 A 
ENDBRANCH  11  13
ENDBRANCH   2  11
TORSDOF 4
ENDMDL
MODEL 4
REMARK VINA RESULT:      -6.5      3.091      5.180
REMARK  Name = 45784296
REMARK  5 active torsions:
REMARK  status: ('A' for Active; 'I' for Inactive)
REMARK    1  A    between atoms: O_1  and  C_18
REMARK    2  A    between atoms: O_1  and  C_23
REMARK    3  A    between atoms: N_2  and  C_11
REMARK    4  A    between atoms: C_6  and  C_10
REMARK    5  A    between atoms: C_11  and  C_13
REMARK                            x       y       z     vdW  Elec       q    Type
REMARK                         _______ _______ _______ _____ _____    ______ ____
ROOT
ATOM      2  N   UNL     1      15.684   7.656  20.941  0.00  0.00    -0.296 NA
ATOM      6  C   UNL     1      17.926   7.199  20.423  0.00  0.00    +0.070 C 
ATOM      7  C   UNL     1      17.010   6.266  19.613  0.00  0.00    +0.028 C 
ATOM      8  C   UNL     1      17.022   7.769  21.526  0.00  0.00    +0.096 C 
ATOM      9  C   UNL     1      15.657   6.336  20.312  0.00  0.00    +0.085 C 
ENDROOT
BRANCH   6  10
ATOM      3  N   UNL     1      19.879   5.635  20.227  0.00  0.00    -0.341 N 
ATOM      4  N   UNL     1      19.723   6.751  22.142  0.00  0.00    -0.232 NA
ATOM     10  C   UNL     1      19.176   6.547  20.965  0.00  0.00    +0.113 A 
ATOM     12  C   UNL     1      20.950   5.224  20.978  0.00  0.00    +0.070 A 
ATOM     14  C   UNL     1      20.831   5.935  22.169  0.00  0.00    +0.089 A 
ATOM     15  C   UNL     1      21.982   4.320  20.726  0.00  0.00    +0.073 A 
ATOM     16  C   UNL     1      21.788   5.746  23.179  0.00  0.00    +0.033 A 
ATOM     18  C   UNL     1      22.927   4.144  21.742  0.00  0.00    +0.122 A 
ATOM     19  C   UNL     1      22.833   4.842  22.948  0.00  0.00    +0.048 A 
ATOM     24  H   UNL     1      19.653   5.317  19.293  0.00  0.00    +0.167 HD
BRANCH  18   1
ATOM      1  O   UNL     1      23.958   3.271  21.551  0.00  0.00    -0.495 OA
ATOM     23  C   UNL     1      23.662   2.063  20.853  0.00  0.00    +0.277 C 
ENDBRANCH  18   1
ENDBRANCH   6  10
BRANCH   2  11
ATOM     11  C   UNL     1      14.630   7.819  21.931  0.00  0.00    +0.139 C 
BRANCH  11  13
ATOM      5  N   UNL     1      12.265   7.293  21.709  0.00  0.00    -0.259 NA
ATOM     13  C   UNL     1      13.292   8.067  21.289  0.00  0.00    +0.055 A 
ATOM     17  C   UNL     1      13.174   9.052  20.321  0.00  0.00    +0.024 A 
ATOM     20  C   UNL     1      11.923   9.256  19.749  0.00  0.00    +0.003 A 
ATOM     21  C   UNL     1      11.065   7.520  21.130  0.00  0.00    +0.111 A 
ATOM     22  C   UNL     1      10.844   8.480  20.155  0.00  0.00    +0.020 A 
ENDBRANCH  11  13
ENDBRANCH   2  11
TORSDOF 4
ENDMDL
MODEL 5
REMARK VINA RESULT:      -6.4     13.974     16.890
REMARK  Name = 45784296
REMARK  5 active torsions:
REMARK  status: ('A' for Active; 'I' for Inactive)
REMARK    1  A    between atoms: O_1  and  C_18
REMARK    2  A    between atoms: O_1  and  C_23
REMARK    3  A    between atoms: N_2  and  C_11
REMARK    4  A    between atoms: C_6  and  C_10
REMARK    5  A    between atoms: C_11  and  C_13
REMARK                            x       y       z     vdW  Elec       q    Type
REMARK                         _______ _______ _______ _____ _____    ______ ____
ROOT
ATOM      2  N   UNL     1      16.305   8.682   5.190  0.00  0.00    -0.296 NA
ATOM      6  C   UNL     1      14.219   7.610   5.152  0.00  0.00    +0.070 C 
ATOM      7  C   UNL     1      14.224   8.762   4.132  0.00  0.00    +0.028 C 
ATOM      8  C   UNL     1      15.432   7.883   6.053  0.00  0.00    +0.096 C 
ATOM      9  C   UNL     1      15.412   9.632   4.526  0.00  0.00    +0.085 C 
ENDROOT
BRANCH   6  10
ATOM      3  N   UNL     1      12.673   6.326   6.655  0.00  0.00    -0.341 N 
ATOM      4  N   UNL     1      11.950   8.325   6.004  0.00  0.00    -0.232 NA
ATOM     10  C   UNL     1      12.932   7.455   5.928  0.00  0.00    +0.113 A 
ATOM     12  C   UNL     1      11.442   6.478   7.240  0.00  0.00    +0.070 A 
ATOM     14  C   UNL     1      11.011   7.734   6.818  0.00  0.00    +0.089 A 
ATOM     15  C   UNL     1      10.691   5.652   8.075  0.00  0.00    +0.073 A 
ATOM     16  C   UNL     1       9.760   8.209   7.246  0.00  0.00    +0.033 A 
ATOM     18  C   UNL     1       9.448   6.140   8.492  0.00  0.00    +0.122 A 
ATOM     19  C   UNL     1       8.988   7.395   8.086  0.00  0.00    +0.048 A 
ATOM     24  H   UNL     1      13.278   5.521   6.748  0.00  0.00    +0.167 HD
BRANCH  18   1
ATOM      1  O   UNL     1       8.670   5.374   9.310  0.00  0.00    -0.495 OA
ATOM     23  C   UNL     1       9.343   4.580  10.284  0.00  0.00    +0.277 C 
ENDBRANCH  18   1
ENDBRANCH   6  10
BRANCH   2  11
ATOM     11  C   UNL     1      17.364   9.347   5.935  0.00  0.00    +0.139 C 
BRANCH  11  13
ATOM      5  N   UNL     1      19.492   8.625   6.866  0.00  0.00    -0.259 NA
ATOM     13  C   UNL     1      18.685   8.643   5.782  0.00  0.00    +0.055 A 
ATOM     17  C   UNL     1      19.007   8.058   4.567  0.00  0.00    +0.024 A 
ATOM     20  C   UNL     1      20.234   7.415   4.459  0.00  0.00    +0.003 A 
ATOM     21  C   UNL     1      20.677   7.991   6.723  0.00  0.00    +0.111 A 
ATOM     22  C   UNL     1      21.091   7.376   5.552  0.00  0.00    +0.020 A 
ENDBRANCH  11  13
ENDBRANCH   2  11
TORSDOF 4
ENDMDL
MODEL 6
REMARK VINA RESULT:      -6.3     29.824     31.403
REMARK  Name = 45784296
REMARK  5 active torsions:
REMARK  status: ('A' for Active; 'I' for Inactive)
REMARK    1  A    between atoms: O_1  and  C_18
REMARK    2  A    between atoms: O_1  and  C_23
REMARK    3  A    between atoms: N_2  and  C_11
REMARK    4  A    between atoms: C_6  and  C_10
REMARK    5  A    between atoms: C_11  and  C_13
REMARK                            x       y       z     vdW  Elec       q    Type
REMARK                         _______ _______ _______ _____ _____    ______ ____
ROOT
ATOM      2  N   UNL     1     -14.601   2.448  30.993  0.00  0.00    -0.296 NA
ATOM      6  C   UNL     1     -16.132   2.140  29.242  0.00  0.00    +0.070 C 
ATOM      7  C   UNL     1     -15.538   0.781  29.652  0.00  0.00    +0.028 C 
ATOM      8  C   UNL     1     -15.192   3.179  29.870  0.00  0.00    +0.096 C 
ATOM      9  C   UNL     1     -14.291   1.122  30.457  0.00  0.00    +0.085 C 
ENDROOT
BRANCH   6  10
ATOM      3  N   UNL     1     -15.637   3.310  27.077  0.00  0.00    -0.341 N 
ATOM      4  N   UNL     1     -17.090   1.632  26.959  0.00  0.00    -0.232 NA
ATOM     10  C   UNL     1     -16.311   2.331  27.754  0.00  0.00    +0.113 A 
ATOM     12  C   UNL     1     -16.004   3.236  25.758  0.00  0.00    +0.070 A 
ATOM     14  C   UNL     1     -16.912   2.181  25.710  0.00  0.00    +0.089 A 
ATOM     15  C   UNL     1     -15.633   3.978  24.637  0.00  0.00    +0.073 A 
ATOM     16  C   UNL     1     -17.493   1.832  24.480  0.00  0.00    +0.033 A 
ATOM     18  C   UNL     1     -16.220   3.617  23.420  0.00  0.00    +0.122 A 
ATOM     19  C   UNL     1     -17.134   2.564  23.341  0.00  0.00    +0.048 A 
ATOM     24  H   UNL     1     -14.983   3.972  27.475  0.00  0.00    +0.167 HD
BRANCH  18   1
ATOM      1  O   UNL     1     -15.894   4.309  22.291  0.00  0.00    -0.495 OA
ATOM     23  C   UNL     1     -14.639   4.985  22.287  0.00  0.00    +0.277 C 
ENDBRANCH  18   1
ENDBRANCH   6  10
BRANCH   2  11
ATOM     11  C   UNL     1     -13.426   3.115  31.533  0.00  0.00    +0.139 C 
BRANCH  11  13
ATOM      5  N   UNL     1     -14.222   3.529  33.794  0.00  0.00    -0.259 NA
ATOM     13  C   UNL     1     -13.783   4.073  32.637  0.00  0.00    +0.055 A 
ATOM     17  C   UNL     1     -13.649   5.436  32.424  0.00  0.00    +0.024 A 
ATOM     20  C   UNL     1     -13.986   6.294  33.464  0.00  0.00    +0.003 A 
ATOM     21  C   UNL     1     -14.541   4.393  34.782  0.00  0.00    +0.111 A 
ATOM     22  C   UNL     1     -14.441   5.771  34.669  0.00  0.00    +0.020 A 
ENDBRANCH  11  13
ENDBRANCH   2  11
TORSDOF 4
ENDMDL
MODEL 7
REMARK VINA RESULT:      -6.1     27.776     29.927
REMARK  Name = 45784296
REMARK  5 active torsions:
REMARK  status: ('A' for Active; 'I' for Inactive)
REMARK    1  A    between atoms: O_1  and  C_18
REMARK    2  A    between atoms: O_1  and  C_23
REMARK    3  A    between atoms: N_2  and  C_11
REMARK    4  A    between atoms: C_6  and  C_10
REMARK    5  A    between atoms: C_11  and  C_13
REMARK                            x       y       z     vdW  Elec       q    Type
REMARK                         _______ _______ _______ _____ _____    ______ ____
ROOT
ATOM      2  N   UNL     1     -11.847  -7.264  14.730  0.00  0.00    -0.296 NA
ATOM      6  C   UNL     1     -10.679  -8.324  16.467  0.00  0.00    +0.070 C 
ATOM      7  C   UNL     1     -10.845  -6.830  16.794  0.00  0.00    +0.028 C 
ATOM      8  C   UNL     1     -10.992  -8.430  14.967  0.00  0.00    +0.096 C 
ATOM      9  C   UNL     1     -11.211  -6.173  15.469  0.00  0.00    +0.085 C 
ENDROOT
BRANCH   6  10
ATOM      3  N   UNL     1      -8.260  -8.796  15.990  0.00  0.00    -0.341 N 
ATOM      4  N   UNL     1      -9.031  -9.561  17.929  0.00  0.00    -0.232 NA
ATOM     10  C   UNL     1      -9.334  -8.908  16.830  0.00  0.00    +0.113 A 
ATOM     12  C   UNL     1      -7.195  -9.418  16.587  0.00  0.00    +0.070 A 
ATOM     14  C   UNL     1      -7.701  -9.888  17.796  0.00  0.00    +0.089 A 
ATOM     15  C   UNL     1      -5.872  -9.605  16.187  0.00  0.00    +0.073 A 
ATOM     16  C   UNL     1      -6.852 -10.587  18.670  0.00  0.00    +0.033 A 
ATOM     18  C   UNL     1      -5.039 -10.304  17.069  0.00  0.00    +0.122 A 
ATOM     19  C   UNL     1      -5.519 -10.787  18.288  0.00  0.00    +0.048 A 
ATOM     24  H   UNL     1      -8.250  -8.337  15.089  0.00  0.00    +0.167 HD
BRANCH  18   1
ATOM      1  O   UNL     1      -3.736 -10.516  16.728  0.00  0.00    -0.495 OA
ATOM     23  C   UNL     1      -3.475 -10.918  15.385  0.00  0.00    +0.277 C 
ENDBRANCH  18   1
ENDBRANCH   6  10
BRANCH   2  11
ATOM     11  C   UNL     1     -11.993  -6.962  13.314  0.00  0.00    +0.139 C 
BRANCH  11  13
ATOM      5  N   UNL     1     -14.136  -5.832  13.532  0.00  0.00    -0.259 NA
ATOM     13  C   UNL     1     -12.862  -5.756  13.085  0.00  0.00    +0.055 A 
ATOM     17  C   UNL     1     -12.333  -4.648  12.441  0.00  0.00    +0.024 A 
ATOM     20  C   UNL     1     -13.163  -3.550  12.246  0.00  0.00    +0.003 A 
ATOM     21  C   UNL     1     -14.913  -4.746  13.325  0.00  0.00    +0.111 A 
ATOM     22  C   UNL     1     -14.478  -3.591  12.693  0.00  0.00    +0.020 A 
ENDBRANCH  11  13
ENDBRANCH   2  11
TORSDOF 4
ENDMDL
MODEL 8
REMARK VINA RESULT:      -6.0     27.186     30.163
REMARK  Name = 45784296
REMARK  5 active torsions:
REMARK  status: ('A' for Active; 'I' for Inactive)
REMARK    1  A    between atoms: O_1  and  C_18
REMARK    2  A    between atoms: O_1  and  C_23
REMARK    3  A    between atoms: N_2  and  C_11
REMARK    4  A    between atoms: C_6  and  C_10
REMARK    5  A    between atoms: C_11  and  C_13
REMARK                            x       y       z     vdW  Elec       q    Type
REMARK                         _______ _______ _______ _____ _____    ______ ____
ROOT
ATOM      2  N   UNL     1      -6.109 -10.785  16.588  0.00  0.00    -0.296 NA
ATOM      6  C   UNL     1      -7.773  -9.285  17.283  0.00  0.00    +0.070 C 
ATOM      7  C   UNL     1      -7.864 -10.576  18.115  0.00  0.00    +0.028 C 
ATOM      8  C   UNL     1      -6.895  -9.659  16.080  0.00  0.00    +0.096 C 
ATOM      9  C   UNL     1      -7.064 -11.608  17.330  0.00  0.00    +0.085 C 
ENDROOT
BRANCH   6  10
ATOM      3  N   UNL     1      -9.177  -7.582  16.088  0.00  0.00    -0.341 N 
ATOM      4  N   UNL     1     -10.295  -9.138  17.214  0.00  0.00    -0.232 NA
ATOM     10  C   UNL     1      -9.104  -8.694  16.880  0.00  0.00    +0.113 A 
ATOM     12  C   UNL     1     -10.503  -7.289  15.898  0.00  0.00    +0.070 A 
ATOM     14  C   UNL     1     -11.181  -8.274  16.611  0.00  0.00    +0.089 A 
ATOM     15  C   UNL     1     -11.149  -6.278  15.186  0.00  0.00    +0.073 A 
ATOM     16  C   UNL     1     -12.585  -8.267  16.626  0.00  0.00    +0.033 A 
ATOM     18  C   UNL     1     -12.547  -6.285  15.211  0.00  0.00    +0.122 A 
ATOM     19  C   UNL     1     -13.255  -7.260  15.918  0.00  0.00    +0.048 A 
ATOM     24  H   UNL     1      -8.395  -7.065  15.708  0.00  0.00    +0.167 HD
BRANCH  18   1
ATOM      1  O   UNL     1     -13.232  -5.320  14.533  0.00  0.00    -0.495 OA
ATOM     23  C   UNL     1     -12.571  -4.719  13.422  0.00  0.00    +0.277 C 
ENDBRANCH  18   1
ENDBRANCH   6  10
BRANCH   2  11
ATOM     11  C   UNL     1      -5.449 -11.527  15.525  0.00  0.00    +0.139 C 
BRANCH  11  13
ATOM      5  N   UNL     1      -3.259 -11.048  16.470  0.00  0.00    -0.259 NA
ATOM     13  C   UNL     1      -4.016 -11.103  15.351  0.00  0.00    +0.055 A 
ATOM     17  C   UNL     1      -3.547 -10.794  14.083  0.00  0.00    +0.024 A 
ATOM     20  C   UNL     1      -2.218 -10.407  13.957  0.00  0.00    +0.003 A 
ATOM     21  C   UNL     1      -1.973 -10.667  16.309  0.00  0.00    +0.111 A 
ATOM     22  C   UNL     1      -1.409 -10.340  15.085  0.00  0.00    +0.020 A 
ENDBRANCH  11  13
ENDBRANCH   2  11
TORSDOF 4
ENDMDL
MODEL 9
REMARK VINA RESULT:      -6.0      4.923     11.357
REMARK  Name = 45784296
REMARK  5 active torsions:
REMARK  status: ('A' for Active; 'I' for Inactive)
REMARK    1  A    between atoms: O_1  and  C_18
REMARK    2  A    between atoms: O_1  and  C_23
REMARK    3  A    between atoms: N_2  and  C_11
REMARK    4  A    between atoms: C_6  and  C_10
REMARK    5  A    between atoms: C_11  and  C_13
REMARK                            x       y       z     vdW  Elec       q    Type
REMARK                         _______ _______ _______ _____ _____    ______ ____
ROOT
ATOM      2  N   UNL     1      22.629   3.910  22.289  0.00  0.00    -0.296 NA
ATOM      6  C   UNL     1      21.392   5.295  20.855  0.00  0.00    +0.070 C 
ATOM      7  C   UNL     1      22.338   6.154  21.711  0.00  0.00    +0.028 C 
ATOM      8  C   UNL     1      21.357   3.933  21.564  0.00  0.00    +0.096 C 
ATOM      9  C   UNL     1      22.761   5.250  22.862  0.00  0.00    +0.085 C 
ENDROOT
BRANCH   6  10
ATOM      3  N   UNL     1      19.148   5.351  19.731  0.00  0.00    -0.341 N 
ATOM      4  N   UNL     1      19.501   6.921  21.265  0.00  0.00    -0.232 NA
ATOM     10  C   UNL     1      20.017   5.884  20.644  0.00  0.00    +0.113 A 
ATOM     12  C   UNL     1      17.996   6.094  19.766  0.00  0.00    +0.070 A 
ATOM     14  C   UNL     1      18.241   7.068  20.731  0.00  0.00    +0.089 A 
ATOM     15  C   UNL     1      16.798   6.001  19.059  0.00  0.00    +0.073 A 
ATOM     16  C   UNL     1      17.243   8.013  21.021  0.00  0.00    +0.033 A 
ATOM     18  C   UNL     1      15.814   6.949  19.360  0.00  0.00    +0.122 A 
ATOM     19  C   UNL     1      16.031   7.939  20.322  0.00  0.00    +0.048 A 
ATOM     24  H   UNL     1      19.321   4.552  19.135  0.00  0.00    +0.167 HD
BRANCH  18   1
ATOM      1  O   UNL     1      14.622   6.907  18.699  0.00  0.00    -0.495 OA
ATOM     23  C   UNL     1      13.508   7.532  19.333  0.00  0.00    +0.277 C 
ENDBRANCH  18   1
ENDBRANCH   6  10
BRANCH   2  11
ATOM     11  C   UNL     1      22.672   2.868  23.303  0.00  0.00    +0.139 C 
BRANCH  11  13
ATOM      5  N   UNL     1      24.367   1.932  21.831  0.00  0.00    -0.259 NA
ATOM     13  C   UNL     1      23.775   1.878  23.045  0.00  0.00    +0.055 A 
ATOM     17  C   UNL     1      24.128   0.978  24.039  0.00  0.00    +0.024 A 
ATOM     20  C   UNL     1      25.152   0.078  23.768  0.00  0.00    +0.003 A 
ATOM     21  C   UNL     1      25.357   1.042  21.604  0.00  0.00    +0.111 A 
ATOM     22  C   UNL     1      25.784   0.104  22.531  0.00  0.00    +0.020 A 
ENDBRANCH  11  13
ENDBRANCH   2  11
TORSDOF 4
ENDMDL
MODEL 10
REMARK VINA RESULT:      -6.0     28.239     31.232
REMARK  Name = 45784296
REMARK  5 active torsions:
REMARK  status: ('A' for Active; 'I' for Inactive)
REMARK    1  A    between atoms: O_1  and  C_18
REMARK    2  A    between atoms: O_1  and  C_23
REMARK    3  A    between atoms: N_2  and  C_11
REMARK    4  A    between atoms: C_6  and  C_10
REMARK    5  A    between atoms: C_11  and  C_13
REMARK                            x       y       z     vdW  Elec       q    Type
REMARK                         _______ _______ _______ _____ _____    ______ ____
ROOT
ATOM      2  N   UNL     1      -9.350  -8.920  16.775  0.00  0.00    -0.296 NA
ATOM      6  C   UNL     1     -10.919  -7.184  16.603  0.00  0.00    +0.070 C 
ATOM      7  C   UNL     1     -11.551  -8.377  17.340  0.00  0.00    +0.028 C 
ATOM      8  C   UNL     1      -9.662  -7.761  15.935  0.00  0.00    +0.096 C 
ATOM      9  C   UNL     1     -10.641  -9.560  17.029  0.00  0.00    +0.085 C 
ENDROOT
BRANCH   6  10
ATOM      3  N   UNL     1     -11.355  -5.564  14.736  0.00  0.00    -0.341 N 
ATOM      4  N   UNL     1     -13.133  -6.650  15.509  0.00  0.00    -0.232 NA
ATOM     10  C   UNL     1     -11.835  -6.484  15.627  0.00  0.00    +0.113 A 
ATOM     12  C   UNL     1     -12.413  -5.107  13.994  0.00  0.00    +0.070 A 
ATOM     14  C   UNL     1     -13.512  -5.799  14.495  0.00  0.00    +0.089 A 
ATOM     15  C   UNL     1     -12.502  -4.176  12.959  0.00  0.00    +0.073 A 
ATOM     16  C   UNL     1     -14.782  -5.562  13.944  0.00  0.00    +0.033 A 
ATOM     18  C   UNL     1     -13.774  -3.952  12.421  0.00  0.00    +0.122 A 
ATOM     19  C   UNL     1     -14.895  -4.631  12.904  0.00  0.00    +0.048 A 
ATOM     24  H   UNL     1     -10.392  -5.271  14.638  0.00  0.00    +0.167 HD
BRANCH  18   1
ATOM      1  O   UNL     1     -13.920  -3.052  11.407  0.00  0.00    -0.495 OA
ATOM     23  C   UNL     1     -13.544  -3.483  10.100  0.00  0.00    +0.277 C 
ENDBRANCH  18   1
ENDBRANCH   6  10
BRANCH   2  11
ATOM     11  C   UNL     1      -8.400  -9.824  16.144  0.00  0.00    +0.139 C 
BRANCH  11  13
ATOM      5  N   UNL     1      -6.011 -10.128  16.483  0.00  0.00    -0.259 NA
ATOM     13  C   UNL     1      -7.239 -10.137  17.048  0.00  0.00    +0.055 A 
ATOM     17  C   UNL     1      -7.475 -10.415  18.385  0.00  0.00    +0.024 A 
ATOM     20  C   UNL     1      -6.380 -10.700  19.194  0.00  0.00    +0.003 A 
ATOM     21  C   UNL     1      -4.971 -10.410  17.299  0.00  0.00    +0.111 A 
ATOM     22  C   UNL     1      -5.102 -10.700  18.649  0.00  0.00    +0.020 A 
ENDBRANCH  11  13
ENDBRANCH   2  11
TORSDOF 4
ENDMDL
