MODEL 1
REMARK VINA RESULT:      -6.9      0.000      0.000
REMARK  Name = 26745467
REMARK  7 active torsions:
REMARK  status: ('A' for Active; 'I' for Inactive)
REMARK    1  A    between atoms: S_2  and  N_7
REMARK    2  A    between atoms: S_2  and  C_17
REMARK    3  A    between atoms: O_5  and  C_16
REMARK    4  A    between atoms: O_5  and  C_29
REMARK    5  A    between atoms: N_8  and  C_18
REMARK    6  A    between atoms: C_11  and  C_16
REMARK    7  A    between atoms: C_18  and  C_21
REMARK                            x       y       z     vdW  Elec       q    Type
REMARK                         _______ _______ _______ _____ _____    ______ ____
ROOT
ATOM      7  N   UNL     1      -9.121 -10.035  16.997  0.00  0.00    -0.157 NA
ATOM      8  N   UNL     1      -5.689 -11.442  17.526  0.00  0.00    -0.328 N 
ATOM      9  N   UNL     1      -6.763 -13.390  17.745  0.00  0.00    -0.240 NA
ATOM     11  C   UNL     1      -9.817 -11.134  17.766  0.00  0.00    +0.194 C 
ATOM     12  C   UNL     1      -7.657  -9.835  17.324  0.00  0.00    +0.165 C 
ATOM     13  C   UNL     1      -9.132 -12.505  17.601  0.00  0.00    +0.089 C 
ATOM     14  C   UNL     1      -7.020 -11.156  17.475  0.00  0.00    +0.057 A 
ATOM     15  C   UNL     1      -7.657 -12.364  17.615  0.00  0.00    +0.066 A 
ATOM     19  C   UNL     1      -5.585 -12.802  17.689  0.00  0.00    +0.200 A 
ENDROOT
BRANCH   7   2
ATOM      2  S   UNL     1      -9.535  -9.914  15.336  0.00  0.00    +0.064 S 
ATOM      3  O   UNL     1     -10.445 -10.987  14.997  0.00  0.00    -0.153 OA
ATOM      4  O   UNL     1      -8.330  -9.688  14.567  0.00  0.00    -0.153 OA
BRANCH   2  17
ATOM     10  N   UNL     1     -11.293  -8.833  13.178  0.00  0.00    -0.253 NA
ATOM     17  C   UNL     1     -10.457  -8.409  15.358  0.00  0.00    +0.131 A 
ATOM     20  C   UNL     1     -11.236  -8.040  14.265  0.00  0.00    +0.097 A 
ATOM     22  C   UNL     1     -10.374  -7.612  16.501  0.00  0.00    +0.031 A 
ATOM     23  C   UNL     1     -11.950  -6.826  14.339  0.00  0.00    +0.002 A 
ATOM     24  C   UNL     1     -11.080  -6.417  16.567  0.00  0.00    +0.003 A 
ATOM     25  C   UNL     1     -11.868  -6.024  15.489  0.00  0.00    +0.010 A 
ATOM     28  C   UNL     1     -12.736  -6.454  13.239  0.00  0.00    +0.011 A 
ATOM     32  C   UNL     1     -12.063  -8.438  12.138  0.00  0.00    +0.111 A 
ATOM     33  C   UNL     1     -12.797  -7.268  12.118  0.00  0.00    +0.020 A 
ENDBRANCH   2  17
ENDBRANCH   7   2
BRANCH  11  16
ATOM      6  O   UNL     1      -9.243 -11.213  20.101  0.00  0.00    -0.249 OA
ATOM     16  C   UNL     1      -9.875 -10.688  19.193  0.00  0.00    +0.326 C 
BRANCH  16   5
ATOM      5  O   UNL     1     -10.726  -9.629  19.307  0.00  0.00    -0.467 OA
ATOM     29  C   UNL     1     -12.115  -9.964  19.396  0.00  0.00    +0.280 C 
ENDBRANCH  16   5
ENDBRANCH  11  16
BRANCH   8  18
ATOM     18  C   UNL     1      -4.591 -10.512  17.437  0.00  0.00    +0.158 C 
BRANCH  18  21
ATOM      1 CL   UNL     1      -1.706 -10.727  12.158  0.00  0.00    -0.084 Cl
ATOM     21  C   UNL     1      -3.868 -10.566  16.113  0.00  0.00    -0.028 A 
ATOM     26  C   UNL     1      -4.593 -10.593  14.923  0.00  0.00    +0.007 A 
ATOM     27  C   UNL     1      -2.473 -10.591  16.081  0.00  0.00    +0.007 A 
ATOM     30  C   UNL     1      -3.925 -10.643  13.700  0.00  0.00    +0.020 A 
ATOM     31  C   UNL     1      -1.805 -10.642  14.858  0.00  0.00    +0.020 A 
ATOM     34  C   UNL     1      -2.531 -10.668  13.668  0.00  0.00    +0.041 A 
ENDBRANCH  18  21
ENDBRANCH   8  18
TORSDOF 6
ENDMDL
MODEL 2
REMARK VINA RESULT:      -6.6      3.659      6.713
REMARK  Name = 26745467
REMARK  7 active torsions:
REMARK  status: ('A' for Active; 'I' for Inactive)
REMARK    1  A    between atoms: S_2  and  N_7
REMARK    2  A    between atoms: S_2  and  C_17
REMARK    3  A    between atoms: O_5  and  C_16
REMARK    4  A    between atoms: O_5  and  C_29
REMARK    5  A    between atoms: N_8  and  C_18
REMARK    6  A    between atoms: C_11  and  C_16
REMARK    7  A    between atoms: C_18  and  C_21
REMARK                            x       y       z     vdW  Elec       q    Type
REMARK                         _______ _______ _______ _____ _____    ______ ____
ROOT
ATOM      7  N   UNL     1      -7.559 -10.918  12.672  0.00  0.00    -0.157 NA
ATOM      8  N   UNL     1      -8.642  -9.996  16.138  0.00  0.00    -0.328 N 
ATOM      9  N   UNL     1     -10.447 -11.224  15.663  0.00  0.00    -0.240 NA
ATOM     11  C   UNL     1      -8.965 -11.145  12.167  0.00  0.00    +0.194 C 
ATOM     12  C   UNL     1      -7.437 -10.031  13.892  0.00  0.00    +0.165 C 
ATOM     13  C   UNL     1      -9.898 -11.735  13.243  0.00  0.00    +0.089 C 
ATOM     14  C   UNL     1      -8.520 -10.369  14.833  0.00  0.00    +0.057 A 
ATOM     15  C   UNL     1      -9.640 -11.117  14.564  0.00  0.00    +0.066 A 
ATOM     19  C   UNL     1      -9.819 -10.536  16.595  0.00  0.00    +0.200 A 
ENDROOT
BRANCH   7   2
ATOM      2  S   UNL     1      -6.531 -12.293  12.646  0.00  0.00    +0.064 S 
ATOM      3  O   UNL     1      -6.741 -13.016  11.410  0.00  0.00    -0.153 OA
ATOM      4  O   UNL     1      -6.612 -12.964  13.925  0.00  0.00    -0.153 OA
BRANCH   2  17
ATOM     10  N   UNL     1      -5.514 -10.550  10.444  0.00  0.00    -0.253 NA
ATOM     17  C   UNL     1      -4.959 -11.499  12.548  0.00  0.00    +0.131 A 
ATOM     20  C   UNL     1      -4.629 -10.712  11.447  0.00  0.00    +0.097 A 
ATOM     22  C   UNL     1      -4.066 -11.688  13.606  0.00  0.00    +0.031 A 
ATOM     23  C   UNL     1      -3.358 -10.102  11.424  0.00  0.00    +0.002 A 
ATOM     24  C   UNL     1      -2.815 -11.084  13.576  0.00  0.00    +0.003 A 
ATOM     25  C   UNL     1      -2.460 -10.292  12.488  0.00  0.00    +0.010 A 
ATOM     28  C   UNL     1      -3.026  -9.310  10.316  0.00  0.00    +0.011 A 
ATOM     32  C   UNL     1      -5.155  -9.778   9.393  0.00  0.00    +0.111 A 
ATOM     33  C   UNL     1      -3.934  -9.141   9.281  0.00  0.00    +0.020 A 
ENDBRANCH   2  17
ENDBRANCH   7   2
BRANCH  11  16
ATOM      6  O   UNL     1     -10.526  -9.327  11.943  0.00  0.00    -0.249 OA
ATOM     16  C   UNL     1      -9.449  -9.828  11.645  0.00  0.00    +0.326 C 
BRANCH  16   5
ATOM      5  O   UNL     1      -8.515  -9.298  10.805  0.00  0.00    -0.467 OA
ATOM     29  C   UNL     1      -9.031  -8.701   9.611  0.00  0.00    +0.280 C 
ENDBRANCH  16   5
ENDBRANCH  11  16
BRANCH   8  18
ATOM     18  C   UNL     1      -7.727  -9.185  16.903  0.00  0.00    +0.158 C 
BRANCH  18  21
ATOM      1 CL   UNL     1      -3.405 -12.379  19.614  0.00  0.00    -0.084 Cl
ATOM     21  C   UNL     1      -6.644  -9.986  17.583  0.00  0.00    -0.028 A 
ATOM     26  C   UNL     1      -5.448 -10.248  16.915  0.00  0.00    +0.007 A 
ATOM     27  C   UNL     1      -6.839 -10.465  18.879  0.00  0.00    +0.007 A 
ATOM     30  C   UNL     1      -4.446 -10.989  17.543  0.00  0.00    +0.020 A 
ATOM     31  C   UNL     1      -5.837 -11.206  19.506  0.00  0.00    +0.020 A 
ATOM     34  C   UNL     1      -4.642 -11.468  18.838  0.00  0.00    +0.041 A 
ENDBRANCH  18  21
ENDBRANCH   8  18
TORSDOF 6
ENDMDL
MODEL 3
REMARK VINA RESULT:      -6.4     18.342     21.336
REMARK  Name = 26745467
REMARK  7 active torsions:
REMARK  status: ('A' for Active; 'I' for Inactive)
REMARK    1  A    between atoms: S_2  and  N_7
REMARK    2  A    between atoms: S_2  and  C_17
REMARK    3  A    between atoms: O_5  and  C_16
REMARK    4  A    between atoms: O_5  and  C_29
REMARK    5  A    between atoms: N_8  and  C_18
REMARK    6  A    between atoms: C_11  and  C_16
REMARK    7  A    between atoms: C_18  and  C_21
REMARK                            x       y       z     vdW  Elec       q    Type
REMARK                         _______ _______ _______ _____ _____    ______ ____
ROOT
ATOM      7  N   UNL     1     -12.314   9.352  17.613  0.00  0.00    -0.157 NA
ATOM      8  N   UNL     1     -11.467  12.877  16.668  0.00  0.00    -0.328 N 
ATOM      9  N   UNL     1     -12.430  12.352  14.721  0.00  0.00    -0.240 NA
ATOM     11  C   UNL     1     -12.332   8.850  16.188  0.00  0.00    +0.194 C 
ATOM     12  C   UNL     1     -11.522  10.620  17.850  0.00  0.00    +0.165 C 
ATOM     13  C   UNL     1     -12.862   9.901  15.192  0.00  0.00    +0.089 C 
ATOM     14  C   UNL     1     -11.776  11.552  16.737  0.00  0.00    +0.057 A 
ATOM     15  C   UNL     1     -12.360  11.252  15.531  0.00  0.00    +0.066 A 
ATOM     19  C   UNL     1     -11.882  13.315  15.434  0.00  0.00    +0.200 A 
ENDROOT
BRANCH   7   2
ATOM      2  S   UNL     1     -13.802   9.236  18.460  0.00  0.00    +0.064 S 
ATOM      3  O   UNL     1     -14.805   8.679  17.578  0.00  0.00    -0.153 OA
ATOM      4  O   UNL     1     -14.038  10.476  19.167  0.00  0.00    -0.153 OA
BRANCH   2  17
ATOM     10  N   UNL     1     -15.676   7.609  20.121  0.00  0.00    -0.253 NA
ATOM     17  C   UNL     1     -13.383   8.003  19.650  0.00  0.00    +0.131 A 
ATOM     20  C   UNL     1     -14.379   7.326  20.350  0.00  0.00    +0.097 A 
ATOM     22  C   UNL     1     -12.029   7.735  19.862  0.00  0.00    +0.031 A 
ATOM     23  C   UNL     1     -13.984   6.351  21.289  0.00  0.00    +0.002 A 
ATOM     24  C   UNL     1     -11.647   6.774  20.789  0.00  0.00    +0.003 A 
ATOM     25  C   UNL     1     -12.622   6.081  21.502  0.00  0.00    +0.010 A 
ATOM     28  C   UNL     1     -14.986   5.669  21.993  0.00  0.00    +0.011 A 
ATOM     32  C   UNL     1     -16.611   6.928  20.821  0.00  0.00    +0.111 A 
ATOM     33  C   UNL     1     -16.322   5.957  21.760  0.00  0.00    +0.020 A 
ENDBRANCH   2  17
ENDBRANCH   7   2
BRANCH  11  16
ATOM      6  O   UNL     1     -10.157   7.958  16.698  0.00  0.00    -0.249 OA
ATOM     16  C   UNL     1     -10.937   8.411  15.871  0.00  0.00    +0.326 C 
BRANCH  16   5
ATOM      5  O   UNL     1     -10.690   8.598  14.543  0.00  0.00    -0.467 OA
ATOM     29  C   UNL     1     -10.343   7.418  13.810  0.00  0.00    +0.280 C 
ENDBRANCH  16   5
ENDBRANCH  11  16
BRANCH   8  18
ATOM     18  C   UNL     1     -10.823  13.678  17.680  0.00  0.00    +0.158 C 
BRANCH  18  21
ATOM      1 CL   UNL     1      -5.082  14.961  16.408  0.00  0.00    -0.084 Cl
ATOM     21  C   UNL     1      -9.384  13.999  17.362  0.00  0.00    -0.028 A 
ATOM     26  C   UNL     1      -8.567  13.034  16.775  0.00  0.00    +0.007 A 
ATOM     27  C   UNL     1      -8.870  15.263  17.655  0.00  0.00    +0.007 A 
ATOM     30  C   UNL     1      -7.236  13.331  16.481  0.00  0.00    +0.020 A 
ATOM     31  C   UNL     1      -7.539  15.560  17.361  0.00  0.00    +0.020 A 
ATOM     34  C   UNL     1      -6.723  14.594  16.774  0.00  0.00    +0.041 A 
ENDBRANCH  18  21
ENDBRANCH   8  18
TORSDOF 6
ENDMDL
MODEL 4
REMARK VINA RESULT:      -6.4      3.268      7.024
REMARK  Name = 26745467
REMARK  7 active torsions:
REMARK  status: ('A' for Active; 'I' for Inactive)
REMARK    1  A    between atoms: S_2  and  N_7
REMARK    2  A    between atoms: S_2  and  C_17
REMARK    3  A    between atoms: O_5  and  C_16
REMARK    4  A    between atoms: O_5  and  C_29
REMARK    5  A    between atoms: N_8  and  C_18
REMARK    6  A    between atoms: C_11  and  C_16
REMARK    7  A    between atoms: C_18  and  C_21
REMARK                            x       y       z     vdW  Elec       q    Type
REMARK                         _______ _______ _______ _____ _____    ______ ____
ROOT
ATOM      7  N   UNL     1      -6.048 -11.819  16.078  0.00  0.00    -0.157 NA
ATOM      8  N   UNL     1      -9.107 -12.039  18.230  0.00  0.00    -0.328 N 
ATOM      9  N   UNL     1      -7.664 -12.598  19.841  0.00  0.00    -0.240 NA
ATOM     11  C   UNL     1      -5.244 -12.782  16.919  0.00  0.00    +0.194 C 
ATOM     12  C   UNL     1      -7.552 -11.929  16.214  0.00  0.00    +0.165 C 
ATOM     13  C   UNL     1      -5.566 -12.674  18.423  0.00  0.00    +0.089 C 
ATOM     14  C   UNL     1      -7.885 -12.132  17.636  0.00  0.00    +0.057 A 
ATOM     15  C   UNL     1      -7.018 -12.480  18.641  0.00  0.00    +0.066 A 
ATOM     19  C   UNL     1      -8.922 -12.328  19.560  0.00  0.00    +0.200 A 
ENDROOT
BRANCH   7   2
ATOM      2  S   UNL     1      -5.425 -10.223  15.978  0.00  0.00    +0.064 S 
ATOM      3  O   UNL     1      -4.084 -10.205  16.521  0.00  0.00    -0.153 OA
ATOM      4  O   UNL     1      -6.432  -9.296  16.449  0.00  0.00    -0.153 OA
BRANCH   2  17
ATOM     10  N   UNL     1      -3.132 -11.007  14.234  0.00  0.00    -0.253 NA
ATOM     17  C   UNL     1      -5.303 -10.049  14.227  0.00  0.00    +0.131 A 
ATOM     20  C   UNL     1      -4.159 -10.465  13.551  0.00  0.00    +0.097 A 
ATOM     22  C   UNL     1      -6.388  -9.484  13.551  0.00  0.00    +0.031 A 
ATOM     23  C   UNL     1      -4.119 -10.301  12.151  0.00  0.00    +0.002 A 
ATOM     24  C   UNL     1      -6.340  -9.325  12.172  0.00  0.00    +0.003 A 
ATOM     25  C   UNL     1      -5.209  -9.733  11.471  0.00  0.00    +0.010 A 
ATOM     28  C   UNL     1      -2.967 -10.721  11.471  0.00  0.00    +0.011 A 
ATOM     32  C   UNL     1      -2.039 -11.399  13.540  0.00  0.00    +0.111 A 
ATOM     33  C   UNL     1      -1.907 -11.279  12.170  0.00  0.00    +0.020 A 
ENDBRANCH   2  17
ENDBRANCH   7   2
BRANCH  11  16
ATOM      6  O   UNL     1      -5.926 -15.087  17.042  0.00  0.00    -0.249 OA
ATOM     16  C   UNL     1      -5.508 -14.151  16.373  0.00  0.00    +0.326 C 
BRANCH  16   5
ATOM      5  O   UNL     1      -5.210 -14.176  15.042  0.00  0.00    -0.467 OA
ATOM     29  C   UNL     1      -3.858 -14.517  14.722  0.00  0.00    +0.280 C 
ENDBRANCH  16   5
ENDBRANCH  11  16
BRANCH   8  18
ATOM     18  C   UNL     1     -10.362 -11.710  17.600  0.00  0.00    +0.158 C 
BRANCH  18  21
ATOM      1 CL   UNL     1     -10.571  -6.072  15.500  0.00  0.00    -0.084 Cl
ATOM     21  C   UNL     1     -10.414 -10.297  17.074  0.00  0.00    -0.028 A 
ATOM     26  C   UNL     1     -10.719 -10.063  15.733  0.00  0.00    +0.007 A 
ATOM     27  C   UNL     1     -10.157  -9.224  17.928  0.00  0.00    +0.007 A 
ATOM     30  C   UNL     1     -10.767  -8.756  15.246  0.00  0.00    +0.020 A 
ATOM     31  C   UNL     1     -10.204  -7.917  17.441  0.00  0.00    +0.020 A 
ATOM     34  C   UNL     1     -10.509  -7.684  16.100  0.00  0.00    +0.041 A 
ENDBRANCH  18  21
ENDBRANCH   8  18
TORSDOF 6
ENDMDL
MODEL 5
REMARK VINA RESULT:      -6.3     26.334     29.450
REMARK  Name = 26745467
REMARK  7 active torsions:
REMARK  status: ('A' for Active; 'I' for Inactive)
REMARK    1  A    between atoms: S_2  and  N_7
REMARK    2  A    between atoms: S_2  and  C_17
REMARK    3  A    between atoms: O_5  and  C_16
REMARK    4  A    between atoms: O_5  and  C_29
REMARK    5  A    between atoms: N_8  and  C_18
REMARK    6  A    between atoms: C_11  and  C_16
REMARK    7  A    between atoms: C_18  and  C_21
REMARK                            x       y       z     vdW  Elec       q    Type
REMARK                         _______ _______ _______ _____ _____    ______ ____
ROOT
ATOM      7  N   UNL     1      11.820   5.961   0.794  0.00  0.00    -0.157 NA
ATOM      8  N   UNL     1      10.028   7.626   3.632  0.00  0.00    -0.328 N 
ATOM      9  N   UNL     1      11.536   9.249   3.340  0.00  0.00    -0.240 NA
ATOM     11  C   UNL     1      13.127   6.674   1.047  0.00  0.00    +0.194 C 
ATOM     12  C   UNL     1      10.877   5.884   1.975  0.00  0.00    +0.165 C 
ATOM     13  C   UNL     1      12.932   8.116   1.556  0.00  0.00    +0.089 C 
ATOM     14  C   UNL     1      10.893   7.180   2.679  0.00  0.00    +0.057 A 
ATOM     15  C   UNL     1      11.811   8.190   2.520  0.00  0.00    +0.066 A 
ATOM     19  C   UNL     1      10.456   8.878   3.999  0.00  0.00    +0.200 A 
ENDROOT
BRANCH   7   2
ATOM      2  S   UNL     1      11.085   6.275  -0.725  0.00  0.00    +0.064 S 
ATOM      3  O   UNL     1      11.904   7.213  -1.461  0.00  0.00    -0.153 OA
ATOM      4  O   UNL     1       9.673   6.518  -0.522  0.00  0.00    -0.153 OA
BRANCH   2  17
ATOM     10  N   UNL     1       9.669   5.262  -3.151  0.00  0.00    -0.253 NA
ATOM     17  C   UNL     1      11.259   4.692  -1.484  0.00  0.00    +0.131 A 
ATOM     20  C   UNL     1      10.524   4.366  -2.620  0.00  0.00    +0.097 A 
ATOM     22  C   UNL     1      12.154   3.788  -0.907  0.00  0.00    +0.031 A 
ATOM     23  C   UNL     1      10.704   3.086  -3.184  0.00  0.00    +0.002 A 
ATOM     24  C   UNL     1      12.327   2.528  -1.467  0.00  0.00    +0.003 A 
ATOM     25  C   UNL     1      11.605   2.176  -2.604  0.00  0.00    +0.010 A 
ATOM     28  C   UNL     1       9.964   2.758  -4.328  0.00  0.00    +0.011 A 
ATOM     32  C   UNL     1       8.974   4.906  -4.256  0.00  0.00    +0.111 A 
ATOM     33  C   UNL     1       9.084   3.678  -4.877  0.00  0.00    +0.020 A 
ENDBRANCH   2  17
ENDBRANCH   7   2
BRANCH  11  16
ATOM      6  O   UNL     1      14.595   6.271   2.910  0.00  0.00    -0.249 OA
ATOM     16  C   UNL     1      13.899   5.825   2.008  0.00  0.00    +0.326 C 
BRANCH  16   5
ATOM      5  O   UNL     1      13.701   4.508   1.715  0.00  0.00    -0.467 OA
ATOM     29  C   UNL     1      14.883   3.701   1.683  0.00  0.00    +0.280 C 
ENDBRANCH  16   5
ENDBRANCH  11  16
BRANCH   8  18
ATOM     18  C   UNL     1       8.885   6.929   4.169  0.00  0.00    +0.158 C 
BRANCH  18  21
ATOM      1 CL   UNL     1       9.718   4.961   9.796  0.00  0.00    -0.084 Cl
ATOM     21  C   UNL     1       9.094   6.436   5.579  0.00  0.00    -0.028 A 
ATOM     26  C   UNL     1       8.684   7.217   6.659  0.00  0.00    +0.007 A 
ATOM     27  C   UNL     1       9.699   5.199   5.803  0.00  0.00    +0.007 A 
ATOM     30  C   UNL     1       8.877   6.761   7.963  0.00  0.00    +0.020 A 
ATOM     31  C   UNL     1       9.893   4.743   7.108  0.00  0.00    +0.020 A 
ATOM     34  C   UNL     1       9.482   5.525   8.187  0.00  0.00    +0.041 A 
ENDBRANCH  18  21
ENDBRANCH   8  18
TORSDOF 6
ENDMDL
MODEL 6
REMARK VINA RESULT:      -6.3      2.995      4.497
REMARK  Name = 26745467
REMARK  7 active torsions:
REMARK  status: ('A' for Active; 'I' for Inactive)
REMARK    1  A    between atoms: S_2  and  N_7
REMARK    2  A    between atoms: S_2  and  C_17
REMARK    3  A    between atoms: O_5  and  C_16
REMARK    4  A    between atoms: O_5  and  C_29
REMARK    5  A    between atoms: N_8  and  C_18
REMARK    6  A    between atoms: C_11  and  C_16
REMARK    7  A    between atoms: C_18  and  C_21
REMARK                            x       y       z     vdW  Elec       q    Type
REMARK                         _______ _______ _______ _____ _____    ______ ____
ROOT
ATOM      7  N   UNL     1      -5.819 -11.039  15.258  0.00  0.00    -0.157 NA
ATOM      8  N   UNL     1      -2.733 -12.049  13.389  0.00  0.00    -0.328 N 
ATOM      9  N   UNL     1      -3.085 -14.046  14.329  0.00  0.00    -0.240 NA
ATOM     11  C   UNL     1      -5.659 -12.094  16.327  0.00  0.00    +0.194 C 
ATOM     12  C   UNL     1      -4.556 -10.666  14.512  0.00  0.00    +0.165 C 
ATOM     13  C   UNL     1      -5.057 -13.406  15.785  0.00  0.00    +0.089 C 
ATOM     14  C   UNL     1      -3.790 -11.894  14.235  0.00  0.00    +0.057 A 
ATOM     15  C   UNL     1      -3.984 -13.130  14.803  0.00  0.00    +0.066 A 
ATOM     19  C   UNL     1      -2.344 -13.363  13.480  0.00  0.00    +0.200 A 
ENDROOT
BRANCH   7   2
ATOM      2  S   UNL     1      -7.239 -11.161  14.301  0.00  0.00    +0.064 S 
ATOM      3  O   UNL     1      -7.838 -12.461  14.510  0.00  0.00    -0.153 OA
ATOM      4  O   UNL     1      -6.950 -10.678  12.968  0.00  0.00    -0.153 OA
BRANCH   2  17
ATOM     10  N   UNL     1      -9.762  -9.939  13.271  0.00  0.00    -0.253 NA
ATOM     17  C   UNL     1      -8.255  -9.962  15.104  0.00  0.00    +0.131 A 
ATOM     20  C   UNL     1      -9.409  -9.485  14.489  0.00  0.00    +0.097 A 
ATOM     22  C   UNL     1      -7.859  -9.513  16.367  0.00  0.00    +0.031 A 
ATOM     23  C   UNL     1     -10.182  -8.527  15.179  0.00  0.00    +0.002 A 
ATOM     24  C   UNL     1      -8.625  -8.569  17.040  0.00  0.00    +0.003 A 
ATOM     25  C   UNL     1      -9.784  -8.076  16.448  0.00  0.00    +0.010 A 
ATOM     28  C   UNL     1     -11.344  -8.048  14.560  0.00  0.00    +0.011 A 
ATOM     32  C   UNL     1     -10.891  -9.451  12.709  0.00  0.00    +0.111 A 
ATOM     33  C   UNL     1     -11.711  -8.513  13.306  0.00  0.00    +0.020 A 
ENDBRANCH   2  17
ENDBRANCH   7   2
BRANCH  11  16
ATOM      6  O   UNL     1      -4.772 -10.282  17.639  0.00  0.00    -0.249 OA
ATOM     16  C   UNL     1      -4.826 -11.483  17.410  0.00  0.00    +0.326 C 
BRANCH  16   5
ATOM      5  O   UNL     1      -4.154 -12.465  18.077  0.00  0.00    -0.467 OA
ATOM     29  C   UNL     1      -3.768 -12.143  19.417  0.00  0.00    +0.280 C 
ENDBRANCH  16   5
ENDBRANCH  11  16
BRANCH   8  18
ATOM     18  C   UNL     1      -2.124 -11.039  12.558  0.00  0.00    +0.158 C 
BRANCH  18  21
ATOM      1 CL   UNL     1      -5.202  -9.936   7.505  0.00  0.00    -0.084 Cl
ATOM     21  C   UNL     1      -2.895 -10.763  11.291  0.00  0.00    -0.028 A 
ATOM     26  C   UNL     1      -3.541 -11.805  10.627  0.00  0.00    +0.007 A 
ATOM     27  C   UNL     1      -2.962  -9.464  10.784  0.00  0.00    +0.007 A 
ATOM     30  C   UNL     1      -4.254 -11.549   9.455  0.00  0.00    +0.020 A 
ATOM     31  C   UNL     1      -3.675  -9.209   9.612  0.00  0.00    +0.020 A 
ATOM     34  C   UNL     1      -4.320 -10.252   8.948  0.00  0.00    +0.041 A 
ENDBRANCH  18  21
ENDBRANCH   8  18
TORSDOF 6
ENDMDL
MODEL 7
REMARK VINA RESULT:      -6.3      4.113      7.530
REMARK  Name = 26745467
REMARK  7 active torsions:
REMARK  status: ('A' for Active; 'I' for Inactive)
REMARK    1  A    between atoms: S_2  and  N_7
REMARK    2  A    between atoms: S_2  and  C_17
REMARK    3  A    between atoms: O_5  and  C_16
REMARK    4  A    between atoms: O_5  and  C_29
REMARK    5  A    between atoms: N_8  and  C_18
REMARK    6  A    between atoms: C_11  and  C_16
REMARK    7  A    between atoms: C_18  and  C_21
REMARK                            x       y       z     vdW  Elec       q    Type
REMARK                         _______ _______ _______ _____ _____    ______ ____
ROOT
ATOM      7  N   UNL     1      -4.723 -11.840  14.223  0.00  0.00    -0.157 NA
ATOM      8  N   UNL     1      -4.346 -10.306  10.826  0.00  0.00    -0.328 N 
ATOM      9  N   UNL     1      -3.628 -12.337  10.232  0.00  0.00    -0.240 NA
ATOM     11  C   UNL     1      -3.680 -12.906  13.987  0.00  0.00    +0.194 C 
ATOM     12  C   UNL     1      -4.618 -10.614  13.342  0.00  0.00    +0.165 C 
ATOM     13  C   UNL     1      -3.657 -13.406  12.528  0.00  0.00    +0.089 C 
ATOM     14  C   UNL     1      -4.292 -11.044  11.970  0.00  0.00    +0.057 A 
ATOM     15  C   UNL     1      -3.846 -12.284  11.581  0.00  0.00    +0.066 A 
ATOM     19  C   UNL     1      -3.937 -11.129   9.806  0.00  0.00    +0.200 A 
ENDROOT
BRANCH   7   2
ATOM      2  S   UNL     1      -6.315 -12.412  14.516  0.00  0.00    +0.064 S 
ATOM      3  O   UNL     1      -6.242 -13.728  15.111  0.00  0.00    -0.153 OA
ATOM      4  O   UNL     1      -7.124 -12.169  13.340  0.00  0.00    -0.153 OA
BRANCH   2  17
ATOM     10  N   UNL     1      -5.382 -12.303  17.350  0.00  0.00    -0.253 NA
ATOM     17  C   UNL     1      -6.824 -11.278  15.768  0.00  0.00    +0.131 A 
ATOM     20  C   UNL     1      -6.293 -11.356  17.053  0.00  0.00    +0.097 A 
ATOM     22  C   UNL     1      -7.770 -10.309  15.425  0.00  0.00    +0.031 A 
ATOM     23  C   UNL     1      -6.738 -10.423  18.013  0.00  0.00    +0.002 A 
ATOM     24  C   UNL     1      -8.204  -9.394  16.375  0.00  0.00    +0.003 A 
ATOM     25  C   UNL     1      -7.689  -9.449  17.668  0.00  0.00    +0.010 A 
ATOM     28  C   UNL     1      -6.203 -10.502  19.306  0.00  0.00    +0.011 A 
ATOM     32  C   UNL     1      -4.890 -12.344  18.610  0.00  0.00    +0.111 A 
ATOM     33  C   UNL     1      -5.264 -11.475  19.616  0.00  0.00    +0.020 A 
ENDBRANCH   2  17
ENDBRANCH   7   2
BRANCH  11  16
ATOM      6  O   UNL     1      -1.316 -12.492  13.814  0.00  0.00    -0.249 OA
ATOM     16  C   UNL     1      -2.369 -12.325  14.415  0.00  0.00    +0.326 C 
BRANCH  16   5
ATOM      5  O   UNL     1      -2.542 -11.600  15.557  0.00  0.00    -0.467 OA
ATOM     29  C   UNL     1      -1.489 -10.683  15.869  0.00  0.00    +0.280 C 
ENDBRANCH  16   5
ENDBRANCH  11  16
BRANCH   8  18
ATOM     18  C   UNL     1      -4.743  -8.926  10.696  0.00  0.00    +0.158 C 
BRANCH  18  21
ATOM      1 CL   UNL     1     -10.429  -8.252   8.838  0.00  0.00    -0.084 Cl
ATOM     21  C   UNL     1      -6.169  -8.756  10.230  0.00  0.00    -0.028 A 
ATOM     26  C   UNL     1      -6.440  -8.051   9.059  0.00  0.00    +0.007 A 
ATOM     27  C   UNL     1      -7.215  -9.305  10.973  0.00  0.00    +0.007 A 
ATOM     30  C   UNL     1      -7.758  -7.895   8.628  0.00  0.00    +0.020 A 
ATOM     31  C   UNL     1      -8.533  -9.148  10.543  0.00  0.00    +0.020 A 
ATOM     34  C   UNL     1      -8.804  -8.443   9.371  0.00  0.00    +0.041 A 
ENDBRANCH  18  21
ENDBRANCH   8  18
TORSDOF 6
ENDMDL
MODEL 8
REMARK VINA RESULT:      -6.2     26.642     29.770
REMARK  Name = 26745467
REMARK  7 active torsions:
REMARK  status: ('A' for Active; 'I' for Inactive)
REMARK    1  A    between atoms: S_2  and  N_7
REMARK    2  A    between atoms: S_2  and  C_17
REMARK    3  A    between atoms: O_5  and  C_16
REMARK    4  A    between atoms: O_5  and  C_29
REMARK    5  A    between atoms: N_8  and  C_18
REMARK    6  A    between atoms: C_11  and  C_16
REMARK    7  A    between atoms: C_18  and  C_21
REMARK                            x       y       z     vdW  Elec       q    Type
REMARK                         _______ _______ _______ _____ _____    ______ ____
ROOT
ATOM      7  N   UNL     1      12.013   5.839   1.455  0.00  0.00    -0.157 NA
ATOM      8  N   UNL     1      14.290   4.940  -1.381  0.00  0.00    -0.328 N 
ATOM      9  N   UNL     1      15.778   4.530   0.235  0.00  0.00    -0.240 NA
ATOM     11  C   UNL     1      13.138   6.193   2.400  0.00  0.00    +0.194 C 
ATOM     12  C   UNL     1      12.356   5.889  -0.018  0.00  0.00    +0.165 C 
ATOM     13  C   UNL     1      14.385   5.307   2.202  0.00  0.00    +0.089 C 
ATOM     14  C   UNL     1      13.699   5.312  -0.211  0.00  0.00    +0.057 A 
ATOM     15  C   UNL     1      14.631   5.055   0.764  0.00  0.00    +0.066 A 
ATOM     19  C   UNL     1      15.541   4.474  -1.061  0.00  0.00    +0.200 A 
ENDROOT
BRANCH   7   2
ATOM      2  S   UNL     1      11.018   4.529   1.943  0.00  0.00    +0.064 S 
ATOM      3  O   UNL     1      11.858   3.439   2.391  0.00  0.00    -0.153 OA
ATOM      4  O   UNL     1       9.995   4.318   0.941  0.00  0.00    -0.153 OA
BRANCH   2  17
ATOM     10  N   UNL     1       9.443   7.062   2.076  0.00  0.00    -0.253 NA
ATOM     17  C   UNL     1      10.249   5.239   3.364  0.00  0.00    +0.131 A 
ATOM     20  C   UNL     1       9.544   6.435   3.264  0.00  0.00    +0.097 A 
ATOM     22  C   UNL     1      10.374   4.562   4.579  0.00  0.00    +0.031 A 
ATOM     23  C   UNL     1       8.951   6.955   4.433  0.00  0.00    +0.002 A 
ATOM     24  C   UNL     1       9.786   5.080   5.726  0.00  0.00    +0.003 A 
ATOM     25  C   UNL     1       9.075   6.274   5.655  0.00  0.00    +0.010 A 
ATOM     28  C   UNL     1       8.240   8.160   4.333  0.00  0.00    +0.011 A 
ATOM     32  C   UNL     1       8.749   8.222   2.023  0.00  0.00    +0.111 A 
ATOM     33  C   UNL     1       8.134   8.808   3.111  0.00  0.00    +0.020 A 
ENDBRANCH   2  17
ENDBRANCH   7   2
BRANCH  11  16
ATOM      6  O   UNL     1      12.580   8.480   1.906  0.00  0.00    -0.249 OA
ATOM     16  C   UNL     1      13.428   7.647   2.196  0.00  0.00    +0.326 C 
BRANCH  16   5
ATOM      5  O   UNL     1      14.759   7.877   2.381  0.00  0.00    -0.467 OA
ATOM     29  C   UNL     1      15.091   8.685   3.515  0.00  0.00    +0.280 C 
ENDBRANCH  16   5
ENDBRANCH  11  16
BRANCH   8  18
ATOM     18  C   UNL     1      13.728   5.021  -2.707  0.00  0.00    +0.158 C 
BRANCH  18  21
ATOM      1 CL   UNL     1       9.043   1.334  -3.539  0.00  0.00    -0.084 Cl
ATOM     21  C   UNL     1      12.554   4.096  -2.916  0.00  0.00    -0.028 A 
ATOM     26  C   UNL     1      12.557   2.825  -2.344  0.00  0.00    +0.007 A 
ATOM     27  C   UNL     1      11.465   4.514  -3.682  0.00  0.00    +0.007 A 
ATOM     30  C   UNL     1      11.472   1.970  -2.537  0.00  0.00    +0.020 A 
ATOM     31  C   UNL     1      10.380   3.659  -3.876  0.00  0.00    +0.020 A 
ATOM     34  C   UNL     1      10.384   2.388  -3.303  0.00  0.00    +0.041 A 
ENDBRANCH  18  21
ENDBRANCH   8  18
TORSDOF 6
ENDMDL
MODEL 9
REMARK VINA RESULT:      -6.2     18.472     19.970
REMARK  Name = 26745467
REMARK  7 active torsions:
REMARK  status: ('A' for Active; 'I' for Inactive)
REMARK    1  A    between atoms: S_2  and  N_7
REMARK    2  A    between atoms: S_2  and  C_17
REMARK    3  A    between atoms: O_5  and  C_16
REMARK    4  A    between atoms: O_5  and  C_29
REMARK    5  A    between atoms: N_8  and  C_18
REMARK    6  A    between atoms: C_11  and  C_16
REMARK    7  A    between atoms: C_18  and  C_21
REMARK                            x       y       z     vdW  Elec       q    Type
REMARK                         _______ _______ _______ _____ _____    ______ ____
ROOT
ATOM      7  N   UNL     1     -13.640   8.858  16.553  0.00  0.00    -0.157 NA
ATOM      8  N   UNL     1     -11.056   8.627  19.256  0.00  0.00    -0.328 N 
ATOM      9  N   UNL     1     -10.201  10.452  18.289  0.00  0.00    -0.240 NA
ATOM     11  C   UNL     1     -12.740   9.605  15.595  0.00  0.00    +0.194 C 
ATOM     12  C   UNL     1     -12.933   8.060  17.627  0.00  0.00    +0.165 C 
ATOM     13  C   UNL     1     -11.779  10.574  16.311  0.00  0.00    +0.089 C 
ATOM     14  C   UNL     1     -11.798   8.853  18.137  0.00  0.00    +0.057 A 
ATOM     15  C   UNL     1     -11.254   9.973  17.559  0.00  0.00    +0.066 A 
ATOM     19  C   UNL     1     -10.106   9.618  19.305  0.00  0.00    +0.200 A 
ENDROOT
BRANCH   7   2
ATOM      2  S   UNL     1     -15.048   9.700  17.057  0.00  0.00    +0.064 S 
ATOM      3  O   UNL     1     -15.741  10.202  15.890  0.00  0.00    -0.153 OA
ATOM      4  O   UNL     1     -14.702  10.578  18.154  0.00  0.00    -0.153 OA
BRANCH   2  17
ATOM     10  N   UNL     1     -16.080   7.319  15.579  0.00  0.00    -0.253 NA
ATOM     17  C   UNL     1     -15.990   8.359  17.711  0.00  0.00    +0.131 A 
ATOM     20  C   UNL     1     -16.401   7.314  16.887  0.00  0.00    +0.097 A 
ATOM     22  C   UNL     1     -16.305   8.387  19.071  0.00  0.00    +0.031 A 
ATOM     23  C   UNL     1     -17.152   6.270  17.466  0.00  0.00    +0.002 A 
ATOM     24  C   UNL     1     -17.045   7.354  19.634  0.00  0.00    +0.003 A 
ATOM     25  C   UNL     1     -17.468   6.297  18.834  0.00  0.00    +0.010 A 
ATOM     28  C   UNL     1     -17.565   5.217  16.637  0.00  0.00    +0.011 A 
ATOM     32  C   UNL     1     -16.498   6.284  14.815  0.00  0.00    +0.111 A 
ATOM     33  C   UNL     1     -17.236   5.219  15.290  0.00  0.00    +0.020 A 
ENDBRANCH   2  17
ENDBRANCH   7   2
BRANCH  11  16
ATOM      6  O   UNL     1     -10.799   8.490  14.712  0.00  0.00    -0.249 OA
ATOM     16  C   UNL     1     -12.018   8.569  14.791  0.00  0.00    +0.326 C 
BRANCH  16   5
ATOM      5  O   UNL     1     -12.923   7.754  14.178  0.00  0.00    -0.467 OA
ATOM     29  C   UNL     1     -13.514   8.280  12.985  0.00  0.00    +0.280 C 
ENDBRANCH  16   5
ENDBRANCH  11  16
BRANCH   8  18
ATOM     18  C   UNL     1     -11.216   7.557  20.210  0.00  0.00    +0.158 C 
BRANCH  18  21
ATOM      1 CL   UNL     1     -16.210   8.055  23.533  0.00  0.00    -0.084 Cl
ATOM     21  C   UNL     1     -12.468   7.682  21.042  0.00  0.00    -0.028 A 
ATOM     26  C   UNL     1     -13.235   6.552  21.322  0.00  0.00    +0.007 A 
ATOM     27  C   UNL     1     -12.860   8.929  21.532  0.00  0.00    +0.007 A 
ATOM     30  C   UNL     1     -14.393   6.667  22.092  0.00  0.00    +0.020 A 
ATOM     31  C   UNL     1     -14.018   9.044  22.301  0.00  0.00    +0.020 A 
ATOM     34  C   UNL     1     -14.784   7.913  22.580  0.00  0.00    +0.041 A 
ENDBRANCH  18  21
ENDBRANCH   8  18
TORSDOF 6
ENDMDL
MODEL 10
REMARK VINA RESULT:      -6.2      3.510      7.852
REMARK  Name = 26745467
REMARK  7 active torsions:
REMARK  status: ('A' for Active; 'I' for Inactive)
REMARK    1  A    between atoms: S_2  and  N_7
REMARK    2  A    between atoms: S_2  and  C_17
REMARK    3  A    between atoms: O_5  and  C_16
REMARK    4  A    between atoms: O_5  and  C_29
REMARK    5  A    between atoms: N_8  and  C_18
REMARK    6  A    between atoms: C_11  and  C_16
REMARK    7  A    between atoms: C_18  and  C_21
REMARK                            x       y       z     vdW  Elec       q    Type
REMARK                         _______ _______ _______ _____ _____    ______ ____
ROOT
ATOM      7  N   UNL     1      -6.310 -10.908  12.887  0.00  0.00    -0.157 NA
ATOM      8  N   UNL     1      -9.477  -9.439  14.246  0.00  0.00    -0.328 N 
ATOM      9  N   UNL     1     -10.398 -10.262  12.384  0.00  0.00    -0.240 NA
ATOM     11  C   UNL     1      -6.765 -10.854  11.448  0.00  0.00    +0.194 C 
ATOM     12  C   UNL     1      -7.017  -9.961  13.833  0.00  0.00    +0.165 C 
ATOM     13  C   UNL     1      -8.277 -11.111  11.289  0.00  0.00    +0.089 C 
ATOM     14  C   UNL     1      -8.455  -9.951  13.507  0.00  0.00    +0.057 A 
ATOM     15  C   UNL     1      -9.043 -10.446  12.368  0.00  0.00    +0.066 A 
ATOM     19  C   UNL     1     -10.628  -9.650  13.528  0.00  0.00    +0.200 A 
ENDROOT
BRANCH   7   2
ATOM      2  S   UNL     1      -5.992 -12.477  13.507  0.00  0.00    +0.064 S 
ATOM      3  O   UNL     1      -5.094 -13.167  12.607  0.00  0.00    -0.153 OA
ATOM      4  O   UNL     1      -7.241 -13.080  13.920  0.00  0.00    -0.153 OA
BRANCH   2  17
ATOM     10  N   UNL     1      -3.358 -11.080  13.658  0.00  0.00    -0.253 NA
ATOM     17  C   UNL     1      -5.085 -12.056  14.960  0.00  0.00    +0.131 A 
ATOM     20  C   UNL     1      -3.861 -11.400  14.866  0.00  0.00    +0.097 A 
ATOM     22  C   UNL     1      -5.637 -12.403  16.196  0.00  0.00    +0.031 A 
ATOM     23  C   UNL     1      -3.181 -11.089  16.062  0.00  0.00    +0.002 A 
ATOM     24  C   UNL     1      -4.961 -12.093  17.369  0.00  0.00    +0.003 A 
ATOM     25  C   UNL     1      -3.735 -11.437  17.305  0.00  0.00    +0.010 A 
ATOM     28  C   UNL     1      -1.948 -10.428  15.967  0.00  0.00    +0.011 A 
ATOM     32  C   UNL     1      -2.166 -10.442  13.611  0.00  0.00    +0.111 A 
ATOM     33  C   UNL     1      -1.427 -10.097  14.725  0.00  0.00    +0.020 A 
ENDBRANCH   2  17
ENDBRANCH   7   2
BRANCH  11  16
ATOM      6  O   UNL     1      -7.109  -8.736  10.360  0.00  0.00    -0.249 OA
ATOM     16  C   UNL     1      -6.350  -9.517  10.918  0.00  0.00    +0.326 C 
BRANCH  16   5
ATOM      5  O   UNL     1      -5.021  -9.325  11.154  0.00  0.00    -0.467 OA
ATOM     29  C   UNL     1      -4.329  -8.547  10.172  0.00  0.00    +0.280 C 
ENDBRANCH  16   5
ENDBRANCH  11  16
BRANCH   8  18
ATOM     18  C   UNL     1      -9.386  -8.789  15.531  0.00  0.00    +0.158 C 
BRANCH  18  21
ATOM      1 CL   UNL     1      -7.834 -12.527  19.986  0.00  0.00    -0.084 Cl
ATOM     21  C   UNL     1      -8.997  -9.726  16.648  0.00  0.00    -0.028 A 
ATOM     26  C   UNL     1      -7.938  -9.401  17.494  0.00  0.00    +0.007 A 
ATOM     27  C   UNL     1      -9.696 -10.919  16.833  0.00  0.00    +0.007 A 
ATOM     30  C   UNL     1      -7.577 -10.267  18.526  0.00  0.00    +0.020 A 
ATOM     31  C   UNL     1      -9.336 -11.786  17.865  0.00  0.00    +0.020 A 
ATOM     34  C   UNL     1      -8.276 -11.460  18.711  0.00  0.00    +0.041 A 
ENDBRANCH  18  21
ENDBRANCH   8  18
TORSDOF 6
ENDMDL
