MODEL 1
REMARK VINA RESULT:      -6.8      0.000      0.000
REMARK  Name = 25338202
REMARK  6 active torsions:
REMARK  status: ('A' for Active; 'I' for Inactive)
REMARK    1  A    between atoms: O_3  and  C_10
REMARK    2  A    between atoms: O_5  and  C_26
REMARK    3  A    between atoms: O_5  and  C_27
REMARK    4  A    between atoms: N_6  and  C_9
REMARK    5  A    between atoms: N_7  and  C_11
REMARK    6  A    between atoms: N_8  and  C_21
REMARK                            x       y       z     vdW  Elec       q    Type
REMARK                         _______ _______ _______ _____ _____    ______ ____
ROOT
ATOM      1  O   UNL     1      12.280   6.892  19.273  0.00  0.00    -0.342 OA
ATOM      2  O   UNL     1      10.586   7.890  20.504  0.00  0.00    -0.347 OA
ATOM      9  C   UNL     1      12.154   9.299  19.321  0.00  0.00    +0.143 C 
ATOM     10  C   UNL     1      13.081   9.344  20.557  0.00  0.00    +0.159 C 
ATOM     11  C   UNL     1      13.628   7.958  20.964  0.00  0.00    +0.136 C 
ATOM     12  C   UNL     1      11.352   7.985  19.293  0.00  0.00    +0.270 C 
ATOM     13  C   UNL     1      12.654   6.804  20.652  0.00  0.00    +0.170 C 
ATOM     14  C   UNL     1      11.296   6.941  21.315  0.00  0.00    +0.196 C 
ENDROOT
BRANCH  11   7
ATOM      4  O   UNL     1      15.938   6.732  22.133  0.00  0.00    -0.252 OA
ATOM      7  N   UNL     1      14.900   7.715  20.317  0.00  0.00    -0.291 N 
ATOM      8  N   UNL     1      17.067   7.006  20.093  0.00  0.00    -0.269 N 
ATOM     20  C   UNL     1      15.979   7.109  20.964  0.00  0.00    +0.304 C 
ATOM     28  H   UNL     1      15.036   8.071  19.375  0.00  0.00    +0.151 HD
ATOM     30  H   UNL     1      16.935   7.368  19.152  0.00  0.00    +0.156 HD
BRANCH   8  21
ATOM     21  C   UNL     1      18.344   6.457  20.360  0.00  0.00    +0.035 A 
ATOM     22  C   UNL     1      18.709   5.235  19.793  0.00  0.00    +0.027 A 
ATOM     23  C   UNL     1      19.236   7.134  21.190  0.00  0.00    +0.027 A 
ATOM     24  C   UNL     1      19.966   4.693  20.057  0.00  0.00    +0.047 A 
ATOM     25  C   UNL     1      20.493   6.592  21.453  0.00  0.00    +0.047 A 
ATOM     26  C   UNL     1      20.858   5.370  20.886  0.00  0.00    +0.120 A 
BRANCH  26   5
ATOM      5  O   UNL     1      22.086   4.840  21.143  0.00  0.00    -0.495 OA
ATOM     27  C   UNL     1      22.151   3.794  22.111  0.00  0.00    +0.277 C 
ENDBRANCH  26   5
ENDBRANCH   8  21
ENDBRANCH  11   7
BRANCH   9   6
ATOM      6  N   UNL     1      12.944   9.424  18.095  0.00  0.00    -0.293 NA
ATOM     15  C   UNL     1      13.685  10.693  18.089  0.00  0.00    +0.085 C 
ATOM     16  C   UNL     1      12.079   9.309  16.913  0.00  0.00    +0.085 C 
ATOM     17  C   UNL     1      14.555  10.818  16.836  0.00  0.00    +0.015 C 
ATOM     18  C   UNL     1      12.896   9.388  15.622  0.00  0.00    +0.015 C 
ATOM     19  C   UNL     1      13.724  10.667  15.568  0.00  0.00    +0.002 C 
ENDBRANCH   9   6
BRANCH  10   3
ATOM      3  O   UNL     1      12.325   9.880  21.651  0.00  0.00    -0.388 OA
ATOM     29  H   UNL     1      11.419  10.038  21.334  0.00  0.00    +0.210 HD
ENDBRANCH  10   3
TORSDOF 5
ENDMDL
MODEL 2
REMARK VINA RESULT:      -6.3     13.632     17.304
REMARK  Name = 25338202
REMARK  6 active torsions:
REMARK  status: ('A' for Active; 'I' for Inactive)
REMARK    1  A    between atoms: O_3  and  C_10
REMARK    2  A    between atoms: O_5  and  C_26
REMARK    3  A    between atoms: O_5  and  C_27
REMARK    4  A    between atoms: N_6  and  C_9
REMARK    5  A    between atoms: N_7  and  C_11
REMARK    6  A    between atoms: N_8  and  C_21
REMARK                            x       y       z     vdW  Elec       q    Type
REMARK                         _______ _______ _______ _____ _____    ______ ____
ROOT
ATOM      1  O   UNL     1      10.233   8.290   5.698  0.00  0.00    -0.342 OA
ATOM      2  O   UNL     1       9.526   7.908   7.874  0.00  0.00    -0.347 OA
ATOM      9  C   UNL     1      11.886   7.758   7.371  0.00  0.00    +0.143 C 
ATOM     10  C   UNL     1      11.746   6.251   7.059  0.00  0.00    +0.159 C 
ATOM     11  C   UNL     1      10.806   5.955   5.870  0.00  0.00    +0.136 C 
ATOM     12  C   UNL     1      10.567   8.496   7.077  0.00  0.00    +0.270 C 
ATOM     13  C   UNL     1       9.661   6.978   5.731  0.00  0.00    +0.170 C 
ATOM     14  C   UNL     1       8.777   7.094   6.959  0.00  0.00    +0.196 C 
ENDROOT
BRANCH  11   7
ATOM      4  O   UNL     1      10.200   4.372   3.561  0.00  0.00    -0.252 OA
ATOM      7  N   UNL     1      11.564   5.895   4.639  0.00  0.00    -0.291 N 
ATOM      8  N   UNL     1      12.113   5.241   2.512  0.00  0.00    -0.269 N 
ATOM     20  C   UNL     1      11.196   5.092   3.557  0.00  0.00    +0.304 C 
ATOM     28  H   UNL     1      12.443   6.402   4.590  0.00  0.00    +0.151 HD
ATOM     30  H   UNL     1      12.886   5.882   2.671  0.00  0.00    +0.156 HD
BRANCH   8  21
ATOM     21  C   UNL     1      12.099   4.605   1.248  0.00  0.00    +0.035 A 
ATOM     22  C   UNL     1      11.078   4.883   0.339  0.00  0.00    +0.027 A 
ATOM     23  C   UNL     1      13.104   3.699   0.912  0.00  0.00    +0.027 A 
ATOM     24  C   UNL     1      11.064   4.256  -0.906  0.00  0.00    +0.047 A 
ATOM     25  C   UNL     1      13.090   3.071  -0.333  0.00  0.00    +0.047 A 
ATOM     26  C   UNL     1      12.069   3.350  -1.243  0.00  0.00    +0.120 A 
BRANCH  26   5
ATOM      5  O   UNL     1      12.054   2.738  -2.458  0.00  0.00    -0.495 OA
ATOM     27  C   UNL     1      10.777   2.411  -3.005  0.00  0.00    +0.277 C 
ENDBRANCH  26   5
ENDBRANCH   8  21
ENDBRANCH  11   7
BRANCH   9   6
ATOM      6  N   UNL     1      12.967   8.339   6.574  0.00  0.00    -0.293 NA
ATOM     15  C   UNL     1      14.182   7.519   6.680  0.00  0.00    +0.085 C 
ATOM     16  C   UNL     1      13.224   9.725   6.989  0.00  0.00    +0.085 C 
ATOM     17  C   UNL     1      15.307   8.085   5.813  0.00  0.00    +0.015 C 
ATOM     18  C   UNL     1      14.317  10.364   6.132  0.00  0.00    +0.015 C 
ATOM     19  C   UNL     1      15.599   9.539   6.165  0.00  0.00    +0.002 C 
ENDBRANCH   9   6
BRANCH  10   3
ATOM      3  O   UNL     1      11.224   5.609   8.231  0.00  0.00    -0.388 OA
ATOM     29  H   UNL     1      11.534   4.687   8.223  0.00  0.00    +0.210 HD
ENDBRANCH  10   3
TORSDOF 5
ENDMDL
MODEL 3
REMARK VINA RESULT:      -6.3      2.260      3.697
REMARK  Name = 25338202
REMARK  6 active torsions:
REMARK  status: ('A' for Active; 'I' for Inactive)
REMARK    1  A    between atoms: O_3  and  C_10
REMARK    2  A    between atoms: O_5  and  C_26
REMARK    3  A    between atoms: O_5  and  C_27
REMARK    4  A    between atoms: N_6  and  C_9
REMARK    5  A    between atoms: N_7  and  C_11
REMARK    6  A    between atoms: N_8  and  C_21
REMARK                            x       y       z     vdW  Elec       q    Type
REMARK                         _______ _______ _______ _____ _____    ______ ____
ROOT
ATOM      1  O   UNL     1      13.175   9.111  18.849  0.00  0.00    -0.342 OA
ATOM      2  O   UNL     1      11.431   7.823  18.024  0.00  0.00    -0.347 OA
ATOM      9  C   UNL     1      11.568   8.213  20.406  0.00  0.00    +0.143 C 
ATOM     10  C   UNL     1      12.425   6.940  20.587  0.00  0.00    +0.159 C 
ATOM     11  C   UNL     1      13.775   6.996  19.838  0.00  0.00    +0.136 C 
ATOM     12  C   UNL     1      11.781   8.813  19.004  0.00  0.00    +0.270 C 
ATOM     13  C   UNL     1      13.714   7.822  18.537  0.00  0.00    +0.170 C 
ATOM     14  C   UNL     1      12.687   7.328  17.535  0.00  0.00    +0.196 C 
ENDROOT
BRANCH  11   7
ATOM      4  O   UNL     1      16.594   6.538  19.627  0.00  0.00    -0.252 OA
ATOM      7  N   UNL     1      14.805   7.524  20.707  0.00  0.00    -0.291 N 
ATOM      8  N   UNL     1      16.916   7.893  21.517  0.00  0.00    -0.269 N 
ATOM     20  C   UNL     1      16.163   7.249  20.532  0.00  0.00    +0.304 C 
ATOM     28  H   UNL     1      14.518   8.055  21.525  0.00  0.00    +0.151 HD
ATOM     30  H   UNL     1      16.401   8.448  22.196  0.00  0.00    +0.156 HD
BRANCH   8  21
ATOM     21  C   UNL     1      18.320   7.868  21.691  0.00  0.00    +0.035 A 
ATOM     22  C   UNL     1      19.056   9.050  21.588  0.00  0.00    +0.027 A 
ATOM     23  C   UNL     1      18.969   6.665  21.962  0.00  0.00    +0.027 A 
ATOM     24  C   UNL     1      20.440   9.026  21.758  0.00  0.00    +0.047 A 
ATOM     25  C   UNL     1      20.353   6.641  22.132  0.00  0.00    +0.047 A 
ATOM     26  C   UNL     1      21.089   7.823  22.030  0.00  0.00    +0.120 A 
BRANCH  26   5
ATOM      5  O   UNL     1      22.439   7.800  22.196  0.00  0.00    -0.495 OA
ATOM     27  C   UNL     1      23.034   6.541  22.507  0.00  0.00    +0.277 C 
ENDBRANCH  26   5
ENDBRANCH   8  21
ENDBRANCH  11   7
BRANCH   9   6
ATOM      6  N   UNL     1      11.915   9.202  21.426  0.00  0.00    -0.293 NA
ATOM     15  C   UNL     1      10.918   9.199  22.506  0.00  0.00    +0.085 C 
ATOM     16  C   UNL     1      12.042  10.537  20.825  0.00  0.00    +0.085 C 
ATOM     17  C   UNL     1      11.293  10.194  23.606  0.00  0.00    +0.015 C 
ATOM     18  C   UNL     1      12.453  11.576  21.869  0.00  0.00    +0.015 C 
ATOM     19  C   UNL     1      11.479  11.597  23.042  0.00  0.00    +0.002 C 
ENDBRANCH   9   6
BRANCH  10   3
ATOM      3  O   UNL     1      11.668   5.828  20.089  0.00  0.00    -0.388 OA
ATOM     29  H   UNL     1      11.525   5.214  20.829  0.00  0.00    +0.210 HD
ENDBRANCH  10   3
TORSDOF 5
ENDMDL
MODEL 4
REMARK VINA RESULT:      -6.2      2.816      4.186
REMARK  Name = 25338202
REMARK  6 active torsions:
REMARK  status: ('A' for Active; 'I' for Inactive)
REMARK    1  A    between atoms: O_3  and  C_10
REMARK    2  A    between atoms: O_5  and  C_26
REMARK    3  A    between atoms: O_5  and  C_27
REMARK    4  A    between atoms: N_6  and  C_9
REMARK    5  A    between atoms: N_7  and  C_11
REMARK    6  A    between atoms: N_8  and  C_21
REMARK                            x       y       z     vdW  Elec       q    Type
REMARK                         _______ _______ _______ _____ _____    ______ ____
ROOT
ATOM      1  O   UNL     1      12.633  11.118  23.421  0.00  0.00    -0.342 OA
ATOM      2  O   UNL     1      11.530  12.712  22.147  0.00  0.00    -0.347 OA
ATOM      9  C   UNL     1      11.869  10.507  21.217  0.00  0.00    +0.143 C 
ATOM     10  C   UNL     1      13.218  10.949  20.605  0.00  0.00    +0.159 C 
ATOM     11  C   UNL     1      14.260  11.379  21.661  0.00  0.00    +0.136 C 
ATOM     12  C   UNL     1      11.561  11.318  22.490  0.00  0.00    +0.270 C 
ATOM     13  C   UNL     1      13.627  12.015  22.915  0.00  0.00    +0.170 C 
ATOM     14  C   UNL     1      12.776  13.238  22.629  0.00  0.00    +0.196 C 
ENDROOT
BRANCH  11   7
ATOM      4  O   UNL     1      16.680  10.508  20.399  0.00  0.00    -0.252 OA
ATOM      7  N   UNL     1      15.078  10.247  22.044  0.00  0.00    -0.291 N 
ATOM      8  N   UNL     1      16.821   8.763  21.964  0.00  0.00    -0.269 N 
ATOM     20  C   UNL     1      16.248   9.891  21.371  0.00  0.00    +0.304 C 
ATOM     28  H   UNL     1      14.742   9.642  22.789  0.00  0.00    +0.151 HD
ATOM     30  H   UNL     1      16.335   8.372  22.766  0.00  0.00    +0.156 HD
BRANCH   8  21
ATOM     21  C   UNL     1      18.007   8.090  21.582  0.00  0.00    +0.035 A 
ATOM     22  C   UNL     1      19.250   8.654  21.869  0.00  0.00    +0.027 A 
ATOM     23  C   UNL     1      17.932   6.866  20.920  0.00  0.00    +0.027 A 
ATOM     24  C   UNL     1      20.419   7.992  21.493  0.00  0.00    +0.047 A 
ATOM     25  C   UNL     1      19.100   6.204  20.544  0.00  0.00    +0.047 A 
ATOM     26  C   UNL     1      20.344   6.767  20.831  0.00  0.00    +0.120 A 
BRANCH  26   5
ATOM      5  O   UNL     1      21.485   6.121  20.464  0.00  0.00    -0.495 OA
ATOM     27  C   UNL     1      21.451   4.695  20.465  0.00  0.00    +0.277 C 
ENDBRANCH  26   5
ENDBRANCH   8  21
ENDBRANCH  11   7
BRANCH   9   6
ATOM      6  N   UNL     1      11.906   9.079  21.537  0.00  0.00    -0.293 NA
ATOM     15  C   UNL     1      12.625   8.337  20.492  0.00  0.00    +0.085 C 
ATOM     16  C   UNL     1      10.543   8.558  21.715  0.00  0.00    +0.085 C 
ATOM     17  C   UNL     1      12.714   6.849  20.834  0.00  0.00    +0.015 C 
ATOM     18  C   UNL     1      10.564   7.078  22.098  0.00  0.00    +0.015 C 
ATOM     19  C   UNL     1      11.333   6.252  21.072  0.00  0.00    +0.002 C 
ENDBRANCH   9   6
BRANCH  10   3
ATOM      3  O   UNL     1      12.960  12.058  19.734  0.00  0.00    -0.388 OA
ATOM     29  H   UNL     1      13.801  12.300  19.310  0.00  0.00    +0.210 HD
ENDBRANCH  10   3
TORSDOF 5
ENDMDL
MODEL 5
REMARK VINA RESULT:      -6.0     26.976     30.130
REMARK  Name = 25338202
REMARK  6 active torsions:
REMARK  status: ('A' for Active; 'I' for Inactive)
REMARK    1  A    between atoms: O_3  and  C_10
REMARK    2  A    between atoms: O_5  and  C_26
REMARK    3  A    between atoms: O_5  and  C_27
REMARK    4  A    between atoms: N_6  and  C_9
REMARK    5  A    between atoms: N_7  and  C_11
REMARK    6  A    between atoms: N_8  and  C_21
REMARK                            x       y       z     vdW  Elec       q    Type
REMARK                         _______ _______ _______ _____ _____    ______ ____
ROOT
ATOM      1  O   UNL     1      -4.943 -10.255  18.102  0.00  0.00    -0.342 OA
ATOM      2  O   UNL     1      -4.576 -12.269  19.193  0.00  0.00    -0.347 OA
ATOM      9  C   UNL     1      -4.784 -12.268  16.784  0.00  0.00    +0.143 C 
ATOM     10  C   UNL     1      -6.310 -12.484  16.894  0.00  0.00    +0.159 C 
ATOM     11  C   UNL     1      -7.044 -11.330  17.612  0.00  0.00    +0.136 C 
ATOM     12  C   UNL     1      -4.255 -11.510  18.016  0.00  0.00    +0.270 C 
ATOM     13  C   UNL     1      -6.186 -10.645  18.695  0.00  0.00    +0.170 C 
ATOM     14  C   UNL     1      -5.691 -11.581  19.781  0.00  0.00    +0.196 C 
ENDROOT
BRANCH  11   7
ATOM      4  O   UNL     1      -9.597 -10.032  17.553  0.00  0.00    -0.252 OA
ATOM      7  N   UNL     1      -7.494 -10.349  16.648  0.00  0.00    -0.291 N 
ATOM      8  N   UNL     1      -8.910  -8.858  15.639  0.00  0.00    -0.269 N 
ATOM     20  C   UNL     1      -8.761  -9.763  16.692  0.00  0.00    +0.304 C 
ATOM     28  H   UNL     1      -6.887 -10.136  15.861  0.00  0.00    +0.151 HD
ATOM     30  H   UNL     1      -8.117  -8.751  15.012  0.00  0.00    +0.156 HD
BRANCH   8  21
ATOM     21  C   UNL     1     -10.040  -8.063  15.332  0.00  0.00    +0.035 A 
ATOM     22  C   UNL     1     -10.986  -8.522  14.414  0.00  0.00    +0.027 A 
ATOM     23  C   UNL     1     -10.209  -6.822  15.945  0.00  0.00    +0.027 A 
ATOM     24  C   UNL     1     -12.099  -7.739  14.110  0.00  0.00    +0.047 A 
ATOM     25  C   UNL     1     -11.322  -6.039  15.641  0.00  0.00    +0.047 A 
ATOM     26  C   UNL     1     -12.268  -6.498  14.723  0.00  0.00    +0.120 A 
BRANCH  26   5
ATOM      5  O   UNL     1     -13.355  -5.734  14.427  0.00  0.00    -0.495 OA
ATOM     27  C   UNL     1     -13.147  -4.620  13.560  0.00  0.00    +0.277 C 
ENDBRANCH  26   5
ENDBRANCH   8  21
ENDBRANCH  11   7
BRANCH   9   6
ATOM      6  N   UNL     1      -4.468 -11.518  15.568  0.00  0.00    -0.293 NA
ATOM     15  C   UNL     1      -5.186 -12.081  14.416  0.00  0.00    +0.085 C 
ATOM     16  C   UNL     1      -3.018 -11.505  15.335  0.00  0.00    +0.085 C 
ATOM     17  C   UNL     1      -4.906 -11.278  13.145  0.00  0.00    +0.015 C 
ATOM     18  C   UNL     1      -2.666 -10.683  14.094  0.00  0.00    +0.015 C 
ATOM     19  C   UNL     1      -3.410 -11.191  12.864  0.00  0.00    +0.002 C 
ENDBRANCH   9   6
BRANCH  10   3
ATOM      3  O   UNL     1      -6.528 -13.697  17.628  0.00  0.00    -0.388 OA
ATOM     29  H   UNL     1      -6.525 -13.472  18.574  0.00  0.00    +0.210 HD
ENDBRANCH  10   3
TORSDOF 5
ENDMDL
MODEL 6
REMARK VINA RESULT:      -5.9     14.449     17.927
REMARK  Name = 25338202
REMARK  6 active torsions:
REMARK  status: ('A' for Active; 'I' for Inactive)
REMARK    1  A    between atoms: O_3  and  C_10
REMARK    2  A    between atoms: O_5  and  C_26
REMARK    3  A    between atoms: O_5  and  C_27
REMARK    4  A    between atoms: N_6  and  C_9
REMARK    5  A    between atoms: N_7  and  C_11
REMARK    6  A    between atoms: N_8  and  C_21
REMARK                            x       y       z     vdW  Elec       q    Type
REMARK                         _______ _______ _______ _____ _____    ______ ____
ROOT
ATOM      1  O   UNL     1       8.040   6.592   6.357  0.00  0.00    -0.342 OA
ATOM      2  O   UNL     1       8.924   8.107   7.875  0.00  0.00    -0.347 OA
ATOM      9  C   UNL     1       9.271   8.485   5.513  0.00  0.00    +0.143 C 
ATOM     10  C   UNL     1      10.586   7.674   5.554  0.00  0.00    +0.159 C 
ATOM     11  C   UNL     1      10.383   6.196   5.954  0.00  0.00    +0.136 C 
ATOM     12  C   UNL     1       8.293   7.984   6.591  0.00  0.00    +0.270 C 
ATOM     13  C   UNL     1       9.205   5.986   6.927  0.00  0.00    +0.170 C 
ATOM     14  C   UNL     1       9.320   6.770   8.220  0.00  0.00    +0.196 C 
ENDROOT
BRANCH  11   7
ATOM      4  O   UNL     1      12.149   6.007   3.706  0.00  0.00    -0.252 OA
ATOM      7  N   UNL     1      10.197   5.380   4.773  0.00  0.00    -0.291 N 
ATOM      8  N   UNL     1      10.667   4.474   2.722  0.00  0.00    -0.269 N 
ATOM     20  C   UNL     1      11.111   5.347   3.718  0.00  0.00    +0.304 C 
ATOM     28  H   UNL     1       9.324   4.869   4.675  0.00  0.00    +0.151 HD
ATOM     30  H   UNL     1       9.782   4.002   2.889  0.00  0.00    +0.156 HD
BRANCH   8  21
ATOM     21  C   UNL     1      11.302   4.161   1.496  0.00  0.00    +0.035 A 
ATOM     22  C   UNL     1      12.536   3.511   1.497  0.00  0.00    +0.027 A 
ATOM     23  C   UNL     1      10.695   4.503   0.289  0.00  0.00    +0.027 A 
ATOM     24  C   UNL     1      13.163   3.203   0.290  0.00  0.00    +0.047 A 
ATOM     25  C   UNL     1      11.321   4.195  -0.919  0.00  0.00    +0.047 A 
ATOM     26  C   UNL     1      12.556   3.545  -0.918  0.00  0.00    +0.120 A 
BRANCH  26   5
ATOM      5  O   UNL     1      13.168   3.244  -2.096  0.00  0.00    -0.495 OA
ATOM     27  C   UNL     1      12.345   2.726  -3.140  0.00  0.00    +0.277 C 
ENDBRANCH  26   5
ENDBRANCH   8  21
ENDBRANCH  11   7
BRANCH   9   6
ATOM      6  N   UNL     1       8.652   8.374   4.192  0.00  0.00    -0.293 NA
ATOM     15  C   UNL     1       9.656   8.562   3.136  0.00  0.00    +0.085 C 
ATOM     16  C   UNL     1       7.553   9.339   4.057  0.00  0.00    +0.085 C 
ATOM     17  C   UNL     1       9.035   8.400   1.747  0.00  0.00    +0.015 C 
ATOM     18  C   UNL     1       6.862   9.203   2.699  0.00  0.00    +0.015 C 
ATOM     19  C   UNL     1       7.858   9.349   1.554  0.00  0.00    +0.002 C 
ENDBRANCH   9   6
BRANCH  10   3
ATOM      3  O   UNL     1      11.454   8.296   6.510  0.00  0.00    -0.388 OA
ATOM     29  H   UNL     1      12.356   8.270   6.149  0.00  0.00    +0.210 HD
ENDBRANCH  10   3
TORSDOF 5
ENDMDL
MODEL 7
REMARK VINA RESULT:      -5.9     30.411     32.145
REMARK  Name = 25338202
REMARK  6 active torsions:
REMARK  status: ('A' for Active; 'I' for Inactive)
REMARK    1  A    between atoms: O_3  and  C_10
REMARK    2  A    between atoms: O_5  and  C_26
REMARK    3  A    between atoms: O_5  and  C_27
REMARK    4  A    between atoms: N_6  and  C_9
REMARK    5  A    between atoms: N_7  and  C_11
REMARK    6  A    between atoms: N_8  and  C_21
REMARK                            x       y       z     vdW  Elec       q    Type
REMARK                         _______ _______ _______ _____ _____    ______ ____
ROOT
ATOM      1  O   UNL     1     -11.634   9.278  32.629  0.00  0.00    -0.342 OA
ATOM      2  O   UNL     1     -12.702  11.320  32.899  0.00  0.00    -0.347 OA
ATOM      9  C   UNL     1     -12.486   9.855  34.810  0.00  0.00    +0.143 C 
ATOM     10  C   UNL     1     -13.840   9.188  34.480  0.00  0.00    +0.159 C 
ATOM     11  C   UNL     1     -13.856   8.475  33.110  0.00  0.00    +0.136 C 
ATOM     12  C   UNL     1     -11.815  10.381  33.528  0.00  0.00    +0.270 C 
ATOM     13  C   UNL     1     -12.943   9.147  32.064  0.00  0.00    +0.170 C 
ATOM     14  C   UNL     1     -13.274  10.602  31.794  0.00  0.00    +0.196 C 
ENDROOT
BRANCH  11   7
ATOM      4  O   UNL     1     -14.926   6.240  31.673  0.00  0.00    -0.252 OA
ATOM      7  N   UNL     1     -13.482   7.085  33.267  0.00  0.00    -0.291 N 
ATOM      8  N   UNL     1     -13.500   4.825  32.890  0.00  0.00    -0.269 N 
ATOM     20  C   UNL     1     -14.057   6.053  32.522  0.00  0.00    +0.304 C 
ATOM     28  H   UNL     1     -12.827   6.844  34.006  0.00  0.00    +0.151 HD
ATOM     30  H   UNL     1     -12.786   4.846  33.613  0.00  0.00    +0.156 HD
BRANCH   8  21
ATOM     21  C   UNL     1     -13.809   3.544  32.375  0.00  0.00    +0.035 A 
ATOM     22  C   UNL     1     -14.497   2.623  33.166  0.00  0.00    +0.027 A 
ATOM     23  C   UNL     1     -13.426   3.201  31.079  0.00  0.00    +0.027 A 
ATOM     24  C   UNL     1     -14.801   1.359  32.660  0.00  0.00    +0.047 A 
ATOM     25  C   UNL     1     -13.730   1.937  30.573  0.00  0.00    +0.047 A 
ATOM     26  C   UNL     1     -14.418   1.016  31.364  0.00  0.00    +0.120 A 
BRANCH  26   5
ATOM      5  O   UNL     1     -14.716  -0.217  30.871  0.00  0.00    -0.495 OA
ATOM     27  C   UNL     1     -13.944  -0.675  29.761  0.00  0.00    +0.277 C 
ENDBRANCH  26   5
ENDBRANCH   8  21
ENDBRANCH  11   7
BRANCH   9   6
ATOM      6  N   UNL     1     -11.602   8.896  35.474  0.00  0.00    -0.293 NA
ATOM     15  C   UNL     1     -12.302   8.234  36.584  0.00  0.00    +0.085 C 
ATOM     16  C   UNL     1     -10.379   9.563  35.941  0.00  0.00    +0.085 C 
ATOM     17  C   UNL     1     -11.408   7.193  37.258  0.00  0.00    +0.015 C 
ATOM     18  C   UNL     1      -9.421   8.566  36.594  0.00  0.00    +0.015 C 
ATOM     19  C   UNL     1     -10.099   7.812  37.733  0.00  0.00    +0.002 C 
ENDBRANCH   9   6
BRANCH  10   3
ATOM      3  O   UNL     1     -14.843  10.213  34.477  0.00  0.00    -0.388 OA
ATOM     29  H   UNL     1     -15.172  10.300  33.566  0.00  0.00    +0.210 HD
ENDBRANCH  10   3
TORSDOF 5
ENDMDL
MODEL 8
REMARK VINA RESULT:      -5.7     27.348     30.179
REMARK  Name = 25338202
REMARK  6 active torsions:
REMARK  status: ('A' for Active; 'I' for Inactive)
REMARK    1  A    between atoms: O_3  and  C_10
REMARK    2  A    between atoms: O_5  and  C_26
REMARK    3  A    between atoms: O_5  and  C_27
REMARK    4  A    between atoms: N_6  and  C_9
REMARK    5  A    between atoms: N_7  and  C_11
REMARK    6  A    between atoms: N_8  and  C_21
REMARK                            x       y       z     vdW  Elec       q    Type
REMARK                         _______ _______ _______ _____ _____    ______ ____
ROOT
ATOM      1  O   UNL     1     -11.833 -11.963  17.821  0.00  0.00    -0.342 OA
ATOM      2  O   UNL     1     -12.716 -11.526  19.921  0.00  0.00    -0.347 OA
ATOM      9  C   UNL     1     -11.544  -9.761  18.757  0.00  0.00    +0.143 C 
ATOM     10  C   UNL     1     -10.208 -10.190  19.406  0.00  0.00    +0.159 C 
ATOM     11  C   UNL     1      -9.773 -11.622  19.025  0.00  0.00    +0.136 C 
ATOM     12  C   UNL     1     -12.489 -10.968  18.617  0.00  0.00    +0.270 C 
ATOM     13  C   UNL     1     -10.962 -12.573  18.779  0.00  0.00    +0.170 C 
ATOM     14  C   UNL     1     -11.904 -12.710  19.961  0.00  0.00    +0.196 C 
ENDROOT
BRANCH  11   7
ATOM      4  O   UNL     1      -6.910 -11.567  18.997  0.00  0.00    -0.252 OA
ATOM      7  N   UNL     1      -8.920 -11.590  17.857  0.00  0.00    -0.291 N 
ATOM      8  N   UNL     1      -6.973 -11.537  16.650  0.00  0.00    -0.269 N 
ATOM     20  C   UNL     1      -7.526 -11.564  17.933  0.00  0.00    +0.304 C 
ATOM     28  H   UNL     1      -9.358 -11.506  16.944  0.00  0.00    +0.151 HD
ATOM     30  H   UNL     1      -7.627 -11.540  15.871  0.00  0.00    +0.156 HD
BRANCH   8  21
ATOM     21  C   UNL     1      -5.603 -11.505  16.296  0.00  0.00    +0.035 A 
ATOM     22  C   UNL     1      -5.064 -12.522  15.507  0.00  0.00    +0.027 A 
ATOM     23  C   UNL     1      -4.793 -10.459  16.734  0.00  0.00    +0.027 A 
ATOM     24  C   UNL     1      -3.714 -12.492  15.158  0.00  0.00    +0.047 A 
ATOM     25  C   UNL     1      -3.443 -10.429  16.385  0.00  0.00    +0.047 A 
ATOM     26  C   UNL     1      -2.903 -11.446  15.597  0.00  0.00    +0.120 A 
BRANCH  26   5
ATOM      5  O   UNL     1      -1.586 -11.416  15.255  0.00  0.00    -0.495 OA
ATOM     27  C   UNL     1      -0.851 -10.246  15.608  0.00  0.00    +0.277 C 
ENDBRANCH  26   5
ENDBRANCH   8  21
ENDBRANCH  11   7
BRANCH   9   6
ATOM      6  N   UNL     1     -11.297  -9.169  17.442  0.00  0.00    -0.293 NA
ATOM     15  C   UNL     1     -10.222  -8.170  17.521  0.00  0.00    +0.085 C 
ATOM     16  C   UNL     1     -12.531  -8.580  16.904  0.00  0.00    +0.085 C 
ATOM     17  C   UNL     1      -9.918  -7.577  16.144  0.00  0.00    +0.015 C 
ATOM     18  C   UNL     1     -12.303  -8.000  15.508  0.00  0.00    +0.015 C 
ATOM     19  C   UNL     1     -11.168  -6.981  15.510  0.00  0.00    +0.002 C 
ENDBRANCH   9   6
BRANCH  10   3
ATOM      3  O   UNL     1     -10.371 -10.120  20.829  0.00  0.00    -0.388 OA
ATOM     29  H   UNL     1      -9.934  -9.307  21.135  0.00  0.00    +0.210 HD
ENDBRANCH  10   3
TORSDOF 5
ENDMDL
MODEL 9
REMARK VINA RESULT:      -5.6     28.347     30.203
REMARK  Name = 25338202
REMARK  6 active torsions:
REMARK  status: ('A' for Active; 'I' for Inactive)
REMARK    1  A    between atoms: O_3  and  C_10
REMARK    2  A    between atoms: O_5  and  C_26
REMARK    3  A    between atoms: O_5  and  C_27
REMARK    4  A    between atoms: N_6  and  C_9
REMARK    5  A    between atoms: N_7  and  C_11
REMARK    6  A    between atoms: N_8  and  C_21
REMARK                            x       y       z     vdW  Elec       q    Type
REMARK                         _______ _______ _______ _____ _____    ______ ____
ROOT
ATOM      1  O   UNL     1      -9.666 -11.402  16.090  0.00  0.00    -0.342 OA
ATOM      2  O   UNL     1      -9.261 -11.803  18.338  0.00  0.00    -0.347 OA
ATOM      9  C   UNL     1      -9.709  -9.539  17.619  0.00  0.00    +0.143 C 
ATOM     10  C   UNL     1      -8.201  -9.290  17.390  0.00  0.00    +0.159 C 
ATOM     11  C   UNL     1      -7.584 -10.207  16.311  0.00  0.00    +0.136 C 
ATOM     12  C   UNL     1     -10.048 -11.028  17.420  0.00  0.00    +0.270 C 
ATOM     13  C   UNL     1      -8.255 -11.594  16.236  0.00  0.00    +0.170 C 
ATOM     14  C   UNL     1      -8.216 -12.374  17.536  0.00  0.00    +0.196 C 
ENDROOT
BRANCH  11   7
ATOM      4  O   UNL     1      -6.150 -10.969  13.951  0.00  0.00    -0.252 OA
ATOM      7  N   UNL     1      -7.643  -9.562  15.016  0.00  0.00    -0.291 N 
ATOM      8  N   UNL     1      -7.166  -9.188  12.807  0.00  0.00    -0.269 N 
ATOM     20  C   UNL     1      -6.907 -10.001  13.914  0.00  0.00    +0.304 C 
ATOM     28  H   UNL     1      -8.186  -8.708  14.930  0.00  0.00    +0.151 HD
ATOM     30  H   UNL     1      -7.823  -8.424  12.945  0.00  0.00    +0.156 HD
BRANCH   8  21
ATOM     21  C   UNL     1      -6.622  -9.296  11.505  0.00  0.00    +0.035 A 
ATOM     22  C   UNL     1      -5.449  -8.613  11.181  0.00  0.00    +0.027 A 
ATOM     23  C   UNL     1      -7.258 -10.083  10.545  0.00  0.00    +0.027 A 
ATOM     24  C   UNL     1      -4.913  -8.718   9.898  0.00  0.00    +0.047 A 
ATOM     25  C   UNL     1      -6.722 -10.187   9.262  0.00  0.00    +0.047 A 
ATOM     26  C   UNL     1      -5.549  -9.505   8.939  0.00  0.00    +0.120 A 
BRANCH  26   5
ATOM      5  O   UNL     1      -5.025  -9.607   7.687  0.00  0.00    -0.495 OA
ATOM     27  C   UNL     1      -5.917  -9.990   6.640  0.00  0.00    +0.277 C 
ENDBRANCH  26   5
ENDBRANCH   8  21
ENDBRANCH  11   7
BRANCH   9   6
ATOM      6  N   UNL     1     -10.499  -8.723  16.697  0.00  0.00    -0.293 NA
ATOM     15  C   UNL     1      -9.994  -7.343  16.670  0.00  0.00    +0.085 C 
ATOM     16  C   UNL     1     -11.920  -8.761  17.066  0.00  0.00    +0.085 C 
ATOM     17  C   UNL     1     -10.779  -6.488  15.673  0.00  0.00    +0.015 C 
ATOM     18  C   UNL     1     -12.768  -7.953  16.083  0.00  0.00    +0.015 C 
ATOM     19  C   UNL     1     -12.272  -6.515  15.975  0.00  0.00    +0.002 C 
ENDBRANCH   9   6
BRANCH  10   3
ATOM      3  O   UNL     1      -7.525  -9.523  18.634  0.00  0.00    -0.388 OA
ATOM     29  H   UNL     1      -7.854  -8.869  19.274  0.00  0.00    +0.210 HD
ENDBRANCH  10   3
TORSDOF 5
ENDMDL
MODEL 10
REMARK VINA RESULT:      -5.3     23.434     27.361
REMARK  Name = 25338202
REMARK  6 active torsions:
REMARK  status: ('A' for Active; 'I' for Inactive)
REMARK    1  A    between atoms: O_3  and  C_10
REMARK    2  A    between atoms: O_5  and  C_26
REMARK    3  A    between atoms: O_5  and  C_27
REMARK    4  A    between atoms: N_6  and  C_9
REMARK    5  A    between atoms: N_7  and  C_11
REMARK    6  A    between atoms: N_8  and  C_21
REMARK                            x       y       z     vdW  Elec       q    Type
REMARK                         _______ _______ _______ _____ _____    ______ ____
ROOT
ATOM      1  O   UNL     1     -10.519   7.591   3.096  0.00  0.00    -0.342 OA
ATOM      2  O   UNL     1     -11.494   5.487   3.168  0.00  0.00    -0.347 OA
ATOM      9  C   UNL     1     -10.475   6.370   5.175  0.00  0.00    +0.143 C 
ATOM     10  C   UNL     1      -9.120   5.731   4.794  0.00  0.00    +0.159 C 
ATOM     11  C   UNL     1      -8.535   6.275   3.472  0.00  0.00    +0.136 C 
ATOM     12  C   UNL     1     -11.291   6.699   3.911  0.00  0.00    +0.270 C 
ATOM     13  C   UNL     1      -9.616   6.686   2.452  0.00  0.00    +0.170 C 
ATOM     14  C   UNL     1     -10.569   5.568   2.073  0.00  0.00    +0.196 C 
ENDROOT
BRANCH  11   7
ATOM      4  O   UNL     1      -6.067   6.214   4.925  0.00  0.00    -0.252 OA
ATOM      7  N   UNL     1      -7.659   7.396   3.738  0.00  0.00    -0.291 N 
ATOM      8  N   UNL     1      -5.838   8.521   4.554  0.00  0.00    -0.269 N 
ATOM     20  C   UNL     1      -6.469   7.278   4.458  0.00  0.00    +0.304 C 
ATOM     28  H   UNL     1      -7.964   8.322   3.452  0.00  0.00    +0.151 HD
ATOM     30  H   UNL     1      -6.306   9.306   4.109  0.00  0.00    +0.156 HD
BRANCH   8  21
ATOM     21  C   UNL     1      -4.617   8.827   5.201  0.00  0.00    +0.035 A 
ATOM     22  C   UNL     1      -3.441   8.186   4.809  0.00  0.00    +0.027 A 
ATOM     23  C   UNL     1      -4.588   9.768   6.229  0.00  0.00    +0.027 A 
ATOM     24  C   UNL     1      -2.238   8.486   5.447  0.00  0.00    +0.047 A 
ATOM     25  C   UNL     1      -3.385  10.069   6.867  0.00  0.00    +0.047 A 
ATOM     26  C   UNL     1      -2.209   9.427   6.475  0.00  0.00    +0.120 A 
BRANCH  26   5
ATOM      5  O   UNL     1      -1.034   9.720   7.097  0.00  0.00    -0.495 OA
ATOM     27  C   UNL     1      -0.633  11.089   7.113  0.00  0.00    +0.277 C 
ENDBRANCH  26   5
ENDBRANCH   8  21
ENDBRANCH  11   7
BRANCH   9   6
ATOM      6  N   UNL     1     -10.254   7.589   5.954  0.00  0.00    -0.293 NA
ATOM     15  C   UNL     1      -9.177   7.386   6.932  0.00  0.00    +0.085 C 
ATOM     16  C   UNL     1     -11.499   8.008   6.614  0.00  0.00    +0.085 C 
ATOM     17  C   UNL     1      -8.901   8.666   7.723  0.00  0.00    +0.015 C 
ATOM     18  C   UNL     1     -11.299   9.308   7.393  0.00  0.00    +0.015 C 
ATOM     19  C   UNL     1     -10.164   9.180   8.403  0.00  0.00    +0.002 C 
ENDBRANCH   9   6
BRANCH  10   3
ATOM      3  O   UNL     1      -9.325   4.318   4.661  0.00  0.00    -0.388 OA
ATOM     29  H   UNL     1      -9.626   4.149   3.752  0.00  0.00    +0.210 HD
ENDBRANCH  10   3
TORSDOF 5
ENDMDL
