MODEL 1
REMARK VINA RESULT:      -6.3      0.000      0.000
REMARK  Name = 75536723
REMARK  8 active torsions:
REMARK  status: ('A' for Active; 'I' for Inactive)
REMARK    1  A    between atoms: O_2  and  C_9
REMARK    2  A    between atoms: N_5  and  C_8
REMARK    3  A    between atoms: N_5  and  C_11
REMARK    4  A    between atoms: N_6  and  C_15
REMARK    5  A    between atoms: N_7  and  C_19
REMARK    6  A    between atoms: C_10  and  C_15
REMARK    7  A    between atoms: C_19  and  C_20
REMARK    8  A    between atoms: C_19  and  C_21
REMARK                            x       y       z     vdW  Elec       q    Type
REMARK                         _______ _______ _______ _____ _____    ______ ____
ROOT
ATOM      1  O   UNL     1      11.992   6.849  19.516  0.00  0.00    -0.371 OA
ATOM      8  C   UNL     1      14.296   7.020  20.069  0.00  0.00    +0.111 C 
ATOM      9  C   UNL     1      13.476   7.693  21.154  0.00  0.00    +0.164 C 
ATOM     10  C   UNL     1      12.114   7.048  20.935  0.00  0.00    +0.165 C 
ATOM     12  C   UNL     1      13.297   6.970  18.924  0.00  0.00    +0.181 C 
ENDROOT
BRANCH   9   2
ATOM      2  O   UNL     1      13.976   7.440  22.453  0.00  0.00    -0.388 OA
ATOM     23  H   UNL     1      14.901   7.734  22.487  0.00  0.00    +0.210 HD
ENDBRANCH   9   2
BRANCH   8   5
ATOM      5  N   UNL     1      15.513   7.739  19.728  0.00  0.00    -0.306 NA
ATOM     22  H   UNL     1      15.408   8.729  19.946  0.00  0.00    +0.123 HD
BRANCH   5  11
ATOM      3  O   UNL     1      19.521   6.950  20.695  0.00  0.00    -0.380 OA
ATOM     11  C   UNL     1      16.663   7.194  20.444  0.00  0.00    +0.058 C 
ATOM     13  C   UNL     1      17.496   6.306  19.516  0.00  0.00    +0.047 C 
ATOM     14  C   UNL     1      17.536   8.314  21.019  0.00  0.00    +0.047 C 
ATOM     16  C   UNL     1      18.762   5.835  20.224  0.00  0.00    +0.161 C 
ATOM     17  C   UNL     1      18.799   7.733  21.645  0.00  0.00    +0.161 C 
ENDBRANCH   5  11
ENDBRANCH   8   5
BRANCH  10  15
ATOM     15  C   UNL     1      10.959   7.897  21.434  0.00  0.00    +0.140 C 
BRANCH  15   6
ATOM      4  O   UNL     1      11.238  10.749  21.763  0.00  0.00    -0.253 OA
ATOM      6  N   UNL     1      11.309   8.598  22.635  0.00  0.00    -0.297 N 
ATOM      7  N   UNL     1      11.774  10.405  23.994  0.00  0.00    -0.297 N 
ATOM     18  C   UNL     1      11.424   9.990  22.712  0.00  0.00    +0.300 C 
ATOM     24  H   UNL     1      11.497   8.054  23.472  0.00  0.00    +0.150 HD
ATOM     25  H   UNL     1      11.831   9.706  24.729  0.00  0.00    +0.150 HD
BRANCH   7  19
ATOM     19  C   UNL     1      11.958  11.794  24.343  0.00  0.00    +0.068 C 
ATOM     20  C   UNL     1      10.918  12.230  25.368  0.00  0.00    +0.027 C 
ATOM     21  C   UNL     1      13.372  12.028  24.857  0.00  0.00    +0.027 C 
ENDBRANCH   7  19
ENDBRANCH  15   6
ENDBRANCH  10  15
TORSDOF 6
ENDMDL
MODEL 2
REMARK VINA RESULT:      -6.1      3.268      8.770
REMARK  Name = 75536723
REMARK  8 active torsions:
REMARK  status: ('A' for Active; 'I' for Inactive)
REMARK    1  A    between atoms: O_2  and  C_9
REMARK    2  A    between atoms: N_5  and  C_8
REMARK    3  A    between atoms: N_5  and  C_11
REMARK    4  A    between atoms: N_6  and  C_15
REMARK    5  A    between atoms: N_7  and  C_19
REMARK    6  A    between atoms: C_10  and  C_15
REMARK    7  A    between atoms: C_19  and  C_20
REMARK    8  A    between atoms: C_19  and  C_21
REMARK                            x       y       z     vdW  Elec       q    Type
REMARK                         _______ _______ _______ _____ _____    ______ ____
ROOT
ATOM      1  O   UNL     1      18.026   6.101  19.327  0.00  0.00    -0.371 OA
ATOM      8  C   UNL     1      15.807   6.799  19.806  0.00  0.00    +0.111 C 
ATOM      9  C   UNL     1      16.623   6.833  21.085  0.00  0.00    +0.164 C 
ATOM     10  C   UNL     1      18.039   6.891  20.527  0.00  0.00    +0.165 C 
ATOM     12  C   UNL     1      16.659   5.897  18.929  0.00  0.00    +0.181 C 
ENDROOT
BRANCH   9   2
ATOM      2  O   UNL     1      16.328   7.957  21.891  0.00  0.00    -0.388 OA
ATOM     23  H   UNL     1      16.927   7.950  22.657  0.00  0.00    +0.210 HD
ENDBRANCH   9   2
BRANCH   8   5
ATOM      5  N   UNL     1      14.454   6.296  19.990  0.00  0.00    -0.306 NA
ATOM     22  H   UNL     1      14.371   5.842  20.898  0.00  0.00    +0.123 HD
BRANCH   5  11
ATOM      3  O   UNL     1      10.834   8.240  19.131  0.00  0.00    -0.380 OA
ATOM     11  C   UNL     1      13.475   7.374  19.885  0.00  0.00    +0.058 C 
ATOM     13  C   UNL     1      13.063   7.578  18.424  0.00  0.00    +0.047 C 
ATOM     14  C   UNL     1      12.238   7.081  20.741  0.00  0.00    +0.047 C 
ATOM     16  C   UNL     1      11.952   8.617  18.325  0.00  0.00    +0.161 C 
ATOM     17  C   UNL     1      11.172   8.148  20.515  0.00  0.00    +0.161 C 
ENDBRANCH   5  11
ENDBRANCH   8   5
BRANCH  10  15
ATOM     15  C   UNL     1      19.085   6.351  21.486  0.00  0.00    +0.140 C 
BRANCH  15   6
ATOM      4  O   UNL     1      21.360   4.996  22.631  0.00  0.00    -0.253 OA
ATOM      6  N   UNL     1      20.178   5.749  20.779  0.00  0.00    -0.297 N 
ATOM      7  N   UNL     1      22.167   4.614  20.489  0.00  0.00    -0.297 N 
ATOM     18  C   UNL     1      21.248   5.108  21.411  0.00  0.00    +0.300 C 
ATOM     24  H   UNL     1      20.182   5.803  19.765  0.00  0.00    +0.150 HD
ATOM     25  H   UNL     1      21.947   4.691  19.500  0.00  0.00    +0.150 HD
BRANCH   7  19
ATOM     19  C   UNL     1      23.365   3.909  20.879  0.00  0.00    +0.068 C 
ATOM     20  C   UNL     1      23.098   2.412  20.976  0.00  0.00    +0.027 C 
ATOM     21  C   UNL     1      24.496   4.206  19.903  0.00  0.00    +0.027 C 
ENDBRANCH   7  19
ENDBRANCH  15   6
ENDBRANCH  10  15
TORSDOF 6
ENDMDL
MODEL 3
REMARK VINA RESULT:      -5.9      3.120      7.185
REMARK  Name = 75536723
REMARK  8 active torsions:
REMARK  status: ('A' for Active; 'I' for Inactive)
REMARK    1  A    between atoms: O_2  and  C_9
REMARK    2  A    between atoms: N_5  and  C_8
REMARK    3  A    between atoms: N_5  and  C_11
REMARK    4  A    between atoms: N_6  and  C_15
REMARK    5  A    between atoms: N_7  and  C_19
REMARK    6  A    between atoms: C_10  and  C_15
REMARK    7  A    between atoms: C_19  and  C_20
REMARK    8  A    between atoms: C_19  and  C_21
REMARK                            x       y       z     vdW  Elec       q    Type
REMARK                         _______ _______ _______ _____ _____    ______ ____
ROOT
ATOM      1  O   UNL     1      17.854   6.274  19.314  0.00  0.00    -0.371 OA
ATOM      8  C   UNL     1      15.704   6.891  20.114  0.00  0.00    +0.111 C 
ATOM      9  C   UNL     1      16.704   6.998  21.250  0.00  0.00    +0.164 C 
ATOM     10  C   UNL     1      18.014   7.101  20.480  0.00  0.00    +0.165 C 
ATOM     12  C   UNL     1      16.454   5.999  19.137  0.00  0.00    +0.181 C 
ENDROOT
BRANCH   9   2
ATOM      2  O   UNL     1      16.483   8.133  22.066  0.00  0.00    -0.388 OA
ATOM     23  H   UNL     1      17.309   8.643  22.110  0.00  0.00    +0.210 HD
ENDBRANCH   9   2
BRANCH   8   5
ATOM      5  N   UNL     1      14.421   6.336  20.516  0.00  0.00    -0.306 NA
ATOM     22  H   UNL     1      14.487   5.946  21.455  0.00  0.00    +0.123 HD
BRANCH   5  11
ATOM      3  O   UNL     1      10.721   8.130  19.672  0.00  0.00    -0.380 OA
ATOM     11  C   UNL     1      13.374   7.353  20.477  0.00  0.00    +0.058 C 
ATOM     13  C   UNL     1      13.025   7.702  19.027  0.00  0.00    +0.047 C 
ATOM     14  C   UNL     1      12.119   6.882  21.219  0.00  0.00    +0.047 C 
ATOM     16  C   UNL     1      11.848   8.671  18.982  0.00  0.00    +0.161 C 
ATOM     17  C   UNL     1      10.993   7.897  21.053  0.00  0.00    +0.161 C 
ENDBRANCH   5  11
ENDBRANCH   8   5
BRANCH  10  15
ATOM     15  C   UNL     1      19.218   6.635  21.278  0.00  0.00    +0.140 C 
BRANCH  15   6
ATOM      4  O   UNL     1      21.316   6.450  23.250  0.00  0.00    -0.253 OA
ATOM      6  N   UNL     1      19.210   7.184  22.603  0.00  0.00    -0.297 N 
ATOM      7  N   UNL     1      19.999   7.678  24.714  0.00  0.00    -0.297 N 
ATOM     18  C   UNL     1      20.272   7.049  23.502  0.00  0.00    +0.300 C 
ATOM     24  H   UNL     1      18.381   7.686  22.909  0.00  0.00    +0.150 HD
ATOM     25  H   UNL     1      19.139   8.212  24.798  0.00  0.00    +0.150 HD
BRANCH   7  19
ATOM     19  C   UNL     1      20.932   7.688  25.816  0.00  0.00    +0.068 C 
ATOM     20  C   UNL     1      20.919   9.042  26.516  0.00  0.00    +0.027 C 
ATOM     21  C   UNL     1      20.613   6.561  26.790  0.00  0.00    +0.027 C 
ENDBRANCH   7  19
ENDBRANCH  15   6
ENDBRANCH  10  15
TORSDOF 6
ENDMDL
MODEL 4
REMARK VINA RESULT:      -5.8     26.154     29.361
REMARK  Name = 75536723
REMARK  8 active torsions:
REMARK  status: ('A' for Active; 'I' for Inactive)
REMARK    1  A    between atoms: O_2  and  C_9
REMARK    2  A    between atoms: N_5  and  C_8
REMARK    3  A    between atoms: N_5  and  C_11
REMARK    4  A    between atoms: N_6  and  C_15
REMARK    5  A    between atoms: N_7  and  C_19
REMARK    6  A    between atoms: C_10  and  C_15
REMARK    7  A    between atoms: C_19  and  C_20
REMARK    8  A    between atoms: C_19  and  C_21
REMARK                            x       y       z     vdW  Elec       q    Type
REMARK                         _______ _______ _______ _____ _____    ______ ____
ROOT
ATOM      1  O   UNL     1      -8.647 -11.005  18.767  0.00  0.00    -0.371 OA
ATOM      8  C   UNL     1      -9.238  -9.150  17.405  0.00  0.00    +0.111 C 
ATOM      9  C   UNL     1      -7.728  -9.298  17.411  0.00  0.00    +0.164 C 
ATOM     10  C   UNL     1      -7.577 -10.751  17.840  0.00  0.00    +0.165 C 
ATOM     12  C   UNL     1      -9.624  -9.958  18.633  0.00  0.00    +0.181 C 
ENDROOT
BRANCH   9   2
ATOM      2  O   UNL     1      -7.151  -9.062  16.141  0.00  0.00    -0.388 OA
ATOM     23  H   UNL     1      -6.186  -9.012  16.247  0.00  0.00    +0.210 HD
ENDBRANCH   9   2
BRANCH   8   5
ATOM      5  N   UNL     1      -9.689  -7.769  17.470  0.00  0.00    -0.306 NA
ATOM     22  H   UNL     1      -8.919  -7.162  17.748  0.00  0.00    +0.123 HD
BRANCH   5  11
ATOM      3  O   UNL     1     -12.497  -6.984  14.449  0.00  0.00    -0.380 OA
ATOM     11  C   UNL     1     -10.225  -7.330  16.185  0.00  0.00    +0.058 C 
ATOM     13  C   UNL     1     -10.888  -8.503  15.456  0.00  0.00    +0.047 C 
ATOM     14  C   UNL     1     -11.232  -6.190  16.367  0.00  0.00    +0.047 C 
ATOM     16  C   UNL     1     -11.555  -8.022  14.172  0.00  0.00    +0.161 C 
ATOM     17  C   UNL     1     -11.879  -5.836  15.032  0.00  0.00    +0.161 C 
ENDBRANCH   5  11
ENDBRANCH   8   5
BRANCH  10  15
ATOM     15  C   UNL     1      -6.244 -11.047  18.503  0.00  0.00    +0.140 C 
BRANCH  15   6
ATOM      4  O   UNL     1      -4.428 -12.359  16.685  0.00  0.00    -0.253 OA
ATOM      6  N   UNL     1      -5.159 -10.447  17.783  0.00  0.00    -0.297 N 
ATOM      7  N   UNL     1      -3.353 -10.330  16.349  0.00  0.00    -0.297 N 
ATOM     18  C   UNL     1      -4.320 -11.156  16.916  0.00  0.00    +0.300 C 
ATOM     24  H   UNL     1      -4.981  -9.456  17.919  0.00  0.00    +0.150 HD
ATOM     25  H   UNL     1      -3.394  -9.334  16.544  0.00  0.00    +0.150 HD
BRANCH   7  19
ATOM     19  C   UNL     1      -2.361 -10.813  15.418  0.00  0.00    +0.068 C 
ATOM     20  C   UNL     1      -2.827 -10.603  13.983  0.00  0.00    +0.027 C 
ATOM     21  C   UNL     1      -1.023 -10.131  15.669  0.00  0.00    +0.027 C 
ENDBRANCH   7  19
ENDBRANCH  15   6
ENDBRANCH  10  15
TORSDOF 6
ENDMDL
MODEL 5
REMARK VINA RESULT:      -5.7     26.467     29.373
REMARK  Name = 75536723
REMARK  8 active torsions:
REMARK  status: ('A' for Active; 'I' for Inactive)
REMARK    1  A    between atoms: O_2  and  C_9
REMARK    2  A    between atoms: N_5  and  C_8
REMARK    3  A    between atoms: N_5  and  C_11
REMARK    4  A    between atoms: N_6  and  C_15
REMARK    5  A    between atoms: N_7  and  C_19
REMARK    6  A    between atoms: C_10  and  C_15
REMARK    7  A    between atoms: C_19  and  C_20
REMARK    8  A    between atoms: C_19  and  C_21
REMARK                            x       y       z     vdW  Elec       q    Type
REMARK                         _______ _______ _______ _____ _____    ______ ____
ROOT
ATOM      1  O   UNL     1     -16.802   4.265  22.643  0.00  0.00    -0.371 OA
ATOM      8  C   UNL     1     -14.851   5.610  22.494  0.00  0.00    +0.111 C 
ATOM      9  C   UNL     1     -14.818   4.834  23.797  0.00  0.00    +0.164 C 
ATOM     10  C   UNL     1     -15.785   3.699  23.488  0.00  0.00    +0.165 C 
ATOM     12  C   UNL     1     -16.322   5.517  22.126  0.00  0.00    +0.181 C 
ENDROOT
BRANCH   9   2
ATOM      2  O   UNL     1     -13.526   4.353  24.114  0.00  0.00    -0.388 OA
ATOM     23  H   UNL     1     -12.901   5.096  24.062  0.00  0.00    +0.210 HD
ENDBRANCH   9   2
BRANCH   8   5
ATOM      5  N   UNL     1     -14.383   6.982  22.619  0.00  0.00    -0.306 NA
ATOM     22  H   UNL     1     -13.758   7.066  23.420  0.00  0.00    +0.123 HD
BRANCH   5  11
ATOM      3  O   UNL     1     -11.321   8.462  20.159  0.00  0.00    -0.380 OA
ATOM     11  C   UNL     1     -13.696   7.415  21.407  0.00  0.00    +0.058 C 
ATOM     13  C   UNL     1     -13.287   8.886  21.523  0.00  0.00    +0.047 C 
ATOM     14  C   UNL     1     -12.462   6.549  21.132  0.00  0.00    +0.047 C 
ATOM     16  C   UNL     1     -12.462   9.307  20.312  0.00  0.00    +0.161 C 
ATOM     17  C   UNL     1     -11.683   7.099  19.942  0.00  0.00    +0.161 C 
ENDBRANCH   5  11
ENDBRANCH   8   5
BRANCH  10  15
ATOM     15  C   UNL     1     -16.424   3.099  24.727  0.00  0.00    +0.140 C 
BRANCH  15   6
ATOM      4  O   UNL     1     -17.044   2.340  27.441  0.00  0.00    -0.253 OA
ATOM      6  N   UNL     1     -15.699   3.457  25.912  0.00  0.00    -0.297 N 
ATOM      7  N   UNL     1     -15.191   3.535  28.162  0.00  0.00    -0.297 N 
ATOM     18  C   UNL     1     -16.067   3.046  27.197  0.00  0.00    +0.300 C 
ATOM     24  H   UNL     1     -14.882   4.052  25.814  0.00  0.00    +0.150 HD
ATOM     25  H   UNL     1     -14.369   4.047  27.853  0.00  0.00    +0.150 HD
BRANCH   7  19
ATOM     19  C   UNL     1     -15.345   3.258  29.571  0.00  0.00    +0.068 C 
ATOM     20  C   UNL     1     -14.088   2.599  30.127  0.00  0.00    +0.027 C 
ATOM     21  C   UNL     1     -15.680   4.536  30.328  0.00  0.00    +0.027 C 
ENDBRANCH   7  19
ENDBRANCH  15   6
ENDBRANCH  10  15
TORSDOF 6
ENDMDL
MODEL 6
REMARK VINA RESULT:      -5.6     25.949     28.264
REMARK  Name = 75536723
REMARK  8 active torsions:
REMARK  status: ('A' for Active; 'I' for Inactive)
REMARK    1  A    between atoms: O_2  and  C_9
REMARK    2  A    between atoms: N_5  and  C_8
REMARK    3  A    between atoms: N_5  and  C_11
REMARK    4  A    between atoms: N_6  and  C_15
REMARK    5  A    between atoms: N_7  and  C_19
REMARK    6  A    between atoms: C_10  and  C_15
REMARK    7  A    between atoms: C_19  and  C_20
REMARK    8  A    between atoms: C_19  and  C_21
REMARK                            x       y       z     vdW  Elec       q    Type
REMARK                         _______ _______ _______ _____ _____    ______ ____
ROOT
ATOM      1  O   UNL     1      -1.233 -11.432  15.195  0.00  0.00    -0.371 OA
ATOM      8  C   UNL     1      -3.379 -10.941  16.087  0.00  0.00    +0.111 C 
ATOM      9  C   UNL     1      -3.505 -11.170  14.592  0.00  0.00    +0.164 C 
ATOM     10  C   UNL     1      -2.234 -11.959  14.308  0.00  0.00    +0.165 C 
ATOM     12  C   UNL     1      -1.889 -10.674  16.226  0.00  0.00    +0.181 C 
ENDROOT
BRANCH   9   2
ATOM      2  O   UNL     1      -4.667 -11.900  14.247  0.00  0.00    -0.388 OA
ATOM     23  H   UNL     1      -4.980 -12.368  15.039  0.00  0.00    +0.210 HD
ENDBRANCH   9   2
BRANCH   8   5
ATOM      5  N   UNL     1      -4.199  -9.847  16.581  0.00  0.00    -0.306 NA
ATOM     22  H   UNL     1      -4.676  -9.388  15.805  0.00  0.00    +0.123 HD
BRANCH   5  11
ATOM      3  O   UNL     1      -7.254 -12.197  18.246  0.00  0.00    -0.380 OA
ATOM     11  C   UNL     1      -5.181 -10.323  17.552  0.00  0.00    +0.058 C 
ATOM     13  C   UNL     1      -6.593 -10.239  16.966  0.00  0.00    +0.047 C 
ATOM     14  C   UNL     1      -4.877 -11.761  17.983  0.00  0.00    +0.047 C 
ATOM     16  C   UNL     1      -7.605 -10.849  17.929  0.00  0.00    +0.161 C 
ATOM     17  C   UNL     1      -5.984 -12.286  18.891  0.00  0.00    +0.161 C 
ENDBRANCH   5  11
ENDBRANCH   8   5
BRANCH  10  15
ATOM     15  C   UNL     1      -1.760 -11.838  12.871  0.00  0.00    +0.140 C 
BRANCH  15   6
ATOM      4  O   UNL     1      -1.901  -9.608  11.045  0.00  0.00    -0.253 OA
ATOM      6  N   UNL     1      -2.843 -11.509  11.991  0.00  0.00    -0.297 N 
ATOM      7  N   UNL     1      -4.010 -10.322  10.391  0.00  0.00    -0.297 N 
ATOM     18  C   UNL     1      -2.834 -10.405  11.132  0.00  0.00    +0.300 C 
ATOM     24  H   UNL     1      -3.668 -12.102  12.001  0.00  0.00    +0.150 HD
ATOM     25  H   UNL     1      -4.690 -11.072  10.479  0.00  0.00    +0.150 HD
BRANCH   7  19
ATOM     19  C   UNL     1      -4.256  -9.274   9.429  0.00  0.00    +0.068 C 
ATOM     20  C   UNL     1      -4.868  -9.847   8.157  0.00  0.00    +0.027 C 
ATOM     21  C   UNL     1      -5.149  -8.199  10.035  0.00  0.00    +0.027 C 
ENDBRANCH   7  19
ENDBRANCH  15   6
ENDBRANCH  10  15
TORSDOF 6
ENDMDL
MODEL 7
REMARK VINA RESULT:      -5.6      4.157      6.202
REMARK  Name = 75536723
REMARK  8 active torsions:
REMARK  status: ('A' for Active; 'I' for Inactive)
REMARK    1  A    between atoms: O_2  and  C_9
REMARK    2  A    between atoms: N_5  and  C_8
REMARK    3  A    between atoms: N_5  and  C_11
REMARK    4  A    between atoms: N_6  and  C_15
REMARK    5  A    between atoms: N_7  and  C_19
REMARK    6  A    between atoms: C_10  and  C_15
REMARK    7  A    between atoms: C_19  and  C_20
REMARK    8  A    between atoms: C_19  and  C_21
REMARK                            x       y       z     vdW  Elec       q    Type
REMARK                         _______ _______ _______ _____ _____    ______ ____
ROOT
ATOM      1  O   UNL     1      17.997   7.126  21.426  0.00  0.00    -0.371 OA
ATOM      8  C   UNL     1      19.488   5.858  20.080  0.00  0.00    +0.111 C 
ATOM      9  C   UNL     1      18.062   5.549  19.664  0.00  0.00    +0.164 C 
ATOM     10  C   UNL     1      17.328   6.769  20.205  0.00  0.00    +0.165 C 
ATOM     12  C   UNL     1      19.275   6.466  21.456  0.00  0.00    +0.181 C 
ENDROOT
BRANCH   9   2
ATOM      2  O   UNL     1      17.917   5.425  18.262  0.00  0.00    -0.388 OA
ATOM     23  H   UNL     1      17.336   6.139  17.951  0.00  0.00    +0.210 HD
ENDBRANCH   9   2
BRANCH   8   5
ATOM      5  N   UNL     1      20.355   4.690  20.105  0.00  0.00    -0.306 NA
ATOM     22  H   UNL     1      20.765   4.538  19.185  0.00  0.00    +0.123 HD
BRANCH   5  11
ATOM      3  O   UNL     1      24.079   4.203  21.980  0.00  0.00    -0.380 OA
ATOM     11  C   UNL     1      21.413   4.843  21.099  0.00  0.00    +0.058 C 
ATOM     13  C   UNL     1      21.774   3.484  21.706  0.00  0.00    +0.047 C 
ATOM     14  C   UNL     1      22.659   5.488  20.484  0.00  0.00    +0.047 C 
ATOM     16  C   UNL     1      22.961   3.623  22.653  0.00  0.00    +0.161 C 
ATOM     17  C   UNL     1      23.797   5.517  21.498  0.00  0.00    +0.161 C 
ENDBRANCH   5  11
ENDBRANCH   8   5
BRANCH  10  15
ATOM     15  C   UNL     1      15.858   6.512  20.482  0.00  0.00    +0.140 C 
BRANCH  15   6
ATOM      4  O   UNL     1      14.431   8.894  19.700  0.00  0.00    -0.253 OA
ATOM      6  N   UNL     1      15.065   6.696  19.302  0.00  0.00    -0.297 N 
ATOM      7  N   UNL     1      13.707   7.792  17.791  0.00  0.00    -0.297 N 
ATOM     18  C   UNL     1      14.402   7.888  18.994  0.00  0.00    +0.300 C 
ATOM     24  H   UNL     1      14.969   5.913  18.661  0.00  0.00    +0.150 HD
ATOM     25  H   UNL     1      13.807   6.942  17.242  0.00  0.00    +0.150 HD
BRANCH   7  19
ATOM     19  C   UNL     1      12.938   8.883  17.243  0.00  0.00    +0.068 C 
ATOM     20  C   UNL     1      13.408   9.215  15.832  0.00  0.00    +0.027 C 
ATOM     21  C   UNL     1      11.452   8.547  17.265  0.00  0.00    +0.027 C 
ENDBRANCH   7  19
ENDBRANCH  15   6
ENDBRANCH  10  15
TORSDOF 6
ENDMDL
MODEL 8
REMARK VINA RESULT:      -5.5     26.240     29.391
REMARK  Name = 75536723
REMARK  8 active torsions:
REMARK  status: ('A' for Active; 'I' for Inactive)
REMARK    1  A    between atoms: O_2  and  C_9
REMARK    2  A    between atoms: N_5  and  C_8
REMARK    3  A    between atoms: N_5  and  C_11
REMARK    4  A    between atoms: N_6  and  C_15
REMARK    5  A    between atoms: N_7  and  C_19
REMARK    6  A    between atoms: C_10  and  C_15
REMARK    7  A    between atoms: C_19  and  C_20
REMARK    8  A    between atoms: C_19  and  C_21
REMARK                            x       y       z     vdW  Elec       q    Type
REMARK                         _______ _______ _______ _____ _____    ______ ____
ROOT
ATOM      1  O   UNL     1      -7.422 -12.441  19.270  0.00  0.00    -0.371 OA
ATOM      8  C   UNL     1      -8.744 -10.671  18.398  0.00  0.00    +0.111 C 
ATOM      9  C   UNL     1      -7.285 -10.255  18.377  0.00  0.00    +0.164 C 
ATOM     10  C   UNL     1      -6.593 -11.610  18.440  0.00  0.00    +0.165 C 
ATOM     12  C   UNL     1      -8.715 -11.822  19.390  0.00  0.00    +0.181 C 
ENDROOT
BRANCH   9   2
ATOM      2  O   UNL     1      -6.938  -9.540  17.207  0.00  0.00    -0.388 OA
ATOM     23  H   UNL     1      -6.214 -10.013  16.763  0.00  0.00    +0.210 HD
ENDBRANCH   9   2
BRANCH   8   5
ATOM      5  N   UNL     1      -9.649  -9.604  18.796  0.00  0.00    -0.306 NA
ATOM     22  H   UNL     1      -9.120  -8.820  19.176  0.00  0.00    +0.123 HD
BRANCH   5  11
ATOM      3  O   UNL     1     -10.604  -8.335  14.910  0.00  0.00    -0.380 OA
ATOM     11  C   UNL     1     -10.458  -9.153  17.667  0.00  0.00    +0.058 C 
ATOM     13  C   UNL     1      -9.990  -7.774  17.193  0.00  0.00    +0.047 C 
ATOM     14  C   UNL     1     -10.394 -10.153  16.508  0.00  0.00    +0.047 C 
ATOM     16  C   UNL     1     -10.750  -7.356  15.940  0.00  0.00    +0.161 C 
ATOM     17  C   UNL     1     -11.133  -9.604  15.292  0.00  0.00    +0.161 C 
ENDBRANCH   5  11
ENDBRANCH   8   5
BRANCH  10  15
ATOM     15  C   UNL     1      -5.192 -11.543  19.019  0.00  0.00    +0.140 C 
BRANCH  15   6
ATOM      4  O   UNL     1      -4.086  -9.969  16.869  0.00  0.00    -0.253 OA
ATOM      6  N   UNL     1      -4.210 -11.959  18.060  0.00  0.00    -0.297 N 
ATOM      7  N   UNL     1      -2.780 -11.787  16.257  0.00  0.00    -0.297 N 
ATOM     18  C   UNL     1      -3.724 -11.132  17.043  0.00  0.00    +0.300 C 
ATOM     24  H   UNL     1      -3.860 -12.911  18.114  0.00  0.00    +0.150 HD
ATOM     25  H   UNL     1      -2.492 -12.723  16.528  0.00  0.00    +0.150 HD
BRANCH   7  19
ATOM     19  C   UNL     1      -2.122 -11.157  15.137  0.00  0.00    +0.068 C 
ATOM     20  C   UNL     1      -0.989 -10.259  15.618  0.00  0.00    +0.027 C 
ATOM     21  C   UNL     1      -1.615 -12.209  14.159  0.00  0.00    +0.027 C 
ENDBRANCH   7  19
ENDBRANCH  15   6
ENDBRANCH  10  15
TORSDOF 6
ENDMDL
MODEL 9
REMARK VINA RESULT:      -5.4     28.861     30.369
REMARK  Name = 75536723
REMARK  8 active torsions:
REMARK  status: ('A' for Active; 'I' for Inactive)
REMARK    1  A    between atoms: O_2  and  C_9
REMARK    2  A    between atoms: N_5  and  C_8
REMARK    3  A    between atoms: N_5  and  C_11
REMARK    4  A    between atoms: N_6  and  C_15
REMARK    5  A    between atoms: N_7  and  C_19
REMARK    6  A    between atoms: C_10  and  C_15
REMARK    7  A    between atoms: C_19  and  C_20
REMARK    8  A    between atoms: C_19  and  C_21
REMARK                            x       y       z     vdW  Elec       q    Type
REMARK                         _______ _______ _______ _____ _____    ______ ____
ROOT
ATOM      1  O   UNL     1     -12.204  -7.668  14.122  0.00  0.00    -0.371 OA
ATOM      8  C   UNL     1     -10.501  -7.887  15.763  0.00  0.00    +0.111 C 
ATOM      9  C   UNL     1     -10.932  -6.434  15.688  0.00  0.00    +0.164 C 
ATOM     10  C   UNL     1     -12.304  -6.567  15.041  0.00  0.00    +0.165 C 
ATOM     12  C   UNL     1     -11.023  -8.424  14.441  0.00  0.00    +0.181 C 
ENDROOT
BRANCH   9   2
ATOM      2  O   UNL     1     -11.007  -5.819  16.960  0.00  0.00    -0.388 OA
ATOM     23  H   UNL     1     -10.842  -6.497  17.637  0.00  0.00    +0.210 HD
ENDBRANCH   9   2
BRANCH   8   5
ATOM      5  N   UNL     1      -9.066  -8.063  15.920  0.00  0.00    -0.306 NA
ATOM     22  H   UNL     1      -8.594  -7.161  15.860  0.00  0.00    +0.123 HD
BRANCH   5  11
ATOM      3  O   UNL     1      -8.252 -11.114  18.686  0.00  0.00    -0.380 OA
ATOM     11  C   UNL     1      -8.751  -8.702  17.194  0.00  0.00    +0.058 C 
ATOM     13  C   UNL     1      -9.872  -9.664  17.598  0.00  0.00    +0.047 C 
ATOM     14  C   UNL     1      -7.418  -9.453  17.120  0.00  0.00    +0.047 C 
ATOM     16  C   UNL     1      -9.489 -10.423  18.865  0.00  0.00    +0.161 C 
ATOM     17  C   UNL     1      -7.171 -10.223  18.413  0.00  0.00    +0.161 C 
ENDBRANCH   5  11
ENDBRANCH   8   5
BRANCH  10  15
ATOM     15  C   UNL     1     -12.743  -5.318  14.299  0.00  0.00    +0.140 C 
BRANCH  15   6
ATOM      4  O   UNL     1     -12.186  -3.105  12.534  0.00  0.00    -0.253 OA
ATOM      6  N   UNL     1     -12.395  -5.387  12.910  0.00  0.00    -0.297 N 
ATOM      7  N   UNL     1     -11.824  -4.617  10.810  0.00  0.00    -0.297 N 
ATOM     18  C   UNL     1     -12.139  -4.262  12.120  0.00  0.00    +0.300 C 
ATOM     24  H   UNL     1     -12.345  -6.303  12.473  0.00  0.00    +0.150 HD
ATOM     25  H   UNL     1     -11.736  -5.603  10.585  0.00  0.00    +0.150 HD
BRANCH   7  19
ATOM     19  C   UNL     1     -11.517  -3.643   9.789  0.00  0.00    +0.068 C 
ATOM     20  C   UNL     1     -10.325  -4.098   8.957  0.00  0.00    +0.027 C 
ATOM     21  C   UNL     1     -12.738  -3.392   8.914  0.00  0.00    +0.027 C 
ENDBRANCH   7  19
ENDBRANCH  15   6
ENDBRANCH  10  15
TORSDOF 6
ENDMDL
MODEL 10
REMARK VINA RESULT:      -5.4     21.811     24.761
REMARK  Name = 75536723
REMARK  8 active torsions:
REMARK  status: ('A' for Active; 'I' for Inactive)
REMARK    1  A    between atoms: O_2  and  C_9
REMARK    2  A    between atoms: N_5  and  C_8
REMARK    3  A    between atoms: N_5  and  C_11
REMARK    4  A    between atoms: N_6  and  C_15
REMARK    5  A    between atoms: N_7  and  C_19
REMARK    6  A    between atoms: C_10  and  C_15
REMARK    7  A    between atoms: C_19  and  C_20
REMARK    8  A    between atoms: C_19  and  C_21
REMARK                            x       y       z     vdW  Elec       q    Type
REMARK                         _______ _______ _______ _____ _____    ______ ____
ROOT
ATOM      1  O   UNL     1      -2.426  11.345  36.351  0.00  0.00    -0.371 OA
ATOM      8  C   UNL     1      -4.505  10.197  36.311  0.00  0.00    +0.111 C 
ATOM      9  C   UNL     1      -3.380   9.182  36.387  0.00  0.00    +0.164 C 
ATOM     10  C   UNL     1      -2.245  10.041  36.928  0.00  0.00    +0.165 C 
ATOM     12  C   UNL     1      -3.762  11.432  35.827  0.00  0.00    +0.181 C 
ENDROOT
BRANCH   9   2
ATOM      2  O   UNL     1      -3.679   8.100  37.250  0.00  0.00    -0.388 OA
ATOM     23  H   UNL     1      -3.622   8.416  38.167  0.00  0.00    +0.210 HD
ENDBRANCH   9   2
BRANCH   8   5
ATOM      5  N   UNL     1      -5.588   9.804  35.423  0.00  0.00    -0.306 NA
ATOM     22  H   UNL     1      -5.462   8.837  35.125  0.00  0.00    +0.123 HD
BRANCH   5  11
ATOM      3  O   UNL     1      -9.515   8.912  36.606  0.00  0.00    -0.380 OA
ATOM     11  C   UNL     1      -6.884   9.955  36.076  0.00  0.00    +0.058 C 
ATOM     13  C   UNL     1      -8.005   9.986  35.034  0.00  0.00    +0.047 C 
ATOM     14  C   UNL     1      -7.133   8.823  37.079  0.00  0.00    +0.047 C 
ATOM     16  C   UNL     1      -9.367  10.020  35.719  0.00  0.00    +0.161 C 
ATOM     17  C   UNL     1      -8.543   8.923  37.651  0.00  0.00    +0.161 C 
ENDBRANCH   5  11
ENDBRANCH   8   5
BRANCH  10  15
ATOM     15  C   UNL     1      -0.868   9.510  36.572  0.00  0.00    +0.140 C 
BRANCH  15   6
ATOM      4  O   UNL     1      -0.355   8.554  39.245  0.00  0.00    -0.253 OA
ATOM      6  N   UNL     1      -0.712   8.146  36.987  0.00  0.00    -0.297 N 
ATOM      7  N   UNL     1      -0.358   6.381  38.431  0.00  0.00    -0.297 N 
ATOM     18  C   UNL     1      -0.464   7.764  38.309  0.00  0.00    +0.300 C 
ATOM     24  H   UNL     1      -0.772   7.420  36.280  0.00  0.00    +0.150 HD
ATOM     25  H   UNL     1      -0.539   5.809  37.612  0.00  0.00    +0.150 HD
BRANCH   7  19
ATOM     19  C   UNL     1      -0.102   5.724  39.691  0.00  0.00    +0.068 C 
ATOM     20  C   UNL     1      -1.371   5.064  40.218  0.00  0.00    +0.027 C 
ATOM     21  C   UNL     1       1.025   4.712  39.542  0.00  0.00    +0.027 C 
ENDBRANCH   7  19
ENDBRANCH  15   6
ENDBRANCH  10  15
TORSDOF 6
ENDMDL
