REMARK  Name = 75367643
REMARK  7 active torsions:
REMARK  status: ('A' for Active; 'I' for Inactive)
REMARK    1  A    between atoms: O_5  and  C_10
REMARK    2  A    between atoms: O_5  and  C_18
REMARK    3  A    between atoms: O_7  and  C_24
REMARK    4  A    between atoms: O_7  and  C_29
REMARK    5  A    between atoms: C_15  and  C_16
REMARK    6  A    between atoms: C_16  and  C_17
REMARK    7  A    between atoms: C_26  and  C_28
REMARK                            x       y       z     vdW  Elec       q    Type
REMARK                         _______ _______ _______ _____ _____    ______ ____
ROOT
ATOM      4  O   UNL     1      -0.661   4.240  -0.213  0.00  0.00    -0.375 OA
ATOM      6  O   UNL     1       3.067   1.274  -1.400  0.00  0.00    -0.275 OA
ATOM      8  N   UNL     1       0.871   1.520  -0.658  0.00  0.00    -0.295 N 
ATOM     10  C   UNL     1      -1.406   1.998   0.406  0.00  0.00    +0.218 C 
ATOM     11  C   UNL     1      -0.213   1.058   0.214  0.00  0.00    +0.154 C 
ATOM     12  C   UNL     1       0.613   2.646  -1.560  0.00  0.00    +0.136 C 
ATOM     13  C   UNL     1      -1.000   3.392   0.877  0.00  0.00    +0.206 C 
ATOM     14  C   UNL     1       0.605   3.969  -0.806  0.00  0.00    +0.179 C 
ATOM     15  C   UNL     1       2.137   0.919  -0.672  0.00  0.00    +0.220 C 
ENDROOT
BRANCH  10   5
ATOM      5  O   UNL     1      -2.254   1.430   1.406  0.00  0.00    -0.469 OA
BRANCH   5  18
ATOM      9  N   UNL     1      -3.272   0.327  -0.361  0.00  0.00    -0.221 NA
ATOM     18  C   UNL     1      -3.216   0.562   0.969  0.00  0.00    +0.215 A 
ATOM     21  C   UNL     1      -4.067  -0.019   1.896  0.00  0.00    +0.068 A 
ATOM     25  C   UNL     1      -5.037  -0.898   1.427  0.00  0.00    +0.019 A 
ATOM     26  C   UNL     1      -5.126  -1.165   0.066  0.00  0.00    +0.073 A 
ATOM     27  C   UNL     1      -4.228  -0.532  -0.779  0.00  0.00    +0.127 A 
BRANCH  26  28
ATOM      1  F   UNL     1      -5.628  -3.177  -1.127  0.00  0.00    -0.166 F 
ATOM      2  F   UNL     1      -7.013  -1.524  -1.360  0.00  0.00    -0.166 F 
ATOM      3  F   UNL     1      -6.947  -2.627   0.512  0.00  0.00    -0.166 F 
ATOM     28  C   UNL     1      -6.153  -2.100  -0.467  0.00  0.00    +0.419 C 
ENDBRANCH  26  28
ENDBRANCH   5  18
ENDBRANCH  10   5
BRANCH  15  16
ATOM     16  C   UNL     1       2.347  -0.230   0.285  0.00  0.00    +0.131 C 
BRANCH  16  17
ATOM     17  C   UNL     1       3.748  -0.743   0.191  0.00  0.00    -0.038 A 
ATOM     19  C   UNL     1       4.060  -1.760  -0.711  0.00  0.00    +0.007 A 
ATOM     20  C   UNL     1       4.744  -0.204   1.006  0.00  0.00    +0.007 A 
ATOM     22  C   UNL     1       5.368  -2.238  -0.799  0.00  0.00    +0.046 A 
ATOM     23  C   UNL     1       6.051  -0.683   0.919  0.00  0.00    +0.046 A 
ATOM     24  C   UNL     1       6.363  -1.699   0.016  0.00  0.00    +0.120 A 
BRANCH  24   7
ATOM      7  O   UNL     1       7.639  -2.165  -0.070  0.00  0.00    -0.495 OA
ATOM     29  C   UNL     1       8.607  -1.570   0.793  0.00  0.00    +0.277 C 
ENDBRANCH  24   7
ENDBRANCH  16  17
ENDBRANCH  15  16
TORSDOF 6
