REMARK  Name = 11887496
REMARK  5 active torsions:
REMARK  status: ('A' for Active; 'I' for Inactive)
REMARK    1  A    between atoms: O_5  and  C_28
REMARK    2  A    between atoms: O_5  and  C_29
REMARK    3  A    between atoms: N_8  and  C_19
REMARK    4  A    between atoms: C_18  and  C_21
REMARK    5  A    between atoms: C_24  and  C_28
REMARK                            x       y       z     vdW  Elec       q    Type
REMARK                         _______ _______ _______ _____ _____    ______ ____
ROOT
ATOM      2  O   UNL     1      -0.117   2.837   1.286  0.00  0.00    -0.266 OA
ATOM      3  O   UNL     1      -3.482  -0.821   2.722  0.00  0.00    -0.270 OA
ATOM      6  N   UNL     1      -4.265   0.121   0.729  0.00  0.00    -0.297 N 
ATOM      7  N   UNL     1      -1.953   2.168   0.005  0.00  0.00    -0.310 N 
ATOM      9  C   UNL     1      -4.374   2.607   0.720  0.00  0.00    +0.027 C 
ATOM     10  C   UNL     1      -3.915   1.395  -1.374  0.00  0.00    +0.054 C 
ATOM     11  C   UNL     1      -4.670   2.582  -0.776  0.00  0.00    +0.018 C 
ATOM     12  C   UNL     1      -4.838   1.298   1.382  0.00  0.00    +0.113 C 
ATOM     13  C   UNL     1      -2.874   2.856   0.922  0.00  0.00    +0.130 C 
ATOM     14  C   UNL     1      -4.420   0.086  -0.735  0.00  0.00    +0.117 C 
ATOM     15  C   UNL     1      -2.421   1.531  -1.149  0.00  0.00    +0.027 A 
ATOM     16  C   UNL     1      -1.553   1.009  -2.032  0.00  0.00    +0.024 A 
ATOM     17  C   UNL     1      -0.577   2.272   0.293  0.00  0.00    +0.273 A 
ATOM     18  C   UNL     1      -3.614  -0.845   1.500  0.00  0.00    +0.247 C 
ATOM     19  C   UNL     1       0.355   1.653  -0.702  0.00  0.00    +0.099 A 
ATOM     20  C   UNL     1      -0.138   1.072  -1.801  0.00  0.00    +0.030 A 
ENDROOT
BRANCH  18  21
ATOM      1  F   UNL     1      -1.317  -5.203  -1.145  0.00  0.00    -0.205 F 
ATOM     21  C   UNL     1      -3.012  -1.987   0.805  0.00  0.00    +0.037 A 
ATOM     22  C   UNL     1      -1.692  -1.915   0.368  0.00  0.00    +0.016 A 
ATOM     23  C   UNL     1      -3.763  -3.139   0.586  0.00  0.00    +0.016 A 
ATOM     25  C   UNL     1      -1.119  -3.002  -0.292  0.00  0.00    +0.039 A 
ATOM     26  C   UNL     1      -3.190  -4.227  -0.074  0.00  0.00    +0.039 A 
ATOM     27  C   UNL     1      -1.868  -4.158  -0.512  0.00  0.00    +0.123 A 
ENDBRANCH  18  21
BRANCH  19   8
ATOM      4  O   UNL     1       2.337  -0.245  -1.535  0.00  0.00    -0.272 OA
ATOM      8  N   UNL     1       1.694   1.716  -0.450  0.00  0.00    -0.278 N 
ATOM     24  C   UNL     1       2.604   0.761  -0.883  0.00  0.00    +0.255 C 
ATOM     35  H   UNL     1       1.995   2.371   0.268  0.00  0.00    +0.155 HD
BRANCH  24  28
ATOM     28  C   UNL     1       4.015   1.102  -0.450  0.00  0.00    +0.324 C 
BRANCH  28   5
ATOM      5  O   UNL     1       4.928   0.131  -0.915  0.00  0.00    -0.483 OA
BRANCH   5  29
ATOM     29  C   UNL     1       6.064  -0.072  -0.168  0.00  0.00    +0.121 A 
ATOM     30  C   UNL     1       6.598   0.980   0.562  0.00  0.00    +0.045 A 
ATOM     31  C   UNL     1       6.659  -1.326  -0.155  0.00  0.00    +0.045 A 
ATOM     32  C   UNL     1       7.751   0.774   1.321  0.00  0.00    +0.004 A 
ATOM     33  C   UNL     1       7.811  -1.532   0.604  0.00  0.00    +0.004 A 
ATOM     34  C   UNL     1       8.357  -0.482   1.341  0.00  0.00    +0.000 A 
ENDBRANCH   5  29
ENDBRANCH  28   5
ENDBRANCH  24  28
ENDBRANCH  19   8
TORSDOF 5
