MODEL 1
REMARK VINA RESULT:      -6.7      0.000      0.000
REMARK  Name = 11883105
REMARK  8 active torsions:
REMARK  status: ('A' for Active; 'I' for Inactive)
REMARK    1  A    between atoms: O_3  and  C_16
REMARK    2  A    between atoms: O_4  and  C_21
REMARK    3  A    between atoms: C_11  and  C_19
REMARK    4  A    between atoms: C_13  and  C_21
REMARK    5  A    between atoms: C_13  and  C_22
REMARK    6  A    between atoms: C_14  and  C_24
REMARK    7  A    between atoms: C_24  and  C_25
REMARK    8  A    between atoms: C_27  and  C_28
REMARK                            x       y       z     vdW  Elec       q    Type
REMARK                         _______ _______ _______ _____ _____    ______ ____
ROOT
ATOM      1  S   UNL     1      -7.245  -9.781  12.818  0.00  0.00    -0.057 S 
ATOM      6  O   UNL     1      -3.520 -10.696  10.195  0.00  0.00    -0.275 OA
ATOM      7  N   UNL     1      -4.859 -10.781  12.820  0.00  0.00    -0.229 NA
ATOM      8  N   UNL     1      -5.676  -9.922  10.722  0.00  0.00    -0.264 N 
ATOM     11  C   UNL     1      -5.159 -11.152  16.647  0.00  0.00    -0.019 C 
ATOM     12  C   UNL     1      -6.734 -11.373  16.581  0.00  0.00    +0.011 C 
ATOM     13  C   UNL     1      -7.501 -11.476  17.956  0.00  0.00    +0.021 C 
ATOM     14  C   UNL     1      -4.550 -11.513  15.215  0.00  0.00    +0.054 C 
ATOM     15  C   UNL     1      -4.546 -12.115  17.697  0.00  0.00    +0.010 C 
ATOM     16  C   UNL     1      -6.730 -12.441  18.900  0.00  0.00    +0.123 C 
ATOM     17  C   UNL     1      -7.403 -10.405  15.562  0.00  0.00    +0.049 C 
ATOM     18  C   UNL     1      -5.254 -12.090  19.044  0.00  0.00    +0.032 C 
ATOM     19  C   UNL     1      -4.771  -9.699  17.019  0.00  0.00    +0.012 C 
ATOM     20  C   UNL     1      -5.353 -10.880  14.108  0.00  0.00    +0.058 A 
ATOM     22  C   UNL     1      -8.905 -12.095  17.708  0.00  0.00    +0.016 C 
ATOM     23  C   UNL     1      -6.638 -10.406  14.282  0.00  0.00    +0.015 A 
ATOM     26  C   UNL     1      -5.767 -10.212  12.058  0.00  0.00    +0.165 A 
ATOM     28  C   UNL     1      -4.586 -10.168   9.868  0.00  0.00    +0.222 C 
ATOM     37  H   UNL     1      -6.498  -9.477  10.322  0.00  0.00    +0.157 HD
ENDROOT
BRANCH  28  27
ATOM     27  C   UNL     1      -4.832  -9.702   8.418  0.00  0.00    +0.075 C 
ATOM     29  C   UNL     1      -4.897 -10.790   7.325  0.00  0.00    +0.013 C 
ATOM     30  C   UNL     1      -6.277  -9.331   8.028  0.00  0.00    +0.013 C 
ATOM     31  C   UNL     1      -5.973  -9.923   6.636  0.00  0.00    +0.001 C 
ENDBRANCH  28  27
BRANCH  16   3
ATOM      3  O   UNL     1      -7.326 -12.456  20.198  0.00  0.00    -0.391 OA
ATOM     35  H   UNL     1      -7.562 -13.377  20.403  0.00  0.00    +0.210 HD
ENDBRANCH  16   3
BRANCH  13  21
ATOM     21  C   UNL     1      -7.762 -10.120  18.647  0.00  0.00    +0.165 C 
BRANCH  21   4
ATOM      4  O   UNL     1      -8.821 -10.297  19.560  0.00  0.00    -0.394 OA
ATOM     36  H   UNL     1      -8.491 -10.049  20.439  0.00  0.00    +0.209 HD
ENDBRANCH  21   4
ENDBRANCH  13  21
BRANCH  14  24
ATOM     24  C   UNL     1      -3.052 -11.213  15.064  0.00  0.00    +0.106 C 
BRANCH  24  25
ATOM      2  S   UNL     1      -3.454 -16.151  15.056  0.00  0.00    -0.061 S 
ATOM      5  O   UNL     1      -1.288 -12.228  13.780  0.00  0.00    -0.275 OA
ATOM      9  N   UNL     1      -2.909 -13.575  14.827  0.00  0.00    -0.265 N 
ATOM     10  N   UNL     1      -1.457 -15.189  13.725  0.00  0.00    -0.233 NA
ATOM     25  C   UNL     1      -2.292 -12.381  14.468  0.00  0.00    +0.219 C 
ATOM     32  C   UNL     1      -2.494 -14.858  14.463  0.00  0.00    +0.164 A 
ATOM     33  C   UNL     1      -2.408 -17.257  14.266  0.00  0.00    +0.068 A 
ATOM     34  C   UNL     1      -1.410 -16.565  13.614  0.00  0.00    +0.120 A 
ATOM     38  H   UNL     1      -3.748 -13.553  15.401  0.00  0.00    +0.157 HD
ENDBRANCH  24  25
ENDBRANCH  14  24
TORSDOF 6
ENDMDL
MODEL 2
REMARK VINA RESULT:      -6.7     23.968     28.211
REMARK  Name = 11883105
REMARK  8 active torsions:
REMARK  status: ('A' for Active; 'I' for Inactive)
REMARK    1  A    between atoms: O_3  and  C_16
REMARK    2  A    between atoms: O_4  and  C_21
REMARK    3  A    between atoms: C_11  and  C_19
REMARK    4  A    between atoms: C_13  and  C_21
REMARK    5  A    between atoms: C_13  and  C_22
REMARK    6  A    between atoms: C_14  and  C_24
REMARK    7  A    between atoms: C_24  and  C_25
REMARK    8  A    between atoms: C_27  and  C_28
REMARK                            x       y       z     vdW  Elec       q    Type
REMARK                         _______ _______ _______ _____ _____    ______ ____
ROOT
ATOM      1  S   UNL     1      11.621   3.654   2.608  0.00  0.00    -0.057 S 
ATOM      6  O   UNL     1       9.709   7.015   5.185  0.00  0.00    -0.275 OA
ATOM      7  N   UNL     1      10.391   5.929   2.530  0.00  0.00    -0.229 NA
ATOM      8  N   UNL     1      10.820   4.999   4.711  0.00  0.00    -0.264 N 
ATOM     11  C   UNL     1      10.963   5.961  -1.283  0.00  0.00    -0.019 C 
ATOM     12  C   UNL     1      10.909   4.373  -1.383  0.00  0.00    +0.011 C 
ATOM     13  C   UNL     1      11.216   3.734  -2.793  0.00  0.00    +0.021 C 
ATOM     14  C   UNL     1      10.211   6.396   0.058  0.00  0.00    +0.054 C 
ATOM     15  C   UNL     1      10.210   6.581  -2.490  0.00  0.00    +0.010 C 
ATOM     16  C   UNL     1      10.419   4.499  -3.887  0.00  0.00    +0.123 C 
ATOM     17  C   UNL     1      11.679   3.702  -0.210  0.00  0.00    +0.049 C 
ATOM     18  C   UNL     1      10.628   6.009  -3.837  0.00  0.00    +0.032 C 
ATOM     19  C   UNL     1      12.410   6.513  -1.263  0.00  0.00    +0.012 C 
ATOM     20  C   UNL     1      10.652   5.552   1.225  0.00  0.00    +0.058 A 
ATOM     22  C   UNL     1      10.716   2.262  -2.802  0.00  0.00    +0.016 C 
ATOM     23  C   UNL     1      11.293   4.338   1.083  0.00  0.00    +0.015 A 
ATOM     26  C   UNL     1      10.863   5.009   3.343  0.00  0.00    +0.165 A 
ATOM     28  C   UNL     1      10.262   5.975   5.555  0.00  0.00    +0.222 C 
ATOM     37  H   UNL     1      11.247   4.186   5.149  0.00  0.00    +0.157 HD
ENDROOT
BRANCH  28  27
ATOM     27  C   UNL     1      10.399   5.636   7.054  0.00  0.00    +0.075 C 
ATOM     29  C   UNL     1       9.421   6.325   8.029  0.00  0.00    +0.013 C 
ATOM     30  C   UNL     1       9.814   4.293   7.534  0.00  0.00    +0.013 C 
ATOM     31  C   UNL     1       9.434   5.013   8.844  0.00  0.00    +0.001 C 
ENDBRANCH  28  27
BRANCH  16   3
ATOM      3  O   UNL     1      10.775   4.031  -5.187  0.00  0.00    -0.391 OA
ATOM     35  H   UNL     1      10.043   3.479  -5.513  0.00  0.00    +0.210 HD
ENDBRANCH  16   3
BRANCH  13  21
ATOM     21  C   UNL     1      12.717   3.664  -3.151  0.00  0.00    +0.165 C 
BRANCH  21   4
ATOM      4  O   UNL     1      12.923   2.505  -3.925  0.00  0.00    -0.394 OA
ATOM     36  H   UNL     1      13.291   2.787  -4.779  0.00  0.00    +0.209 HD
ENDBRANCH  21   4
ENDBRANCH  13  21
BRANCH  14  24
ATOM     24  C   UNL     1      10.298   7.894   0.382  0.00  0.00    +0.106 C 
BRANCH  24  25
ATOM      2  S   UNL     1       7.357   9.523   4.021  0.00  0.00    -0.061 S 
ATOM      5  O   UNL     1       8.243   8.786  -0.494  0.00  0.00    -0.275 OA
ATOM      9  N   UNL     1       8.629   8.775   1.827  0.00  0.00    -0.265 N 
ATOM     10  N   UNL     1       6.423   9.786   1.625  0.00  0.00    -0.233 NA
ATOM     25  C   UNL     1       8.931   8.538   0.490  0.00  0.00    +0.219 C 
ATOM     32  C   UNL     1       7.456   9.356   2.315  0.00  0.00    +0.164 A 
ATOM     33  C   UNL     1       5.806  10.231   3.837  0.00  0.00    +0.068 A 
ATOM     34  C   UNL     1       5.479  10.287   2.499  0.00  0.00    +0.120 A 
ATOM     38  H   UNL     1       9.302   8.522   2.546  0.00  0.00    +0.157 HD
ENDBRANCH  24  25
ENDBRANCH  14  24
TORSDOF 6
ENDMDL
MODEL 3
REMARK VINA RESULT:      -6.7     29.365     31.563
REMARK  Name = 11883105
REMARK  8 active torsions:
REMARK  status: ('A' for Active; 'I' for Inactive)
REMARK    1  A    between atoms: O_3  and  C_16
REMARK    2  A    between atoms: O_4  and  C_21
REMARK    3  A    between atoms: C_11  and  C_19
REMARK    4  A    between atoms: C_13  and  C_21
REMARK    5  A    between atoms: C_13  and  C_22
REMARK    6  A    between atoms: C_14  and  C_24
REMARK    7  A    between atoms: C_24  and  C_25
REMARK    8  A    between atoms: C_27  and  C_28
REMARK                            x       y       z     vdW  Elec       q    Type
REMARK                         _______ _______ _______ _____ _____    ______ ____
ROOT
ATOM      1  S   UNL     1      18.059   6.310  20.101  0.00  0.00    -0.057 S 
ATOM      6  O   UNL     1      20.934   8.925  22.648  0.00  0.00    -0.275 OA
ATOM      7  N   UNL     1      18.291   8.534  21.403  0.00  0.00    -0.229 NA
ATOM      8  N   UNL     1      20.219   7.090  21.367  0.00  0.00    -0.264 N 
ATOM     11  C   UNL     1      14.799   9.513  20.093  0.00  0.00    -0.019 C 
ATOM     12  C   UNL     1      14.305   8.000  20.047  0.00  0.00    +0.011 C 
ATOM     13  C   UNL     1      12.875   7.732  19.437  0.00  0.00    +0.021 C 
ATOM     14  C   UNL     1      16.023   9.601  21.115  0.00  0.00    +0.054 C 
ATOM     15  C   UNL     1      13.653  10.414  20.623  0.00  0.00    +0.010 C 
ATOM     16  C   UNL     1      11.863   8.746  20.039  0.00  0.00    +0.123 C 
ATOM     17  C   UNL     1      15.411   7.058  19.491  0.00  0.00    +0.049 C 
ATOM     18  C   UNL     1      12.321  10.196  19.919  0.00  0.00    +0.032 C 
ATOM     19  C   UNL     1      15.247  10.042  18.707  0.00  0.00    +0.012 C 
ATOM     20  C   UNL     1      17.015   8.494  20.872  0.00  0.00    +0.058 A 
ATOM     22  C   UNL     1      12.406   6.309  19.851  0.00  0.00    +0.016 C 
ATOM     23  C   UNL     1      16.713   7.353  20.155  0.00  0.00    +0.015 A 
ATOM     26  C   UNL     1      18.933   7.440  21.055  0.00  0.00    +0.165 A 
ATOM     28  C   UNL     1      21.143   7.826  22.129  0.00  0.00    +0.222 C 
ATOM     37  H   UNL     1      20.523   6.193  20.995  0.00  0.00    +0.157 HD
ENDROOT
BRANCH  28  27
ATOM     27  C   UNL     1      22.510   7.124  22.273  0.00  0.00    +0.075 C 
ATOM     29  C   UNL     1      22.537   5.767  23.008  0.00  0.00    +0.013 C 
ATOM     30  C   UNL     1      23.059   6.381  21.038  0.00  0.00    +0.013 C 
ATOM     31  C   UNL     1      23.643   5.341  22.019  0.00  0.00    +0.001 C 
ENDBRANCH  28  27
BRANCH  16   3
ATOM      3  O   UNL     1      10.588   8.616  19.411  0.00  0.00    -0.391 OA
ATOM     35  H   UNL     1      10.197   9.504  19.349  0.00  0.00    +0.210 HD
ENDBRANCH  16   3
BRANCH  13  21
ATOM     21  C   UNL     1      12.824   7.752  17.893  0.00  0.00    +0.165 C 
BRANCH  21   4
ATOM      4  O   UNL     1      11.793   6.883  17.484  0.00  0.00    -0.394 OA
ATOM     36  H   UNL     1      12.049   5.984  17.752  0.00  0.00    +0.209 HD
ENDBRANCH  21   4
ENDBRANCH  13  21
BRANCH  14  24
ATOM     24  C   UNL     1      16.714  10.972  21.168  0.00  0.00    +0.106 C 
BRANCH  24  25
ATOM      2  S   UNL     1      13.753  12.029  24.997  0.00  0.00    -0.061 S 
ATOM      5  O   UNL     1      17.983  11.733  23.065  0.00  0.00    -0.275 OA
ATOM      9  N   UNL     1      15.639  11.575  23.201  0.00  0.00    -0.265 N 
ATOM     10  N   UNL     1      16.281  12.387  25.405  0.00  0.00    -0.233 NA
ATOM     25  C   UNL     1      16.884  11.473  22.588  0.00  0.00    +0.219 C 
ATOM     32  C   UNL     1      15.399  12.003  24.509  0.00  0.00    +0.164 A 
ATOM     33  C   UNL     1      14.245  12.600  26.538  0.00  0.00    +0.068 A 
ATOM     34  C   UNL     1      15.617  12.730  26.566  0.00  0.00    +0.120 A 
ATOM     38  H   UNL     1      14.802  11.317  22.684  0.00  0.00    +0.157 HD
ENDBRANCH  24  25
ENDBRANCH  14  24
TORSDOF 6
ENDMDL
MODEL 4
REMARK VINA RESULT:      -6.7     29.741     31.681
REMARK  Name = 11883105
REMARK  8 active torsions:
REMARK  status: ('A' for Active; 'I' for Inactive)
REMARK    1  A    between atoms: O_3  and  C_16
REMARK    2  A    between atoms: O_4  and  C_21
REMARK    3  A    between atoms: C_11  and  C_19
REMARK    4  A    between atoms: C_13  and  C_21
REMARK    5  A    between atoms: C_13  and  C_22
REMARK    6  A    between atoms: C_14  and  C_24
REMARK    7  A    between atoms: C_24  and  C_25
REMARK    8  A    between atoms: C_27  and  C_28
REMARK                            x       y       z     vdW  Elec       q    Type
REMARK                         _______ _______ _______ _____ _____    ______ ____
ROOT
ATOM      1  S   UNL     1      16.937   5.918  19.884  0.00  0.00    -0.057 S 
ATOM      6  O   UNL     1      21.144   7.437  21.144  0.00  0.00    -0.275 OA
ATOM      7  N   UNL     1      18.236   7.884  20.951  0.00  0.00    -0.229 NA
ATOM      8  N   UNL     1      19.531   5.974  20.260  0.00  0.00    -0.264 N 
ATOM     11  C   UNL     1      14.938   9.883  20.967  0.00  0.00    -0.019 C 
ATOM     12  C   UNL     1      14.053   8.572  21.145  0.00  0.00    +0.011 C 
ATOM     13  C   UNL     1      12.487   8.755  21.101  0.00  0.00    +0.021 C 
ATOM     14  C   UNL     1      16.417   9.552  21.474  0.00  0.00    +0.054 C 
ATOM     15  C   UNL     1      14.361  11.020  21.850  0.00  0.00    +0.010 C 
ATOM     16  C   UNL     1      12.086   9.958  22.000  0.00  0.00    +0.123 C 
ATOM     17  C   UNL     1      14.573   7.408  20.254  0.00  0.00    +0.049 C 
ATOM     18  C   UNL     1      12.863  11.230  21.683  0.00  0.00    +0.032 C 
ATOM     19  C   UNL     1      14.996  10.374  19.499  0.00  0.00    +0.012 C 
ATOM     20  C   UNL     1      16.899   8.237  20.919  0.00  0.00    +0.058 A 
ATOM     22  C   UNL     1      11.812   7.487  21.697  0.00  0.00    +0.016 C 
ATOM     23  C   UNL     1      16.053   7.282  20.393  0.00  0.00    +0.015 A 
ATOM     26  C   UNL     1      18.374   6.687  20.426  0.00  0.00    +0.165 A 
ATOM     28  C   UNL     1      20.834   6.367  20.615  0.00  0.00    +0.222 C 
ATOM     37  H   UNL     1      19.415   5.060  19.829  0.00  0.00    +0.157 HD
ENDROOT
BRANCH  28  27
ATOM     27  C   UNL     1      21.903   5.308  20.274  0.00  0.00    +0.075 C 
ATOM     29  C   UNL     1      23.334   5.550  20.801  0.00  0.00    +0.013 C 
ATOM     30  C   UNL     1      21.901   4.006  21.100  0.00  0.00    +0.013 C 
ATOM     31  C   UNL     1      23.440   4.021  20.988  0.00  0.00    +0.001 C 
ENDBRANCH  28  27
BRANCH  16   3
ATOM      3  O   UNL     1      10.690  10.232  21.881  0.00  0.00    -0.391 OA
ATOM     35  H   UNL     1      10.466  10.218  20.935  0.00  0.00    +0.210 HD
ENDBRANCH  16   3
BRANCH  13  21
ATOM     21  C   UNL     1      11.899   8.908  19.681  0.00  0.00    +0.165 C 
BRANCH  21   4
ATOM      4  O   UNL     1      10.576   8.425  19.706  0.00  0.00    -0.394 OA
ATOM     36  H   UNL     1      10.605   7.485  19.462  0.00  0.00    +0.209 HD
ENDBRANCH  21   4
ENDBRANCH  13  21
BRANCH  14  24
ATOM     24  C   UNL     1      17.440  10.672  21.235  0.00  0.00    +0.106 C 
BRANCH  24  25
ATOM      2  S   UNL     1      21.217   9.446  24.197  0.00  0.00    -0.061 S 
ATOM      5  O   UNL     1      17.582  12.155  23.124  0.00  0.00    -0.275 OA
ATOM      9  N   UNL     1      19.131  10.401  22.883  0.00  0.00    -0.265 N 
ATOM     10  N   UNL     1      19.822  11.488  24.949  0.00  0.00    -0.233 NA
ATOM     25  C   UNL     1      18.039  11.186  22.528  0.00  0.00    +0.219 C 
ATOM     32  C   UNL     1      19.934  10.572  24.014  0.00  0.00    +0.164 A 
ATOM     33  C   UNL     1      21.673  10.239  25.648  0.00  0.00    +0.068 A 
ATOM     34  C   UNL     1      20.819  11.295  25.885  0.00  0.00    +0.120 A 
ATOM     38  H   UNL     1      19.407   9.625  22.287  0.00  0.00    +0.157 HD
ENDBRANCH  24  25
ENDBRANCH  14  24
TORSDOF 6
ENDMDL
MODEL 5
REMARK VINA RESULT:      -6.6      3.583      6.999
REMARK  Name = 11883105
REMARK  8 active torsions:
REMARK  status: ('A' for Active; 'I' for Inactive)
REMARK    1  A    between atoms: O_3  and  C_16
REMARK    2  A    between atoms: O_4  and  C_21
REMARK    3  A    between atoms: C_11  and  C_19
REMARK    4  A    between atoms: C_13  and  C_21
REMARK    5  A    between atoms: C_13  and  C_22
REMARK    6  A    between atoms: C_14  and  C_24
REMARK    7  A    between atoms: C_24  and  C_25
REMARK    8  A    between atoms: C_27  and  C_28
REMARK                            x       y       z     vdW  Elec       q    Type
REMARK                         _______ _______ _______ _____ _____    ______ ____
ROOT
ATOM      1  S   UNL     1      -5.428  -9.913  10.229  0.00  0.00    -0.057 S 
ATOM      6  O   UNL     1      -9.779  -8.285  10.339  0.00  0.00    -0.275 OA
ATOM      7  N   UNL     1      -7.427  -9.341  11.769  0.00  0.00    -0.229 NA
ATOM      8  N   UNL     1      -7.725  -8.952   9.409  0.00  0.00    -0.264 N 
ATOM     11  C   UNL     1      -5.438 -10.866  14.699  0.00  0.00    -0.019 C 
ATOM     12  C   UNL     1      -4.037 -10.452  14.066  0.00  0.00    +0.011 C 
ATOM     13  C   UNL     1      -2.740 -10.946  14.816  0.00  0.00    +0.021 C 
ATOM     14  C   UNL     1      -6.562  -9.924  14.066  0.00  0.00    +0.054 C 
ATOM     15  C   UNL     1      -5.404 -10.626  16.231  0.00  0.00    +0.010 C 
ATOM     16  C   UNL     1      -2.892 -10.672  16.339  0.00  0.00    +0.123 C 
ATOM     17  C   UNL     1      -4.008 -10.704  12.532  0.00  0.00    +0.049 C 
ATOM     18  C   UNL     1      -4.187 -11.224  16.922  0.00  0.00    +0.032 C 
ATOM     19  C   UNL     1      -5.801 -12.349  14.436  0.00  0.00    +0.012 C 
ATOM     20  C   UNL     1      -6.411  -9.829  12.570  0.00  0.00    +0.058 A 
ATOM     22  C   UNL     1      -1.520 -10.120  14.317  0.00  0.00    +0.016 C 
ATOM     23  C   UNL     1      -5.250 -10.167  11.904  0.00  0.00    +0.015 A 
ATOM     26  C   UNL     1      -7.023  -9.347  10.517  0.00  0.00    +0.165 A 
ATOM     28  C   UNL     1      -9.039  -8.451   9.365  0.00  0.00    +0.222 C 
ATOM     37  H   UNL     1      -7.224  -9.038   8.529  0.00  0.00    +0.157 HD
ENDROOT
BRANCH  28  27
ATOM     27  C   UNL     1      -9.513  -8.110   7.937  0.00  0.00    +0.075 C 
ATOM     29  C   UNL     1      -9.255  -6.676   7.428  0.00  0.00    +0.013 C 
ATOM     30  C   UNL     1      -8.641  -8.602   6.764  0.00  0.00    +0.013 C 
ATOM     31  C   UNL     1      -9.020  -7.296   6.034  0.00  0.00    +0.001 C 
ENDBRANCH  28  27
BRANCH  16   3
ATOM      3  O   UNL     1      -1.792 -11.224  17.061  0.00  0.00    -0.391 OA
ATOM     35  H   UNL     1      -2.152 -11.701  17.828  0.00  0.00    +0.210 HD
ENDBRANCH  16   3
BRANCH  13  21
ATOM     21  C   UNL     1      -2.373 -12.424  14.556  0.00  0.00    +0.165 C 
BRANCH  21   4
ATOM      4  O   UNL     1      -0.988 -12.488  14.305  0.00  0.00    -0.394 OA
ATOM     36  H   UNL     1      -0.850 -12.246  13.374  0.00  0.00    +0.209 HD
ENDBRANCH  21   4
ENDBRANCH  13  21
BRANCH  14  24
ATOM     24  C   UNL     1      -8.000 -10.290  14.462  0.00  0.00    +0.106 C 
BRANCH  24  25
ATOM      2  S   UNL     1     -11.957  -7.331  14.112  0.00  0.00    -0.061 S 
ATOM      5  O   UNL     1      -8.200  -8.872  16.396  0.00  0.00    -0.275 OA
ATOM      9  N   UNL     1      -9.782  -8.728  14.659  0.00  0.00    -0.265 N 
ATOM     10  N   UNL     1     -10.550  -7.067  16.264  0.00  0.00    -0.233 NA
ATOM     25  C   UNL     1      -8.651  -9.215  15.309  0.00  0.00    +0.219 C 
ATOM     32  C   UNL     1     -10.637  -7.731  15.133  0.00  0.00    +0.164 A 
ATOM     33  C   UNL     1     -12.467  -6.170  15.267  0.00  0.00    +0.068 A 
ATOM     34  C   UNL     1     -11.599  -6.172  16.338  0.00  0.00    +0.120 A 
ATOM     38  H   UNL     1     -10.046  -9.113  13.756  0.00  0.00    +0.157 HD
ENDBRANCH  24  25
ENDBRANCH  14  24
TORSDOF 6
ENDMDL
MODEL 6
REMARK VINA RESULT:      -6.4     23.654     26.959
REMARK  Name = 11883105
REMARK  8 active torsions:
REMARK  status: ('A' for Active; 'I' for Inactive)
REMARK    1  A    between atoms: O_3  and  C_16
REMARK    2  A    between atoms: O_4  and  C_21
REMARK    3  A    between atoms: C_11  and  C_19
REMARK    4  A    between atoms: C_13  and  C_21
REMARK    5  A    between atoms: C_13  and  C_22
REMARK    6  A    between atoms: C_14  and  C_24
REMARK    7  A    between atoms: C_24  and  C_25
REMARK    8  A    between atoms: C_27  and  C_28
REMARK                            x       y       z     vdW  Elec       q    Type
REMARK                         _______ _______ _______ _____ _____    ______ ____
ROOT
ATOM      1  S   UNL     1       9.788   7.081  -1.060  0.00  0.00    -0.057 S 
ATOM      6  O   UNL     1      12.343   3.521   0.486  0.00  0.00    -0.275 OA
ATOM      7  N   UNL     1      10.637   5.857   1.056  0.00  0.00    -0.229 NA
ATOM      8  N   UNL     1      11.330   4.960  -1.071  0.00  0.00    -0.264 N 
ATOM     11  C   UNL     1       9.048   8.669   3.162  0.00  0.00    -0.019 C 
ATOM     12  C   UNL     1       7.890   8.918   2.099  0.00  0.00    +0.011 C 
ATOM     13  C   UNL     1       6.912  10.125   2.376  0.00  0.00    +0.021 C 
ATOM     14  C   UNL     1       9.615   7.193   2.936  0.00  0.00    +0.054 C 
ATOM     15  C   UNL     1       8.461   8.754   4.595  0.00  0.00    +0.010 C 
ATOM     16  C   UNL     1       6.457  10.085   3.861  0.00  0.00    +0.123 C 
ATOM     17  C   UNL     1       8.435   8.875   0.642  0.00  0.00    +0.049 C 
ATOM     18  C   UNL     1       7.619   9.997   4.844  0.00  0.00    +0.032 C 
ATOM     19  C   UNL     1      10.207   9.689   3.039  0.00  0.00    +0.012 C 
ATOM     20  C   UNL     1       9.865   6.925   1.475  0.00  0.00    +0.058 A 
ATOM     22  C   UNL     1       5.640   9.958   1.497  0.00  0.00    +0.016 C 
ATOM     23  C   UNL     1       9.311   7.681   0.462  0.00  0.00    +0.015 A 
ATOM     26  C   UNL     1      10.672   5.845  -0.259  0.00  0.00    +0.165 A 
ATOM     28  C   UNL     1      12.118   3.865  -0.677  0.00  0.00    +0.222 C 
ATOM     37  H   UNL     1      11.225   5.132  -2.068  0.00  0.00    +0.157 HD
ENDROOT
BRANCH  28  27
ATOM     27  C   UNL     1      12.714   3.085  -1.867  0.00  0.00    +0.075 C 
ATOM     29  C   UNL     1      11.724   2.436  -2.858  0.00  0.00    +0.013 C 
ATOM     30  C   UNL     1      13.249   3.906  -3.058  0.00  0.00    +0.013 C 
ATOM     31  C   UNL     1      12.738   2.773  -3.972  0.00  0.00    +0.001 C 
ENDBRANCH  28  27
BRANCH  16   3
ATOM      3  O   UNL     1       5.675  11.237   4.179  0.00  0.00    -0.391 OA
ATOM     35  H   UNL     1       6.177  11.767   4.821  0.00  0.00    +0.210 HD
ENDBRANCH  16   3
BRANCH  13  21
ATOM     21  C   UNL     1       7.487  11.512   2.012  0.00  0.00    +0.165 C 
BRANCH  21   4
ATOM      4  O   UNL     1       6.416  12.330   1.602  0.00  0.00    -0.394 OA
ATOM     36  H   UNL     1       6.767  13.228   1.478  0.00  0.00    +0.209 HD
ENDBRANCH  21   4
ENDBRANCH  13  21
BRANCH  14  24
ATOM     24  C   UNL     1      10.843   6.842   3.789  0.00  0.00    +0.106 C 
BRANCH  24  25
ATOM      2  S   UNL     1       9.614   6.475   8.574  0.00  0.00    -0.061 S 
ATOM      5  O   UNL     1      10.603   4.542   4.452  0.00  0.00    -0.275 OA
ATOM      9  N   UNL     1      10.257   6.263   6.019  0.00  0.00    -0.265 N 
ATOM     10  N   UNL     1       9.866   4.235   7.309  0.00  0.00    -0.233 NA
ATOM     25  C   UNL     1      10.558   5.725   4.772  0.00  0.00    +0.219 C 
ATOM     32  C   UNL     1       9.941   5.541   7.172  0.00  0.00    +0.164 A 
ATOM     33  C   UNL     1       9.346   5.024   9.449  0.00  0.00    +0.068 A 
ATOM     34  C   UNL     1       9.526   3.942   8.615  0.00  0.00    +0.120 A 
ATOM     38  H   UNL     1      10.249   7.272   6.141  0.00  0.00    +0.157 HD
ENDBRANCH  24  25
ENDBRANCH  14  24
TORSDOF 6
ENDMDL
MODEL 7
REMARK VINA RESULT:      -6.0     23.161     26.040
REMARK  Name = 11883105
REMARK  8 active torsions:
REMARK  status: ('A' for Active; 'I' for Inactive)
REMARK    1  A    between atoms: O_3  and  C_16
REMARK    2  A    between atoms: O_4  and  C_21
REMARK    3  A    between atoms: C_11  and  C_19
REMARK    4  A    between atoms: C_13  and  C_21
REMARK    5  A    between atoms: C_13  and  C_22
REMARK    6  A    between atoms: C_14  and  C_24
REMARK    7  A    between atoms: C_24  and  C_25
REMARK    8  A    between atoms: C_27  and  C_28
REMARK                            x       y       z     vdW  Elec       q    Type
REMARK                         _______ _______ _______ _____ _____    ______ ____
ROOT
ATOM      1  S   UNL     1      -1.705   9.759   0.125  0.00  0.00    -0.057 S 
ATOM      6  O   UNL     1       2.401  11.314  -1.397  0.00  0.00    -0.275 OA
ATOM      7  N   UNL     1       0.542  10.825   0.839  0.00  0.00    -0.229 NA
ATOM      8  N   UNL     1       0.250  10.375  -1.510  0.00  0.00    -0.264 N 
ATOM     11  C   UNL     1      -0.890  11.142   4.405  0.00  0.00    -0.019 C 
ATOM     12  C   UNL     1      -1.797   9.844   4.241  0.00  0.00    +0.011 C 
ATOM     13  C   UNL     1      -2.778   9.501   5.428  0.00  0.00    +0.021 C 
ATOM     14  C   UNL     1       0.297  11.053   3.339  0.00  0.00    +0.054 C 
ATOM     15  C   UNL     1      -0.271  11.163   5.827  0.00  0.00    +0.010 C 
ATOM     16  C   UNL     1      -2.010   9.614   6.775  0.00  0.00    +0.123 C 
ATOM     17  C   UNL     1      -2.468   9.792   2.838  0.00  0.00    +0.049 C 
ATOM     18  C   UNL     1      -1.282  10.942   6.943  0.00  0.00    +0.032 C 
ATOM     19  C   UNL     1      -1.679  12.458   4.187  0.00  0.00    +0.012 C 
ATOM     20  C   UNL     1      -0.223  10.664   1.979  0.00  0.00    +0.058 A 
ATOM     22  C   UNL     1      -3.249   8.027   5.286  0.00  0.00    +0.016 C 
ATOM     23  C   UNL     1      -1.459  10.084   1.779  0.00  0.00    +0.015 A 
ATOM     26  C   UNL     1      -0.140  10.389  -0.198  0.00  0.00    +0.165 A 
ATOM     28  C   UNL     1       1.470  10.826  -2.043  0.00  0.00    +0.222 C 
ATOM     37  H   UNL     1      -0.435   9.992  -2.158  0.00  0.00    +0.157 HD
ENDROOT
BRANCH  28  27
ATOM     27  C   UNL     1       1.565  10.660  -3.574  0.00  0.00    +0.075 C 
ATOM     29  C   UNL     1       2.459   9.523  -4.110  0.00  0.00    +0.013 C 
ATOM     30  C   UNL     1       0.386   9.968  -4.287  0.00  0.00    +0.013 C 
ATOM     31  C   UNL     1       1.427   9.351  -5.245  0.00  0.00    +0.001 C 
ENDBRANCH  28  27
BRANCH  16   3
ATOM      3  O   UNL     1      -2.900   9.437   7.877  0.00  0.00    -0.391 OA
ATOM     35  H   UNL     1      -3.584  10.126   7.818  0.00  0.00    +0.210 HD
ENDBRANCH  16   3
BRANCH  13  21
ATOM     21  C   UNL     1      -4.069  10.349   5.457  0.00  0.00    +0.165 C 
BRANCH  21   4
ATOM      4  O   UNL     1      -5.126   9.512   5.868  0.00  0.00    -0.394 OA
ATOM     36  H   UNL     1      -4.734   8.671   6.158  0.00  0.00    +0.209 HD
ENDBRANCH  21   4
ENDBRANCH  13  21
BRANCH  14  24
ATOM     24  C   UNL     1       1.185  12.303   3.265  0.00  0.00    +0.106 C 
BRANCH  24  25
ATOM      2  S   UNL     1       4.933   9.892   1.101  0.00  0.00    -0.061 S 
ATOM      5  O   UNL     1       3.168  12.377   4.625  0.00  0.00    -0.275 OA
ATOM      9  N   UNL     1       3.197  11.254   2.557  0.00  0.00    -0.265 N 
ATOM     10  N   UNL     1       5.463  10.954   3.397  0.00  0.00    -0.233 NA
ATOM     25  C   UNL     1       2.633  11.997   3.589  0.00  0.00    +0.219 C 
ATOM     32  C   UNL     1       4.513  10.788   2.503  0.00  0.00    +0.164 A 
ATOM     33  C   UNL     1       6.518   9.703   1.726  0.00  0.00    +0.068 A 
ATOM     34  C   UNL     1       6.611  10.331   2.950  0.00  0.00    +0.120 A 
ATOM     38  H   UNL     1       2.634  11.013   1.746  0.00  0.00    +0.157 HD
ENDBRANCH  24  25
ENDBRANCH  14  24
TORSDOF 6
ENDMDL
MODEL 8
REMARK VINA RESULT:      -5.9     25.767     29.584
REMARK  Name = 11883105
REMARK  8 active torsions:
REMARK  status: ('A' for Active; 'I' for Inactive)
REMARK    1  A    between atoms: O_3  and  C_16
REMARK    2  A    between atoms: O_4  and  C_21
REMARK    3  A    between atoms: C_11  and  C_19
REMARK    4  A    between atoms: C_13  and  C_21
REMARK    5  A    between atoms: C_13  and  C_22
REMARK    6  A    between atoms: C_14  and  C_24
REMARK    7  A    between atoms: C_24  and  C_25
REMARK    8  A    between atoms: C_27  and  C_28
REMARK                            x       y       z     vdW  Elec       q    Type
REMARK                         _______ _______ _______ _____ _____    ______ ____
ROOT
ATOM      1  S   UNL     1      10.156   4.361   2.183  0.00  0.00    -0.057 S 
ATOM      6  O   UNL     1      11.627   6.336   6.123  0.00  0.00    -0.275 OA
ATOM      7  N   UNL     1      12.061   5.732   3.270  0.00  0.00    -0.229 NA
ATOM      8  N   UNL     1      10.210   5.128   4.689  0.00  0.00    -0.264 N 
ATOM     11  C   UNL     1      14.027   5.371  -0.027  0.00  0.00    -0.019 C 
ATOM     12  C   UNL     1      12.700   5.332  -0.906  0.00  0.00    +0.011 C 
ATOM     13  C   UNL     1      12.872   5.062  -2.451  0.00  0.00    +0.021 C 
ATOM     14  C   UNL     1      13.677   6.075   1.363  0.00  0.00    +0.054 C 
ATOM     15  C   UNL     1      15.101   6.225  -0.752  0.00  0.00    +0.010 C 
ATOM     16  C   UNL     1      14.012   5.962  -3.004  0.00  0.00    +0.123 C 
ATOM     17  C   UNL     1      11.600   4.459  -0.236  0.00  0.00    +0.049 C 
ATOM     18  C   UNL     1      15.309   5.845  -2.211  0.00  0.00    +0.032 C 
ATOM     19  C   UNL     1      14.612   3.962   0.242  0.00  0.00    +0.012 C 
ATOM     20  C   UNL     1      12.404   5.520   1.947  0.00  0.00    +0.058 A 
ATOM     22  C   UNL     1      11.563   5.469  -3.185  0.00  0.00    +0.016 C 
ATOM     23  C   UNL     1      11.478   4.813   1.208  0.00  0.00    +0.015 A 
ATOM     26  C   UNL     1      10.901   5.161   3.507  0.00  0.00    +0.165 A 
ATOM     28  C   UNL     1      10.590   5.700   5.916  0.00  0.00    +0.222 C 
ATOM     37  H   UNL     1       9.324   4.629   4.656  0.00  0.00    +0.157 HD
ENDROOT
BRANCH  28  27
ATOM     27  C   UNL     1       9.564   5.461   7.043  0.00  0.00    +0.075 C 
ATOM     29  C   UNL     1       9.885   4.355   8.071  0.00  0.00    +0.013 C 
ATOM     30  C   UNL     1       9.563   6.453   8.224  0.00  0.00    +0.013 C 
ATOM     31  C   UNL     1       9.215   5.255   9.132  0.00  0.00    +0.001 C 
ENDBRANCH  28  27
BRANCH  16   3
ATOM      3  O   UNL     1      14.281   5.650  -4.370  0.00  0.00    -0.391 OA
ATOM     35  H   UNL     1      13.860   4.796  -4.567  0.00  0.00    +0.210 HD
ENDBRANCH  16   3
BRANCH  13  21
ATOM     21  C   UNL     1      13.111   3.581  -2.820  0.00  0.00    +0.165 C 
BRANCH  21   4
ATOM      4  O   UNL     1      12.466   3.333  -4.048  0.00  0.00    -0.394 OA
ATOM     36  H   UNL     1      12.650   4.089  -4.631  0.00  0.00    +0.209 HD
ENDBRANCH  21   4
ENDBRANCH  13  21
BRANCH  14  24
ATOM     24  C   UNL     1      14.818   6.063   2.390  0.00  0.00    +0.106 C 
BRANCH  24  25
ATOM      2  S   UNL     1      18.917   8.183   4.194  0.00  0.00    -0.061 S 
ATOM      5  O   UNL     1      14.523   8.435   2.665  0.00  0.00    -0.275 OA
ATOM      9  N   UNL     1      16.572   7.428   3.234  0.00  0.00    -0.265 N 
ATOM     10  N   UNL     1      16.936   9.782   3.742  0.00  0.00    -0.233 NA
ATOM     25  C   UNL     1      15.260   7.461   2.772  0.00  0.00    +0.219 C 
ATOM     32  C   UNL     1      17.317   8.525   3.676  0.00  0.00    +0.164 A 
ATOM     33  C   UNL     1      19.135   9.849   4.538  0.00  0.00    +0.068 A 
ATOM     34  C   UNL     1      17.980  10.538   4.237  0.00  0.00    +0.120 A 
ATOM     38  H   UNL     1      17.072   6.543   3.263  0.00  0.00    +0.157 HD
ENDBRANCH  24  25
ENDBRANCH  14  24
TORSDOF 6
ENDMDL
MODEL 9
REMARK VINA RESULT:      -5.9     10.404     15.966
REMARK  Name = 11883105
REMARK  8 active torsions:
REMARK  status: ('A' for Active; 'I' for Inactive)
REMARK    1  A    between atoms: O_3  and  C_16
REMARK    2  A    between atoms: O_4  and  C_21
REMARK    3  A    between atoms: C_11  and  C_19
REMARK    4  A    between atoms: C_13  and  C_21
REMARK    5  A    between atoms: C_13  and  C_22
REMARK    6  A    between atoms: C_14  and  C_24
REMARK    7  A    between atoms: C_24  and  C_25
REMARK    8  A    between atoms: C_27  and  C_28
REMARK                            x       y       z     vdW  Elec       q    Type
REMARK                         _______ _______ _______ _____ _____    ______ ____
ROOT
ATOM      1  S   UNL     1      -1.079 -13.834  -2.458  0.00  0.00    -0.057 S 
ATOM      6  O   UNL     1      -4.859 -12.990   0.109  0.00  0.00    -0.275 OA
ATOM      7  N   UNL     1      -2.052 -13.874  -0.061  0.00  0.00    -0.229 NA
ATOM      8  N   UNL     1      -3.525 -13.138  -1.820  0.00  0.00    -0.264 N 
ATOM     11  C   UNL     1       1.229 -15.533   1.102  0.00  0.00    -0.019 C 
ATOM     12  C   UNL     1       2.091 -14.791  -0.012  0.00  0.00    +0.011 C 
ATOM     13  C   UNL     1       3.615 -15.186  -0.118  0.00  0.00    +0.021 C 
ATOM     14  C   UNL     1      -0.112 -14.694   1.327  0.00  0.00    +0.054 C 
ATOM     15  C   UNL     1       2.021 -15.559   2.436  0.00  0.00    +0.010 C 
ATOM     16  C   UNL     1       4.240 -15.207   1.305  0.00  0.00    +0.123 C 
ATOM     17  C   UNL     1       1.353 -14.767  -1.381  0.00  0.00    +0.049 C 
ATOM     18  C   UNL     1       3.452 -16.058   2.294  0.00  0.00    +0.032 C 
ATOM     19  C   UNL     1       0.867 -16.988   0.711  0.00  0.00    +0.012 C 
ATOM     20  C   UNL     1      -0.744 -14.319   0.013  0.00  0.00    +0.058 A 
ATOM     22  C   UNL     1       4.365 -14.097  -0.937  0.00  0.00    +0.016 C 
ATOM     23  C   UNL     1      -0.063 -14.341  -1.188  0.00  0.00    +0.015 A 
ATOM     26  C   UNL     1      -2.338 -13.598  -1.315  0.00  0.00    +0.165 A 
ATOM     28  C   UNL     1      -4.705 -12.861  -1.108  0.00  0.00    +0.222 C 
ATOM     37  H   UNL     1      -3.534 -12.988  -2.826  0.00  0.00    +0.157 HD
ENDROOT
BRANCH  28  27
ATOM     27  C   UNL     1      -5.856 -12.362  -2.007  0.00  0.00    +0.075 C 
ATOM     29  C   UNL     1      -5.736 -12.625  -3.524  0.00  0.00    +0.013 C 
ATOM     30  C   UNL     1      -7.148 -13.203  -2.039  0.00  0.00    +0.013 C 
ATOM     31  C   UNL     1      -7.267 -12.824  -3.531  0.00  0.00    +0.001 C 
ENDBRANCH  28  27
BRANCH  16   3
ATOM      3  O   UNL     1       5.583 -15.687   1.257  0.00  0.00    -0.391 OA
ATOM     35  H   UNL     1       5.744 -16.196   2.070  0.00  0.00    +0.210 HD
ENDBRANCH  16   3
BRANCH  13  21
ATOM     21  C   UNL     1       3.882 -16.516  -0.857  0.00  0.00    +0.165 C 
BRANCH  21   4
ATOM      4  O   UNL     1       5.181 -16.456  -1.401  0.00  0.00    -0.394 OA
ATOM     36  H   UNL     1       5.392 -15.518  -1.544  0.00  0.00    +0.209 HD
ENDBRANCH  21   4
ENDBRANCH  13  21
BRANCH  14  24
ATOM     24  C   UNL     1      -1.127 -15.355   2.271  0.00  0.00    +0.106 C 
BRANCH  24  25
ATOM      2  S   UNL     1      -5.093 -12.641   3.473  0.00  0.00    -0.061 S 
ATOM      5  O   UNL     1      -0.794 -14.204   4.357  0.00  0.00    -0.275 OA
ATOM      9  N   UNL     1      -2.816 -13.950   3.180  0.00  0.00    -0.265 N 
ATOM     10  N   UNL     1      -3.128 -12.554   5.150  0.00  0.00    -0.233 NA
ATOM     25  C   UNL     1      -1.533 -14.439   3.407  0.00  0.00    +0.219 C 
ATOM     32  C   UNL     1      -3.523 -13.078   4.011  0.00  0.00    +0.164 A 
ATOM     33  C   UNL     1      -5.276 -11.668   4.874  0.00  0.00    +0.068 A 
ATOM     34  C   UNL     1      -4.134 -11.746   5.643  0.00  0.00    +0.120 A 
ATOM     38  H   UNL     1      -3.321 -14.236   2.345  0.00  0.00    +0.157 HD
ENDBRANCH  24  25
ENDBRANCH  14  24
TORSDOF 6
ENDMDL
MODEL 10
REMARK VINA RESULT:      -5.9     22.029     24.878
REMARK  Name = 11883105
REMARK  8 active torsions:
REMARK  status: ('A' for Active; 'I' for Inactive)
REMARK    1  A    between atoms: O_3  and  C_16
REMARK    2  A    between atoms: O_4  and  C_21
REMARK    3  A    between atoms: C_11  and  C_19
REMARK    4  A    between atoms: C_13  and  C_21
REMARK    5  A    between atoms: C_13  and  C_22
REMARK    6  A    between atoms: C_14  and  C_24
REMARK    7  A    between atoms: C_24  and  C_25
REMARK    8  A    between atoms: C_27  and  C_28
REMARK                            x       y       z     vdW  Elec       q    Type
REMARK                         _______ _______ _______ _____ _____    ______ ____
ROOT
ATOM      1  S   UNL     1     -10.798   8.928  17.967  0.00  0.00    -0.057 S 
ATOM      6  O   UNL     1      -9.788  13.464  18.011  0.00  0.00    -0.275 OA
ATOM      7  N   UNL     1     -11.315  11.193  19.107  0.00  0.00    -0.229 NA
ATOM      8  N   UNL     1      -9.688  11.216  17.330  0.00  0.00    -0.264 N 
ATOM     11  C   UNL     1     -14.095   9.408  21.096  0.00  0.00    -0.019 C 
ATOM     12  C   UNL     1     -13.311   8.023  21.100  0.00  0.00    +0.011 C 
ATOM     13  C   UNL     1     -14.059   6.780  21.721  0.00  0.00    +0.021 C 
ATOM     14  C   UNL     1     -13.032  10.575  20.849  0.00  0.00    +0.054 C 
ATOM     15  C   UNL     1     -14.755   9.633  22.482  0.00  0.00    +0.010 C 
ATOM     16  C   UNL     1     -14.697   7.190  23.077  0.00  0.00    +0.123 C 
ATOM     17  C   UNL     1     -12.656   7.735  19.719  0.00  0.00    +0.049 C 
ATOM     18  C   UNL     1     -15.561   8.442  22.981  0.00  0.00    +0.032 C 
ATOM     19  C   UNL     1     -15.194   9.474  20.006  0.00  0.00    +0.012 C 
ATOM     20  C   UNL     1     -12.104  10.232  19.713  0.00  0.00    +0.058 A 
ATOM     22  C   UNL     1     -13.021   5.660  22.017  0.00  0.00    +0.016 C 
ATOM     23  C   UNL     1     -11.937   8.948  19.233  0.00  0.00    +0.015 A 
ATOM     26  C   UNL     1     -10.592  10.621  18.168  0.00  0.00    +0.165 A 
ATOM     28  C   UNL     1      -9.332  12.576  17.285  0.00  0.00    +0.222 C 
ATOM     37  H   UNL     1      -9.234  10.588  16.672  0.00  0.00    +0.157 HD
ENDROOT
BRANCH  28  27
ATOM     27  C   UNL     1      -8.279  12.894  16.204  0.00  0.00    +0.075 C 
ATOM     29  C   UNL     1      -8.586  14.055  15.233  0.00  0.00    +0.013 C 
ATOM     30  C   UNL     1      -7.032  13.690  16.640  0.00  0.00    +0.013 C 
ATOM     31  C   UNL     1      -7.075  14.371  15.256  0.00  0.00    +0.001 C 
ENDBRANCH  28  27
BRANCH  16   3
ATOM      3  O   UNL     1     -15.490   6.126  23.602  0.00  0.00    -0.391 OA
ATOM     35  H   UNL     1     -14.914   5.574  24.158  0.00  0.00    +0.210 HD
ENDBRANCH  16   3
BRANCH  13  21
ATOM     21  C   UNL     1     -15.110   6.135  20.790  0.00  0.00    +0.165 C 
BRANCH  21   4
ATOM      4  O   UNL     1     -15.338   4.820  21.243  0.00  0.00    -0.394 OA
ATOM     36  H   UNL     1     -16.124   4.485  20.778  0.00  0.00    +0.209 HD
ENDBRANCH  21   4
ENDBRANCH  13  21
BRANCH  14  24
ATOM     24  C   UNL     1     -13.646  11.971  20.670  0.00  0.00    +0.106 C 
BRANCH  24  25
ATOM      2  S   UNL     1     -12.089  11.298  25.325  0.00  0.00    -0.061 S 
ATOM      5  O   UNL     1     -13.930  13.969  21.981  0.00  0.00    -0.275 OA
ATOM      9  N   UNL     1     -13.010  12.037  22.960  0.00  0.00    -0.265 N 
ATOM     10  N   UNL     1     -13.019  13.649  24.785  0.00  0.00    -0.233 NA
ATOM     25  C   UNL     1     -13.558  12.802  21.934  0.00  0.00    +0.219 C 
ATOM     32  C   UNL     1     -12.776  12.464  24.269  0.00  0.00    +0.164 A 
ATOM     33  C   UNL     1     -12.111  12.462  26.585  0.00  0.00    +0.068 A 
ATOM     34  C   UNL     1     -12.638  13.645  26.112  0.00  0.00    +0.120 A 
ATOM     38  H   UNL     1     -12.737  11.075  22.777  0.00  0.00    +0.157 HD
ENDBRANCH  24  25
ENDBRANCH  14  24
TORSDOF 6
ENDMDL
