MODEL 1
REMARK VINA RESULT:      -7.1      0.000      0.000
REMARK  Name = 11882434
REMARK  12 active torsions:
REMARK  status: ('A' for Active; 'I' for Inactive)
REMARK    1  A    between atoms: S_1  and  C_23
REMARK    2  A    between atoms: S_1  and  C_26
REMARK    3  A    between atoms: O_2  and  C_13
REMARK    4  A    between atoms: O_3  and  C_17
REMARK    5  A    between atoms: O_4  and  C_18
REMARK    6  A    between atoms: N_10  and  C_14
REMARK    7  A    between atoms: N_11  and  C_20
REMARK    8  A    between atoms: C_13  and  C_19
REMARK    9  A    between atoms: C_20  and  C_21
REMARK   10  A    between atoms: C_20  and  C_24
REMARK   11  A    between atoms: C_21  and  C_23
REMARK   12  A    between atoms: C_22  and  C_25
REMARK                            x       y       z     vdW  Elec       q    Type
REMARK                         _______ _______ _______ _____ _____    ______ ____
ROOT
ATOM     13  C   UNL     1      16.075   7.256  20.998  0.00  0.00    +0.146 C 
ATOM     14  C   UNL     1      18.557   6.885  21.388  0.00  0.00    +0.107 C 
ATOM     15  C   UNL     1      17.386   7.866  21.497  0.00  0.00    +0.069 C 
ATOM     16  C   UNL     1      16.220   6.712  19.578  0.00  0.00    +0.078 C 
ATOM     17  C   UNL     1      18.696   6.316  19.970  0.00  0.00    +0.163 C 
ATOM     18  C   UNL     1      17.381   5.723  19.458  0.00  0.00    +0.148 C 
ENDROOT
BRANCH  14  10
ATOM      6  O   UNL     1      20.717   5.755  22.965  0.00  0.00    -0.276 OA
ATOM     10  N   UNL     1      19.782   7.538  21.797  0.00  0.00    -0.310 N 
ATOM     22  C   UNL     1      20.756   6.911  22.552  0.00  0.00    +0.210 C 
ATOM     25  C   UNL     1      21.935   7.809  22.816  0.00  0.00    +0.109 C 
ATOM     27  H   UNL     1      19.900   8.519  21.559  0.00  0.00    +0.149 HD
ENDBRANCH  14  10
BRANCH  13  19
ATOM      5  O   UNL     1      14.836   9.035  22.002  0.00  0.00    -0.273 OA
ATOM     11  N   UNL     1      14.136   8.195  19.947  0.00  0.00    -0.302 N 
ATOM     19  C   UNL     1      14.966   8.266  21.053  0.00  0.00    +0.245 C 
ATOM     29  H   UNL     1      14.283   7.473  19.249  0.00  0.00    +0.150 HD
BRANCH  11  20
ATOM     20  C   UNL     1      12.981   9.044  19.769  0.00  0.00    +0.160 C 
BRANCH  20  24
ATOM      7  O   UNL     1      10.622   8.532  19.490  0.00  0.00    -0.274 OA
ATOM     12  N   UNL     1      12.153   6.845  19.196  0.00  0.00    -0.328 N 
ATOM     24  C   UNL     1      11.787   8.141  19.493  0.00  0.00    +0.231 C 
ATOM     32  H   UNL     1      11.453   6.145  18.977  0.00  0.00    +0.145 HD
ATOM     33  H   UNL     1      13.119   6.536  19.198  0.00  0.00    +0.145 HD
ENDBRANCH  20  24
BRANCH  20  21
ATOM     21  C   UNL     1      13.173  10.044  18.627  0.00  0.00    +0.054 C 
BRANCH  21  23
ATOM     23  C   UNL     1      14.347   9.678  17.728  0.00  0.00    +0.168 C 
BRANCH  23   1
ATOM      1  S   UNL     1      13.817   8.741  16.329  0.00  0.00    -0.034 S 
ATOM      8  O   UNL     1      14.599   9.160  15.178  0.00  0.00    -0.175 OA
ATOM      9  O   UNL     1      13.761   7.341  16.716  0.00  0.00    -0.175 OA
ATOM     26  C   UNL     1      12.147   9.294  16.074  0.00  0.00    +0.194 C 
ENDBRANCH  23   1
ENDBRANCH  21  23
ENDBRANCH  20  21
ENDBRANCH  11  20
ENDBRANCH  13  19
BRANCH  13   2
ATOM      2  O   UNL     1      15.655   6.202  21.859  0.00  0.00    -0.379 OA
ATOM     28  H   UNL     1      16.446   5.747  22.196  0.00  0.00    +0.211 HD
ENDBRANCH  13   2
BRANCH  17   3
ATOM      3  O   UNL     1      19.668   5.267  19.980  0.00  0.00    -0.387 OA
ATOM     30  H   UNL     1      20.239   5.378  19.200  0.00  0.00    +0.210 HD
ENDBRANCH  17   3
BRANCH  18   4
ATOM      4  O   UNL     1      17.549   5.374  18.083  0.00  0.00    -0.389 OA
ATOM     31  H   UNL     1      16.935   4.644  17.890  0.00  0.00    +0.210 HD
ENDBRANCH  18   4
TORSDOF 10
ENDMDL
MODEL 2
REMARK VINA RESULT:      -6.1      4.612      6.771
REMARK  Name = 11882434
REMARK  12 active torsions:
REMARK  status: ('A' for Active; 'I' for Inactive)
REMARK    1  A    between atoms: S_1  and  C_23
REMARK    2  A    between atoms: S_1  and  C_26
REMARK    3  A    between atoms: O_2  and  C_13
REMARK    4  A    between atoms: O_3  and  C_17
REMARK    5  A    between atoms: O_4  and  C_18
REMARK    6  A    between atoms: N_10  and  C_14
REMARK    7  A    between atoms: N_11  and  C_20
REMARK    8  A    between atoms: C_13  and  C_19
REMARK    9  A    between atoms: C_20  and  C_21
REMARK   10  A    between atoms: C_20  and  C_24
REMARK   11  A    between atoms: C_21  and  C_23
REMARK   12  A    between atoms: C_22  and  C_25
REMARK                            x       y       z     vdW  Elec       q    Type
REMARK                         _______ _______ _______ _____ _____    ______ ____
ROOT
ATOM     13  C   UNL     1      13.278   8.111  17.956  0.00  0.00    +0.146 C 
ATOM     14  C   UNL     1      14.181   9.948  16.451  0.00  0.00    +0.107 C 
ATOM     15  C   UNL     1      14.206   9.323  17.850  0.00  0.00    +0.069 C 
ATOM     16  C   UNL     1      11.856   8.461  17.524  0.00  0.00    +0.078 C 
ATOM     17  C   UNL     1      12.753  10.282  16.001  0.00  0.00    +0.163 C 
ATOM     18  C   UNL     1      11.815   9.078  16.125  0.00  0.00    +0.148 C 
ENDROOT
BRANCH  14  10
ATOM      6  O   UNL     1      15.865  10.883  14.280  0.00  0.00    -0.276 OA
ATOM     10  N   UNL     1      15.011  11.133  16.431  0.00  0.00    -0.310 N 
ATOM     22  C   UNL     1      15.782  11.495  15.341  0.00  0.00    +0.210 C 
ATOM     25  C   UNL     1      16.528  12.782  15.576  0.00  0.00    +0.109 C 
ATOM     27  H   UNL     1      15.066  11.691  17.278  0.00  0.00    +0.149 HD
ENDBRANCH  14  10
BRANCH  13  19
ATOM      5  O   UNL     1      14.072   6.706  19.718  0.00  0.00    -0.273 OA
ATOM     11  N   UNL     1      12.279   8.132  20.133  0.00  0.00    -0.302 N 
ATOM     19  C   UNL     1      13.276   7.568  19.355  0.00  0.00    +0.245 C 
ATOM     29  H   UNL     1      11.622   8.785  19.720  0.00  0.00    +0.150 HD
BRANCH  11  20
ATOM     20  C   UNL     1      12.049   7.764  21.512  0.00  0.00    +0.160 C 
BRANCH  20  24
ATOM      7  O   UNL     1      11.099   5.554  21.175  0.00  0.00    -0.274 OA
ATOM     12  N   UNL     1       9.753   7.207  22.031  0.00  0.00    -0.328 N 
ATOM     24  C   UNL     1      10.942   6.721  21.528  0.00  0.00    +0.231 C 
ATOM     32  H   UNL     1       8.939   6.609  22.110  0.00  0.00    +0.145 HD
ATOM     33  H   UNL     1       9.639   8.173  22.323  0.00  0.00    +0.145 HD
ENDBRANCH  20  24
BRANCH  20  21
ATOM     21  C   UNL     1      11.664   8.970  22.372  0.00  0.00    +0.054 C 
BRANCH  21  23
ATOM     23  C   UNL     1      11.660  10.270  21.579  0.00  0.00    +0.168 C 
BRANCH  23   1
ATOM      1  S   UNL     1      11.703  11.674  22.648  0.00  0.00    -0.034 S 
ATOM      8  O   UNL     1      10.730  11.468  23.708  0.00  0.00    -0.175 OA
ATOM      9  O   UNL     1      13.092  11.961  22.965  0.00  0.00    -0.175 OA
ATOM     26  C   UNL     1      11.104  12.993  21.618  0.00  0.00    +0.194 C 
ENDBRANCH  23   1
ENDBRANCH  21  23
ENDBRANCH  20  21
ENDBRANCH  11  20
ENDBRANCH  13  19
BRANCH  13   2
ATOM      2  O   UNL     1      13.760   7.042  17.148  0.00  0.00    -0.379 OA
ATOM     28  H   UNL     1      13.485   6.202  17.554  0.00  0.00    +0.211 HD
ENDBRANCH  13   2
BRANCH  17   3
ATOM      3  O   UNL     1      12.775  10.672  14.625  0.00  0.00    -0.387 OA
ATOM     30  H   UNL     1      13.130  11.576  14.574  0.00  0.00    +0.210 HD
ENDBRANCH  17   3
BRANCH  18   4
ATOM      4  O   UNL     1      10.483   9.514  15.852  0.00  0.00    -0.389 OA
ATOM     31  H   UNL     1       9.900   9.102  16.513  0.00  0.00    +0.210 HD
ENDBRANCH  18   4
TORSDOF 10
ENDMDL
MODEL 3
REMARK VINA RESULT:      -5.7      5.039      7.387
REMARK  Name = 11882434
REMARK  12 active torsions:
REMARK  status: ('A' for Active; 'I' for Inactive)
REMARK    1  A    between atoms: S_1  and  C_23
REMARK    2  A    between atoms: S_1  and  C_26
REMARK    3  A    between atoms: O_2  and  C_13
REMARK    4  A    between atoms: O_3  and  C_17
REMARK    5  A    between atoms: O_4  and  C_18
REMARK    6  A    between atoms: N_10  and  C_14
REMARK    7  A    between atoms: N_11  and  C_20
REMARK    8  A    between atoms: C_13  and  C_19
REMARK    9  A    between atoms: C_20  and  C_21
REMARK   10  A    between atoms: C_20  and  C_24
REMARK   11  A    between atoms: C_21  and  C_23
REMARK   12  A    between atoms: C_22  and  C_25
REMARK                            x       y       z     vdW  Elec       q    Type
REMARK                         _______ _______ _______ _____ _____    ______ ____
ROOT
ATOM     13  C   UNL     1      11.833   9.411  21.999  0.00  0.00    +0.146 C 
ATOM     14  C   UNL     1      12.528   8.588  19.698  0.00  0.00    +0.107 C 
ATOM     15  C   UNL     1      11.990   9.765  20.519  0.00  0.00    +0.069 C 
ATOM     16  C   UNL     1      10.976   8.161  22.183  0.00  0.00    +0.078 C 
ATOM     17  C   UNL     1      11.685   7.321  19.895  0.00  0.00    +0.163 C 
ATOM     18  C   UNL     1      11.507   6.974  21.376  0.00  0.00    +0.148 C 
ENDROOT
BRANCH  14  10
ATOM      6  O   UNL     1      14.526   7.799  17.745  0.00  0.00    -0.276 OA
ATOM     10  N   UNL     1      12.581   8.952  18.298  0.00  0.00    -0.310 N 
ATOM     22  C   UNL     1      13.580   8.522  17.444  0.00  0.00    +0.210 C 
ATOM     25  C   UNL     1      13.382   9.026  16.039  0.00  0.00    +0.109 C 
ATOM     27  H   UNL     1      11.877   9.595  17.947  0.00  0.00    +0.149 HD
ENDBRANCH  14  10
BRANCH  13  19
ATOM      5  O   UNL     1      10.629  10.399  23.810  0.00  0.00    -0.273 OA
ATOM     11  N   UNL     1      11.449  11.773  22.120  0.00  0.00    -0.302 N 
ATOM     19  C   UNL     1      11.240  10.561  22.758  0.00  0.00    +0.245 C 
ATOM     29  H   UNL     1      11.904  11.796  21.213  0.00  0.00    +0.150 HD
BRANCH  11  20
ATOM     20  C   UNL     1      10.958  13.031  22.632  0.00  0.00    +0.160 C 
BRANCH  20  24
ATOM      7  O   UNL     1      11.452  13.804  20.383  0.00  0.00    -0.274 OA
ATOM     12  N   UNL     1      10.200  15.154  21.755  0.00  0.00    -0.328 N 
ATOM     24  C   UNL     1      10.926  14.016  21.473  0.00  0.00    +0.231 C 
ATOM     32  H   UNL     1      10.087  15.885  21.061  0.00  0.00    +0.145 HD
ATOM     33  H   UNL     1       9.767  15.315  22.659  0.00  0.00    +0.145 HD
ENDBRANCH  20  24
BRANCH  20  21
ATOM     21  C   UNL     1      11.831  13.569  23.769  0.00  0.00    +0.054 C 
BRANCH  21  23
ATOM     23  C   UNL     1      13.311  13.289  23.545  0.00  0.00    +0.168 C 
BRANCH  23   1
ATOM      1  S   UNL     1      13.955  12.209  24.784  0.00  0.00    -0.034 S 
ATOM      8  O   UNL     1      12.903  11.951  25.752  0.00  0.00    -0.175 OA
ATOM      9  O   UNL     1      14.635  11.110  24.119  0.00  0.00    -0.175 OA
ATOM     26  C   UNL     1      15.194  13.199  25.588  0.00  0.00    +0.194 C 
ENDBRANCH  23   1
ENDBRANCH  21  23
ENDBRANCH  20  21
ENDBRANCH  11  20
ENDBRANCH  13  19
BRANCH  13   2
ATOM      2  O   UNL     1      13.107   9.193  22.598  0.00  0.00    -0.379 OA
ATOM     28  H   UNL     1      13.180   9.767  23.380  0.00  0.00    +0.211 HD
ENDBRANCH  13   2
BRANCH  17   3
ATOM      3  O   UNL     1      12.345   6.218  19.269  0.00  0.00    -0.387 OA
ATOM     30  H   UNL     1      13.287   6.443  19.176  0.00  0.00    +0.210 HD
ENDBRANCH  17   3
BRANCH  18   4
ATOM      4  O   UNL     1      10.579   5.895  21.478  0.00  0.00    -0.389 OA
ATOM     31  H   UNL     1       9.790   6.138  20.964  0.00  0.00    +0.210 HD
ENDBRANCH  18   4
TORSDOF 10
ENDMDL
MODEL 4
REMARK VINA RESULT:      -5.7     25.903     29.036
REMARK  Name = 11882434
REMARK  12 active torsions:
REMARK  status: ('A' for Active; 'I' for Inactive)
REMARK    1  A    between atoms: S_1  and  C_23
REMARK    2  A    between atoms: S_1  and  C_26
REMARK    3  A    between atoms: O_2  and  C_13
REMARK    4  A    between atoms: O_3  and  C_17
REMARK    5  A    between atoms: O_4  and  C_18
REMARK    6  A    between atoms: N_10  and  C_14
REMARK    7  A    between atoms: N_11  and  C_20
REMARK    8  A    between atoms: C_13  and  C_19
REMARK    9  A    between atoms: C_20  and  C_21
REMARK   10  A    between atoms: C_20  and  C_24
REMARK   11  A    between atoms: C_21  and  C_23
REMARK   12  A    between atoms: C_22  and  C_25
REMARK                            x       y       z     vdW  Elec       q    Type
REMARK                         _______ _______ _______ _____ _____    ______ ____
ROOT
ATOM     13  C   UNL     1      -5.727 -12.148  17.095  0.00  0.00    +0.146 C 
ATOM     14  C   UNL     1      -7.607 -10.549  17.700  0.00  0.00    +0.107 C 
ATOM     15  C   UNL     1      -6.493 -10.883  16.702  0.00  0.00    +0.069 C 
ATOM     16  C   UNL     1      -5.191 -12.052  18.522  0.00  0.00    +0.078 C 
ATOM     17  C   UNL     1      -7.081 -10.474  19.139  0.00  0.00    +0.163 C 
ATOM     18  C   UNL     1      -6.295 -11.728  19.530  0.00  0.00    +0.148 C 
ENDROOT
BRANCH  14  10
ATOM      6  O   UNL     1     -10.433  -9.900  17.845  0.00  0.00    -0.276 OA
ATOM     10  N   UNL     1      -8.243  -9.305  17.325  0.00  0.00    -0.310 N 
ATOM     22  C   UNL     1      -9.605  -9.092  17.432  0.00  0.00    +0.210 C 
ATOM     25  C   UNL     1      -9.999  -7.705  16.997  0.00  0.00    +0.109 C 
ATOM     27  H   UNL     1      -7.663  -8.579  16.915  0.00  0.00    +0.149 HD
ENDBRANCH  14  10
BRANCH  13  19
ATOM      5  O   UNL     1      -4.300 -13.538  15.777  0.00  0.00    -0.273 OA
ATOM     11  N   UNL     1      -3.967 -11.235  15.749  0.00  0.00    -0.302 N 
ATOM     19  C   UNL     1      -4.602 -12.403  16.136  0.00  0.00    +0.245 C 
ATOM     29  H   UNL     1      -4.244 -10.349  16.159  0.00  0.00    +0.150 HD
BRANCH  11  20
ATOM     20  C   UNL     1      -2.837 -11.209  14.849  0.00  0.00    +0.160 C 
BRANCH  20  24
ATOM      7  O   UNL     1      -1.016  -9.625  15.123  0.00  0.00    -0.274 OA
ATOM     12  N   UNL     1      -1.485 -11.065  16.849  0.00  0.00    -0.328 N 
ATOM     24  C   UNL     1      -1.680 -10.550  15.585  0.00  0.00    +0.231 C 
ATOM     32  H   UNL     1      -0.755 -10.702  17.452  0.00  0.00    +0.145 HD
ATOM     33  H   UNL     1      -2.044 -11.827  17.221  0.00  0.00    +0.145 HD
ENDBRANCH  20  24
BRANCH  20  21
ATOM     21  C   UNL     1      -3.150 -10.454  13.555  0.00  0.00    +0.054 C 
BRANCH  21  23
ATOM     23  C   UNL     1      -2.582 -11.151  12.325  0.00  0.00    +0.168 C 
BRANCH  23   1
ATOM      1  S   UNL     1      -3.314 -10.532  10.843  0.00  0.00    -0.034 S 
ATOM      8  O   UNL     1      -2.502  -9.429  10.360  0.00  0.00    -0.175 OA
ATOM      9  O   UNL     1      -3.615 -11.662   9.979  0.00  0.00    -0.175 OA
ATOM     26  C   UNL     1      -4.861  -9.856  11.400  0.00  0.00    +0.194 C 
ENDBRANCH  23   1
ENDBRANCH  21  23
ENDBRANCH  20  21
ENDBRANCH  11  20
ENDBRANCH  13  19
BRANCH  13   2
ATOM      2  O   UNL     1      -6.567 -13.292  16.989  0.00  0.00    -0.379 OA
ATOM     28  H   UNL     1      -6.236 -13.974  17.599  0.00  0.00    +0.211 HD
ENDBRANCH  13   2
BRANCH  17   3
ATOM      3  O   UNL     1      -8.188 -10.360  20.037  0.00  0.00    -0.387 OA
ATOM     30  H   UNL     1      -8.247 -11.186  20.548  0.00  0.00    +0.210 HD
ENDBRANCH  17   3
BRANCH  18   4
ATOM      4  O   UNL     1      -5.701 -11.508  20.810  0.00  0.00    -0.389 OA
ATOM     31  H   UNL     1      -4.985 -12.158  20.915  0.00  0.00    +0.210 HD
ENDBRANCH  18   4
TORSDOF 10
ENDMDL
MODEL 5
REMARK VINA RESULT:      -5.6     26.729     29.376
REMARK  Name = 11882434
REMARK  12 active torsions:
REMARK  status: ('A' for Active; 'I' for Inactive)
REMARK    1  A    between atoms: S_1  and  C_23
REMARK    2  A    between atoms: S_1  and  C_26
REMARK    3  A    between atoms: O_2  and  C_13
REMARK    4  A    between atoms: O_3  and  C_17
REMARK    5  A    between atoms: O_4  and  C_18
REMARK    6  A    between atoms: N_10  and  C_14
REMARK    7  A    between atoms: N_11  and  C_20
REMARK    8  A    between atoms: C_13  and  C_19
REMARK    9  A    between atoms: C_20  and  C_21
REMARK   10  A    between atoms: C_20  and  C_24
REMARK   11  A    between atoms: C_21  and  C_23
REMARK   12  A    between atoms: C_22  and  C_25
REMARK                            x       y       z     vdW  Elec       q    Type
REMARK                         _______ _______ _______ _____ _____    ______ ____
ROOT
ATOM     13  C   UNL     1      -4.883 -11.454  17.315  0.00  0.00    +0.146 C 
ATOM     14  C   UNL     1      -7.114 -10.276  17.613  0.00  0.00    +0.107 C 
ATOM     15  C   UNL     1      -5.767 -10.282  16.883  0.00  0.00    +0.069 C 
ATOM     16  C   UNL     1      -4.700 -11.482  18.831  0.00  0.00    +0.078 C 
ATOM     17  C   UNL     1      -6.939 -10.328  19.137  0.00  0.00    +0.163 C 
ATOM     18  C   UNL     1      -6.038 -11.486  19.572  0.00  0.00    +0.148 C 
ENDROOT
BRANCH  14  10
ATOM      6  O   UNL     1      -9.986 -10.086  17.234  0.00  0.00    -0.276 OA
ATOM     10  N   UNL     1      -7.874  -9.106  17.228  0.00  0.00    -0.310 N 
ATOM     22  C   UNL     1      -9.249  -9.117  17.072  0.00  0.00    +0.210 C 
ATOM     25  C   UNL     1      -9.787  -7.764  16.690  0.00  0.00    +0.109 C 
ATOM     27  H   UNL     1      -7.362  -8.256  17.012  0.00  0.00    +0.149 HD
ENDBRANCH  14  10
BRANCH  13  19
ATOM      5  O   UNL     1      -2.564 -10.897  17.180  0.00  0.00    -0.273 OA
ATOM     11  N   UNL     1      -3.587 -11.912  15.352  0.00  0.00    -0.302 N 
ATOM     19  C   UNL     1      -3.548 -11.388  16.633  0.00  0.00    +0.245 C 
ATOM     29  H   UNL     1      -4.468 -12.228  14.961  0.00  0.00    +0.150 HD
BRANCH  11  20
ATOM     20  C   UNL     1      -2.439 -11.947  14.476  0.00  0.00    +0.160 C 
BRANCH  20  24
ATOM      7  O   UNL     1      -3.007 -10.277  12.805  0.00  0.00    -0.274 OA
ATOM     12  N   UNL     1      -1.473  -9.730  14.425  0.00  0.00    -0.328 N 
ATOM     24  C   UNL     1      -2.344 -10.591  13.792  0.00  0.00    +0.231 C 
ATOM     32  H   UNL     1      -1.330  -8.787  14.079  0.00  0.00    +0.145 HD
ATOM     33  H   UNL     1      -0.935 -10.000  15.242  0.00  0.00    +0.145 HD
ENDBRANCH  20  24
BRANCH  20  21
ATOM     21  C   UNL     1      -2.541 -13.066  13.438  0.00  0.00    +0.054 C 
BRANCH  21  23
ATOM     23  C   UNL     1      -1.885 -14.357  13.911  0.00  0.00    +0.168 C 
BRANCH  23   1
ATOM      1  S   UNL     1      -3.090 -15.526  14.457  0.00  0.00    -0.034 S 
ATOM      8  O   UNL     1      -3.965 -14.866  15.411  0.00  0.00    -0.175 OA
ATOM      9  O   UNL     1      -3.639 -16.192  13.288  0.00  0.00    -0.175 OA
ATOM     26  C   UNL     1      -2.125 -16.722  15.352  0.00  0.00    +0.194 C 
ENDBRANCH  23   1
ENDBRANCH  21  23
ENDBRANCH  20  21
ENDBRANCH  11  20
ENDBRANCH  13  19
BRANCH  13   2
ATOM      2  O   UNL     1      -5.451 -12.689  16.892  0.00  0.00    -0.379 OA
ATOM     28  H   UNL     1      -5.399 -12.735  15.922  0.00  0.00    +0.211 HD
ENDBRANCH  13   2
BRANCH  17   3
ATOM      3  O   UNL     1      -8.217 -10.521  19.749  0.00  0.00    -0.387 OA
ATOM     30  H   UNL     1      -8.894 -10.152  19.155  0.00  0.00    +0.210 HD
ENDBRANCH  17   3
BRANCH  18   4
ATOM      4  O   UNL     1      -5.789 -11.362  20.973  0.00  0.00    -0.389 OA
ATOM     31  H   UNL     1      -5.652 -10.418  21.163  0.00  0.00    +0.210 HD
ENDBRANCH  18   4
TORSDOF 10
ENDMDL
MODEL 6
REMARK VINA RESULT:      -5.6     26.856     28.921
REMARK  Name = 11882434
REMARK  12 active torsions:
REMARK  status: ('A' for Active; 'I' for Inactive)
REMARK    1  A    between atoms: S_1  and  C_23
REMARK    2  A    between atoms: S_1  and  C_26
REMARK    3  A    between atoms: O_2  and  C_13
REMARK    4  A    between atoms: O_3  and  C_17
REMARK    5  A    between atoms: O_4  and  C_18
REMARK    6  A    between atoms: N_10  and  C_14
REMARK    7  A    between atoms: N_11  and  C_20
REMARK    8  A    between atoms: C_13  and  C_19
REMARK    9  A    between atoms: C_20  and  C_21
REMARK   10  A    between atoms: C_20  and  C_24
REMARK   11  A    between atoms: C_21  and  C_23
REMARK   12  A    between atoms: C_22  and  C_25
REMARK                            x       y       z     vdW  Elec       q    Type
REMARK                         _______ _______ _______ _____ _____    ______ ____
ROOT
ATOM     13  C   UNL     1      -2.811 -10.893  14.604  0.00  0.00    +0.146 C 
ATOM     14  C   UNL     1      -4.068 -10.624  12.413  0.00  0.00    +0.107 C 
ATOM     15  C   UNL     1      -4.136 -10.512  13.939  0.00  0.00    +0.069 C 
ATOM     16  C   UNL     1      -2.348 -12.280  14.164  0.00  0.00    +0.078 C 
ATOM     17  C   UNL     1      -3.581 -12.007  11.962  0.00  0.00    +0.163 C 
ATOM     18  C   UNL     1      -2.267 -12.403  12.641  0.00  0.00    +0.148 C 
ENDROOT
BRANCH  14  10
ATOM      6  O   UNL     1      -4.795  -8.351  10.760  0.00  0.00    -0.276 OA
ATOM     10  N   UNL     1      -5.366 -10.331  11.843  0.00  0.00    -0.310 N 
ATOM     22  C   UNL     1      -5.613  -9.215  11.064  0.00  0.00    +0.210 C 
ATOM     25  C   UNL     1      -7.038  -9.165  10.581  0.00  0.00    +0.109 C 
ATOM     27  H   UNL     1      -6.138 -10.949  12.074  0.00  0.00    +0.149 HD
ENDBRANCH  14  10
BRANCH  13  19
ATOM      5  O   UNL     1      -1.950 -10.828  16.832  0.00  0.00    -0.273 OA
ATOM     11  N   UNL     1      -4.256 -10.829  16.514  0.00  0.00    -0.302 N 
ATOM     19  C   UNL     1      -2.935 -10.839  16.099  0.00  0.00    +0.245 C 
ATOM     29  H   UNL     1      -5.003 -10.916  15.833  0.00  0.00    +0.150 HD
BRANCH  11  20
ATOM     20  C   UNL     1      -4.647 -10.803  17.905  0.00  0.00    +0.160 C 
BRANCH  20  24
ATOM      7  O   UNL     1      -4.959 -13.201  18.138  0.00  0.00    -0.274 OA
ATOM     12  N   UNL     1      -3.342 -12.177  19.408  0.00  0.00    -0.328 N 
ATOM     24  C   UNL     1      -4.367 -12.182  18.486  0.00  0.00    +0.231 C 
ATOM     32  H   UNL     1      -3.045 -13.036  19.859  0.00  0.00    +0.145 HD
ATOM     33  H   UNL     1      -2.858 -11.329  19.683  0.00  0.00    +0.145 HD
ENDBRANCH  20  24
BRANCH  20  21
ATOM     21  C   UNL     1      -6.122 -10.436  18.081  0.00  0.00    +0.054 C 
BRANCH  21  23
ATOM     23  C   UNL     1      -6.616 -10.683  19.501  0.00  0.00    +0.168 C 
BRANCH  23   1
ATOM      1  S   UNL     1      -8.106 -11.630  19.506  0.00  0.00    -0.034 S 
ATOM      8  O   UNL     1      -7.806 -12.947  20.043  0.00  0.00    -0.175 OA
ATOM      9  O   UNL     1      -9.159 -10.816  20.088  0.00  0.00    -0.175 OA
ATOM     26  C   UNL     1      -8.473 -11.827  17.777  0.00  0.00    +0.194 C 
ENDBRANCH  23   1
ENDBRANCH  21  23
ENDBRANCH  20  21
ENDBRANCH  11  20
ENDBRANCH  13  19
BRANCH  13   2
ATOM      2  O   UNL     1      -1.801  -9.942  14.285  0.00  0.00    -0.379 OA
ATOM     28  H   UNL     1      -1.350  -9.684  15.107  0.00  0.00    +0.211 HD
ENDBRANCH  13   2
BRANCH  17   3
ATOM      3  O   UNL     1      -3.349 -11.986  10.551  0.00  0.00    -0.387 OA
ATOM     30  H   UNL     1      -4.210 -11.912  10.106  0.00  0.00    +0.210 HD
ENDBRANCH  17   3
BRANCH  18   4
ATOM      4  O   UNL     1      -1.974 -13.759  12.303  0.00  0.00    -0.389 OA
ATOM     31  H   UNL     1      -2.465 -13.969  11.489  0.00  0.00    +0.210 HD
ENDBRANCH  18   4
TORSDOF 10
ENDMDL
MODEL 7
REMARK VINA RESULT:      -5.2     26.322     28.408
REMARK  Name = 11882434
REMARK  12 active torsions:
REMARK  status: ('A' for Active; 'I' for Inactive)
REMARK    1  A    between atoms: S_1  and  C_23
REMARK    2  A    between atoms: S_1  and  C_26
REMARK    3  A    between atoms: O_2  and  C_13
REMARK    4  A    between atoms: O_3  and  C_17
REMARK    5  A    between atoms: O_4  and  C_18
REMARK    6  A    between atoms: N_10  and  C_14
REMARK    7  A    between atoms: N_11  and  C_20
REMARK    8  A    between atoms: C_13  and  C_19
REMARK    9  A    between atoms: C_20  and  C_21
REMARK   10  A    between atoms: C_20  and  C_24
REMARK   11  A    between atoms: C_21  and  C_23
REMARK   12  A    between atoms: C_22  and  C_25
REMARK                            x       y       z     vdW  Elec       q    Type
REMARK                         _______ _______ _______ _____ _____    ______ ____
ROOT
ATOM     13  C   UNL     1      -3.655 -11.795  13.813  0.00  0.00    +0.146 C 
ATOM     14  C   UNL     1      -3.866 -11.625  16.339  0.00  0.00    +0.107 C 
ATOM     15  C   UNL     1      -4.579 -11.478  14.991  0.00  0.00    +0.069 C 
ATOM     16  C   UNL     1      -2.379 -10.958  13.867  0.00  0.00    +0.078 C 
ATOM     17  C   UNL     1      -2.571 -10.804  16.393  0.00  0.00    +0.163 C 
ATOM     18  C   UNL     1      -1.652 -11.102  15.206  0.00  0.00    +0.148 C 
ENDROOT
BRANCH  14  10
ATOM      6  O   UNL     1      -4.089 -12.826  18.973  0.00  0.00    -0.276 OA
ATOM     10  N   UNL     1      -4.760 -11.237  17.410  0.00  0.00    -0.310 N 
ATOM     22  C   UNL     1      -4.791 -11.876  18.636  0.00  0.00    +0.210 C 
ATOM     25  C   UNL     1      -5.794 -11.258  19.573  0.00  0.00    +0.109 C 
ATOM     27  H   UNL     1      -5.429 -10.495  17.225  0.00  0.00    +0.149 HD
ENDBRANCH  14  10
BRANCH  13  19
ATOM      5  O   UNL     1      -4.902 -12.493  11.899  0.00  0.00    -0.273 OA
ATOM     11  N   UNL     1      -4.309 -10.251  12.102  0.00  0.00    -0.302 N 
ATOM     19  C   UNL     1      -4.365 -11.573  12.510  0.00  0.00    +0.245 C 
ATOM     29  H   UNL     1      -3.777  -9.577  12.640  0.00  0.00    +0.150 HD
BRANCH  11  20
ATOM     20  C   UNL     1      -4.896  -9.779  10.868  0.00  0.00    +0.160 C 
BRANCH  20  24
ATOM      7  O   UNL     1      -2.593  -9.203  10.354  0.00  0.00    -0.274 OA
ATOM     12  N   UNL     1      -4.228  -8.635   8.845  0.00  0.00    -0.328 N 
ATOM     24  C   UNL     1      -3.778  -9.175  10.031  0.00  0.00    +0.231 C 
ATOM     32  H   UNL     1      -3.581  -8.213   8.187  0.00  0.00    +0.145 HD
ATOM     33  H   UNL     1      -5.210  -8.622   8.588  0.00  0.00    +0.145 HD
ENDBRANCH  20  24
BRANCH  20  21
ATOM     21  C   UNL     1      -6.000  -8.748  11.115  0.00  0.00    +0.054 C 
BRANCH  21  23
ATOM     23  C   UNL     1      -7.386  -9.297  10.801  0.00  0.00    +0.168 C 
BRANCH  23   1
ATOM      1  S   UNL     1      -8.040  -8.580   9.326  0.00  0.00    -0.034 S 
ATOM      8  O   UNL     1      -9.394  -8.129   9.601  0.00  0.00    -0.175 OA
ATOM      9  O   UNL     1      -7.049  -7.662   8.789  0.00  0.00    -0.175 OA
ATOM     26  C   UNL     1      -8.150  -9.962   8.213  0.00  0.00    +0.194 C 
ENDBRANCH  23   1
ENDBRANCH  21  23
ENDBRANCH  20  21
ENDBRANCH  11  20
ENDBRANCH  13  19
BRANCH  13   2
ATOM      2  O   UNL     1      -3.305 -13.175  13.811  0.00  0.00    -0.379 OA
ATOM     28  H   UNL     1      -3.939 -13.652  13.248  0.00  0.00    +0.211 HD
ENDBRANCH  13   2
BRANCH  17   3
ATOM      3  O   UNL     1      -1.856 -11.136  17.586  0.00  0.00    -0.387 OA
ATOM     30  H   UNL     1      -0.968 -10.745  17.524  0.00  0.00    +0.210 HD
ENDBRANCH  17   3
BRANCH  18   4
ATOM      4  O   UNL     1      -0.560 -10.183  15.239  0.00  0.00    -0.389 OA
ATOM     31  H   UNL     1      -0.600  -9.652  14.424  0.00  0.00    +0.210 HD
ENDBRANCH  18   4
TORSDOF 10
ENDMDL
MODEL 8
REMARK VINA RESULT:      -5.2     26.649     29.083
REMARK  Name = 11882434
REMARK  12 active torsions:
REMARK  status: ('A' for Active; 'I' for Inactive)
REMARK    1  A    between atoms: S_1  and  C_23
REMARK    2  A    between atoms: S_1  and  C_26
REMARK    3  A    between atoms: O_2  and  C_13
REMARK    4  A    between atoms: O_3  and  C_17
REMARK    5  A    between atoms: O_4  and  C_18
REMARK    6  A    between atoms: N_10  and  C_14
REMARK    7  A    between atoms: N_11  and  C_20
REMARK    8  A    between atoms: C_13  and  C_19
REMARK    9  A    between atoms: C_20  and  C_21
REMARK   10  A    between atoms: C_20  and  C_24
REMARK   11  A    between atoms: C_21  and  C_23
REMARK   12  A    between atoms: C_22  and  C_25
REMARK                            x       y       z     vdW  Elec       q    Type
REMARK                         _______ _______ _______ _____ _____    ______ ____
ROOT
ATOM     13  C   UNL     1      -4.893 -10.805  16.157  0.00  0.00    +0.146 C 
ATOM     14  C   UNL     1      -3.887 -10.874  13.825  0.00  0.00    +0.107 C 
ATOM     15  C   UNL     1      -5.003 -11.381  14.744  0.00  0.00    +0.069 C 
ATOM     16  C   UNL     1      -3.512 -11.063  16.756  0.00  0.00    +0.078 C 
ATOM     17  C   UNL     1      -2.498 -11.109  14.430  0.00  0.00    +0.163 C 
ATOM     18  C   UNL     1      -2.388 -10.552  15.852  0.00  0.00    +0.148 C 
ENDROOT
BRANCH  14  10
ATOM      6  O   UNL     1      -3.315  -9.701  11.232  0.00  0.00    -0.276 OA
ATOM     10  N   UNL     1      -3.993 -11.511  12.530  0.00  0.00    -0.310 N 
ATOM     22  C   UNL     1      -3.696 -10.863  11.344  0.00  0.00    +0.210 C 
ATOM     25  C   UNL     1      -3.868 -11.762  10.149  0.00  0.00    +0.109 C 
ATOM     27  H   UNL     1      -4.353 -12.460  12.494  0.00  0.00    +0.149 HD
ENDBRANCH  14  10
BRANCH  13  19
ATOM      5  O   UNL     1      -6.267 -12.565  17.007  0.00  0.00    -0.273 OA
ATOM     11  N   UNL     1      -6.531 -10.416  17.861  0.00  0.00    -0.302 N 
ATOM     19  C   UNL     1      -5.958 -11.377  17.046  0.00  0.00    +0.245 C 
ATOM     29  H   UNL     1      -6.258  -9.443  17.768  0.00  0.00    +0.150 HD
BRANCH  11  20
ATOM     20  C   UNL     1      -7.597 -10.704  18.794  0.00  0.00    +0.160 C 
BRANCH  20  24
ATOM      7  O   UNL     1      -6.198 -11.415  20.649  0.00  0.00    -0.274 OA
ATOM     12  N   UNL     1      -7.667 -12.929  19.741  0.00  0.00    -0.328 N 
ATOM     24  C   UNL     1      -7.056 -11.695  19.815  0.00  0.00    +0.231 C 
ATOM     32  H   UNL     1      -7.409 -13.676  20.376  0.00  0.00    +0.145 HD
ATOM     33  H   UNL     1      -8.378 -13.145  19.049  0.00  0.00    +0.145 HD
ENDBRANCH  20  24
BRANCH  20  21
ATOM     21  C   UNL     1      -8.834 -11.273  18.096  0.00  0.00    +0.054 C 
BRANCH  21  23
ATOM     23  C   UNL     1      -9.998 -10.291  18.087  0.00  0.00    +0.168 C 
BRANCH  23   1
ATOM      1  S   UNL     1      -9.814  -9.092  16.803  0.00  0.00    -0.034 S 
ATOM      8  O   UNL     1      -9.677  -7.784  17.419  0.00  0.00    -0.175 OA
ATOM      9  O   UNL     1      -8.814  -9.578  15.868  0.00  0.00    -0.175 OA
ATOM     26  C   UNL     1     -11.387  -9.134  15.976  0.00  0.00    +0.194 C 
ENDBRANCH  23   1
ENDBRANCH  21  23
ENDBRANCH  20  21
ENDBRANCH  11  20
ENDBRANCH  13  19
BRANCH  13   2
ATOM      2  O   UNL     1      -5.140  -9.402  16.144  0.00  0.00    -0.379 OA
ATOM     28  H   UNL     1      -5.687  -9.179  16.917  0.00  0.00    +0.211 HD
ENDBRANCH  13   2
BRANCH  17   3
ATOM      3  O   UNL     1      -1.519 -10.441  13.629  0.00  0.00    -0.387 OA
ATOM     30  H   UNL     1      -1.392 -10.958  12.815  0.00  0.00    +0.210 HD
ENDBRANCH  17   3
BRANCH  18   4
ATOM      4  O   UNL     1      -1.135 -10.959  16.401  0.00  0.00    -0.389 OA
ATOM     31  H   UNL     1      -0.453 -10.791  15.728  0.00  0.00    +0.210 HD
ENDBRANCH  18   4
TORSDOF 10
ENDMDL
MODEL 9
REMARK VINA RESULT:      -5.0     27.435     28.942
REMARK  Name = 11882434
REMARK  12 active torsions:
REMARK  status: ('A' for Active; 'I' for Inactive)
REMARK    1  A    between atoms: S_1  and  C_23
REMARK    2  A    between atoms: S_1  and  C_26
REMARK    3  A    between atoms: O_2  and  C_13
REMARK    4  A    between atoms: O_3  and  C_17
REMARK    5  A    between atoms: O_4  and  C_18
REMARK    6  A    between atoms: N_10  and  C_14
REMARK    7  A    between atoms: N_11  and  C_20
REMARK    8  A    between atoms: C_13  and  C_19
REMARK    9  A    between atoms: C_20  and  C_21
REMARK   10  A    between atoms: C_20  and  C_24
REMARK   11  A    between atoms: C_21  and  C_23
REMARK   12  A    between atoms: C_22  and  C_25
REMARK                            x       y       z     vdW  Elec       q    Type
REMARK                         _______ _______ _______ _____ _____    ______ ____
ROOT
ATOM     13  C   UNL     1      -4.068 -10.695  15.696  0.00  0.00    +0.146 C 
ATOM     14  C   UNL     1      -3.569 -10.686  13.205  0.00  0.00    +0.107 C 
ATOM     15  C   UNL     1      -4.549 -10.270  14.307  0.00  0.00    +0.069 C 
ATOM     16  C   UNL     1      -3.770 -12.192  15.746  0.00  0.00    +0.078 C 
ATOM     17  C   UNL     1      -3.247 -12.184  13.262  0.00  0.00    +0.163 C 
ATOM     18  C   UNL     1      -2.786 -12.620  14.656  0.00  0.00    +0.148 C 
ENDROOT
BRANCH  14  10
ATOM      6  O   UNL     1      -2.123  -9.627  10.921  0.00  0.00    -0.276 OA
ATOM     10  N   UNL     1      -4.109 -10.330  11.910  0.00  0.00    -0.310 N 
ATOM     22  C   UNL     1      -3.334  -9.830  10.880  0.00  0.00    +0.210 C 
ATOM     25  C   UNL     1      -4.142  -9.568   9.637  0.00  0.00    +0.109 C 
ATOM     27  H   UNL     1      -5.114 -10.404  11.778  0.00  0.00    +0.149 HD
ENDBRANCH  14  10
BRANCH  13  19
ATOM      5  O   UNL     1      -4.849 -10.447  17.940  0.00  0.00    -0.273 OA
ATOM     11  N   UNL     1      -6.275  -9.900  16.184  0.00  0.00    -0.302 N 
ATOM     19  C   UNL     1      -5.084 -10.335  16.740  0.00  0.00    +0.245 C 
ATOM     29  H   UNL     1      -6.399  -9.912  15.177  0.00  0.00    +0.150 HD
BRANCH  11  20
ATOM     20  C   UNL     1      -7.422  -9.515  16.974  0.00  0.00    +0.160 C 
BRANCH  20  24
ATOM      7  O   UNL     1      -8.209 -11.796  17.256  0.00  0.00    -0.274 OA
ATOM     12  N   UNL     1      -7.779 -10.544  19.133  0.00  0.00    -0.328 N 
ATOM     24  C   UNL     1      -7.861 -10.735  17.770  0.00  0.00    +0.231 C 
ATOM     32  H   UNL     1      -8.028 -11.286  19.778  0.00  0.00    +0.145 HD
ATOM     33  H   UNL     1      -7.486  -9.663  19.545  0.00  0.00    +0.145 HD
ENDBRANCH  20  24
BRANCH  20  21
ATOM     21  C   UNL     1      -8.571  -9.000  16.105  0.00  0.00    +0.054 C 
BRANCH  21  23
ATOM     23  C   UNL     1      -9.538  -8.118  16.885  0.00  0.00    +0.168 C 
BRANCH  23   1
ATOM      1  S   UNL     1     -11.017  -7.820  15.968  0.00  0.00    -0.034 S 
ATOM      8  O   UNL     1     -10.790  -8.232  14.593  0.00  0.00    -0.175 OA
ATOM      9  O   UNL     1     -12.136  -8.356  16.725  0.00  0.00    -0.175 OA
ATOM     26  C   UNL     1     -11.159  -6.048  15.982  0.00  0.00    +0.194 C 
ENDBRANCH  23   1
ENDBRANCH  21  23
ENDBRANCH  20  21
ENDBRANCH  11  20
ENDBRANCH  13  19
BRANCH  13   2
ATOM      2  O   UNL     1      -2.895  -9.975  16.060  0.00  0.00    -0.379 OA
ATOM     28  H   UNL     1      -2.781 -10.040  17.024  0.00  0.00    +0.211 HD
ENDBRANCH  13   2
BRANCH  17   3
ATOM      3  O   UNL     1      -2.185 -12.470  12.348  0.00  0.00    -0.387 OA
ATOM     30  H   UNL     1      -1.648 -11.666  12.249  0.00  0.00    +0.210 HD
ENDBRANCH  17   3
BRANCH  18   4
ATOM      4  O   UNL     1      -2.672 -14.043  14.670  0.00  0.00    -0.389 OA
ATOM     31  H   UNL     1      -3.009 -14.371  13.818  0.00  0.00    +0.210 HD
ENDBRANCH  18   4
TORSDOF 10
ENDMDL
MODEL 10
REMARK VINA RESULT:      -5.0     27.510     29.533
REMARK  Name = 11882434
REMARK  12 active torsions:
REMARK  status: ('A' for Active; 'I' for Inactive)
REMARK    1  A    between atoms: S_1  and  C_23
REMARK    2  A    between atoms: S_1  and  C_26
REMARK    3  A    between atoms: O_2  and  C_13
REMARK    4  A    between atoms: O_3  and  C_17
REMARK    5  A    between atoms: O_4  and  C_18
REMARK    6  A    between atoms: N_10  and  C_14
REMARK    7  A    between atoms: N_11  and  C_20
REMARK    8  A    between atoms: C_13  and  C_19
REMARK    9  A    between atoms: C_20  and  C_21
REMARK   10  A    between atoms: C_20  and  C_24
REMARK   11  A    between atoms: C_21  and  C_23
REMARK   12  A    between atoms: C_22  and  C_25
REMARK                            x       y       z     vdW  Elec       q    Type
REMARK                         _______ _______ _______ _____ _____    ______ ____
ROOT
ATOM     13  C   UNL     1      -4.476 -10.697  15.505  0.00  0.00    +0.146 C 
ATOM     14  C   UNL     1      -3.623 -10.643  13.113  0.00  0.00    +0.107 C 
ATOM     15  C   UNL     1      -4.773 -10.288  14.061  0.00  0.00    +0.069 C 
ATOM     16  C   UNL     1      -4.109 -12.176  15.599  0.00  0.00    +0.078 C 
ATOM     17  C   UNL     1      -3.232 -12.123  13.218  0.00  0.00    +0.163 C 
ATOM     18  C   UNL     1      -2.955 -12.543  14.664  0.00  0.00    +0.148 C 
ENDROOT
BRANCH  14  10
ATOM      6  O   UNL     1      -1.910  -9.536  11.047  0.00  0.00    -0.276 OA
ATOM     10  N   UNL     1      -3.989 -10.308  11.753  0.00  0.00    -0.310 N 
ATOM     22  C   UNL     1      -3.095  -9.782  10.839  0.00  0.00    +0.210 C 
ATOM     25  C   UNL     1      -3.729  -9.549   9.494  0.00  0.00    +0.109 C 
ATOM     27  H   UNL     1      -4.962 -10.418  11.482  0.00  0.00    +0.149 HD
ENDBRANCH  14  10
BRANCH  13  19
ATOM      5  O   UNL     1      -6.086  -9.258  16.528  0.00  0.00    -0.273 OA
ATOM     11  N   UNL     1      -6.134 -11.533  17.020  0.00  0.00    -0.302 N 
ATOM     19  C   UNL     1      -5.650 -10.398  16.391  0.00  0.00    +0.245 C 
ATOM     29  H   UNL     1      -5.659 -12.421  16.899  0.00  0.00    +0.150 HD
BRANCH  11  20
ATOM     20  C   UNL     1      -7.246 -11.512  17.943  0.00  0.00    +0.160 C 
BRANCH  20  24
ATOM      7  O   UNL     1      -7.705 -12.971  19.831  0.00  0.00    -0.274 OA
ATOM     12  N   UNL     1      -6.678 -13.863  17.981  0.00  0.00    -0.328 N 
ATOM     24  C   UNL     1      -7.232 -12.829  18.705  0.00  0.00    +0.231 C 
ATOM     32  H   UNL     1      -6.621 -14.798  18.368  0.00  0.00    +0.145 HD
ATOM     33  H   UNL     1      -6.294 -13.733  17.050  0.00  0.00    +0.145 HD
ENDBRANCH  20  24
BRANCH  20  21
ATOM     21  C   UNL     1      -8.584 -11.321  17.227  0.00  0.00    +0.054 C 
BRANCH  21  23
ATOM     23  C   UNL     1      -9.403 -10.183  17.823  0.00  0.00    +0.168 C 
BRANCH  23   1
ATOM      1  S   UNL     1     -10.486 -10.767  19.089  0.00  0.00    -0.034 S 
ATOM      8  O   UNL     1     -10.886 -12.123  18.755  0.00  0.00    -0.175 OA
ATOM      9  O   UNL     1      -9.880 -10.471  20.377  0.00  0.00    -0.175 OA
ATOM     26  C   UNL     1     -11.917  -9.726  18.917  0.00  0.00    +0.194 C 
ENDBRANCH  23   1
ENDBRANCH  21  23
ENDBRANCH  20  21
ENDBRANCH  11  20
ENDBRANCH  13  19
BRANCH  13   2
ATOM      2  O   UNL     1      -3.409  -9.918  16.035  0.00  0.00    -0.379 OA
ATOM     28  H   UNL     1      -2.742 -10.522  16.405  0.00  0.00    +0.211 HD
ENDBRANCH  13   2
BRANCH  17   3
ATOM      3  O   UNL     1      -2.036 -12.346  12.467  0.00  0.00    -0.387 OA
ATOM     30  H   UNL     1      -1.461 -11.569  12.578  0.00  0.00    +0.210 HD
ENDBRANCH  17   3
BRANCH  18   4
ATOM      4  O   UNL     1      -2.769 -13.958  14.695  0.00  0.00    -0.389 OA
ATOM     31  H   UNL     1      -1.924 -14.151  14.252  0.00  0.00    +0.210 HD
ENDBRANCH  18   4
TORSDOF 10
ENDMDL
