MODEL 1
REMARK VINA RESULT:      -7.8      0.000      0.000
REMARK  Name = 11885132
REMARK  4 active torsions:
REMARK  status: ('A' for Active; 'I' for Inactive)
REMARK    1  A    between atoms: O_4  and  C_28
REMARK    2  A    between atoms: O_4  and  C_32
REMARK    3  A    between atoms: N_7  and  C_21
REMARK    4  A    between atoms: C_18  and  C_20
REMARK                            x       y       z     vdW  Elec       q    Type
REMARK                         _______ _______ _______ _____ _____    ______ ____
ROOT
ATOM      2  O   UNL     1      10.806   7.214   2.230  0.00  0.00    -0.267 OA
ATOM      3  O   UNL     1      13.296   6.458   7.406  0.00  0.00    -0.252 OA
ATOM      5  N   UNL     1      11.427   7.804   7.175  0.00  0.00    -0.284 N 
ATOM      6  N   UNL     1      10.084   6.896   4.424  0.00  0.00    -0.311 N 
ATOM      7  N   UNL     1      13.562   8.606   6.572  0.00  0.00    -0.269 N 
ATOM      8  C   UNL     1       9.489   8.842   5.975  0.00  0.00    +0.027 C 
ATOM      9  C   UNL     1       9.320   6.534   6.796  0.00  0.00    +0.054 C 
ATOM     10  C   UNL     1       8.555   7.846   6.647  0.00  0.00    +0.018 C 
ATOM     11  C   UNL     1      10.761   9.066   6.816  0.00  0.00    +0.114 C 
ATOM     12  C   UNL     1       9.818   8.333   4.566  0.00  0.00    +0.130 C 
ATOM     13  C   UNL     1      10.539   6.762   7.706  0.00  0.00    +0.119 C 
ATOM     14  C   UNL     1       9.775   6.002   5.451  0.00  0.00    +0.027 A 
ATOM     15  C   UNL     1       9.912   4.679   5.257  0.00  0.00    +0.022 A 
ATOM     16  C   UNL     1      10.559   6.459   3.171  0.00  0.00    +0.259 A 
ATOM     17  C   UNL     1      12.811   7.541   7.066  0.00  0.00    +0.306 C 
ATOM     18  C   UNL     1      10.742   4.976   2.998  0.00  0.00    +0.047 A 
ATOM     19  C   UNL     1      10.409   4.164   4.014  0.00  0.00    +0.015 A 
ATOM     33  H   UNL     1      13.222   9.548   6.729  0.00  0.00    +0.156 HD
ENDROOT
BRANCH   7  21
ATOM      1 CL   UNL     1      18.760   8.318   3.750  0.00  0.00    -0.084 Cl
ATOM     21  C   UNL     1      14.806   8.537   5.897  0.00  0.00    +0.035 A 
ATOM     26  C   UNL     1      14.951   7.693   4.800  0.00  0.00    +0.025 A 
ATOM     27  C   UNL     1      15.875   9.314   6.334  0.00  0.00    +0.025 A 
ATOM     29  C   UNL     1      16.176   7.625   4.135  0.00  0.00    +0.022 A 
ATOM     30  C   UNL     1      17.099   9.246   5.669  0.00  0.00    +0.022 A 
ATOM     31  C   UNL     1      17.250   8.401   4.570  0.00  0.00    +0.041 A 
ENDBRANCH   7  21
BRANCH  18  20
ATOM     20  C   UNL     1      11.285   4.414   1.749  0.00  0.00    -0.012 A 
ATOM     22  C   UNL     1      12.539   3.804   1.745  0.00  0.00    +0.012 A 
ATOM     23  C   UNL     1      10.545   4.493   0.568  0.00  0.00    +0.012 A 
ATOM     24  C   UNL     1      13.053   3.273   0.563  0.00  0.00    +0.046 A 
ATOM     25  C   UNL     1      11.059   3.961  -0.615  0.00  0.00    +0.046 A 
ATOM     28  C   UNL     1      12.314   3.351  -0.617  0.00  0.00    +0.120 A 
BRANCH  28   4
ATOM      4  O   UNL     1      12.816   2.833  -1.772  0.00  0.00    -0.495 OA
ATOM     32  C   UNL     1      11.875   2.414  -2.758  0.00  0.00    +0.277 C 
ENDBRANCH  28   4
ENDBRANCH  18  20
TORSDOF 3
ENDMDL
MODEL 2
REMARK VINA RESULT:      -7.1     13.101     16.592
REMARK  Name = 11885132
REMARK  4 active torsions:
REMARK  status: ('A' for Active; 'I' for Inactive)
REMARK    1  A    between atoms: O_4  and  C_28
REMARK    2  A    between atoms: O_4  and  C_32
REMARK    3  A    between atoms: N_7  and  C_21
REMARK    4  A    between atoms: C_18  and  C_20
REMARK                            x       y       z     vdW  Elec       q    Type
REMARK                         _______ _______ _______ _____ _____    ______ ____
ROOT
ATOM      2  O   UNL     1      15.792   6.287  18.930  0.00  0.00    -0.267 OA
ATOM      3  O   UNL     1      13.897  11.752  19.238  0.00  0.00    -0.252 OA
ATOM      5  N   UNL     1      12.406   9.983  19.181  0.00  0.00    -0.284 N 
ATOM      6  N   UNL     1      14.111   7.432  20.068  0.00  0.00    -0.311 N 
ATOM      7  N   UNL     1      13.439  10.743  17.201  0.00  0.00    -0.269 N 
ATOM      8  C   UNL     1      11.709   7.577  19.197  0.00  0.00    +0.027 C 
ATOM      9  C   UNL     1      12.310   8.687  21.303  0.00  0.00    +0.054 C 
ATOM     10  C   UNL     1      11.326   7.710  20.664  0.00  0.00    +0.018 C 
ATOM     11  C   UNL     1      11.642   8.940  18.479  0.00  0.00    +0.114 C 
ATOM     12  C   UNL     1      13.108   6.952  19.109  0.00  0.00    +0.130 C 
ATOM     13  C   UNL     1      12.167  10.061  20.627  0.00  0.00    +0.119 C 
ATOM     14  C   UNL     1      13.740   8.197  21.176  0.00  0.00    +0.027 A 
ATOM     15  C   UNL     1      14.652   8.523  22.107  0.00  0.00    +0.022 A 
ATOM     16  C   UNL     1      15.435   6.993  19.874  0.00  0.00    +0.259 A 
ATOM     17  C   UNL     1      13.305  10.892  18.580  0.00  0.00    +0.306 C 
ATOM     18  C   UNL     1      16.443   7.409  20.910  0.00  0.00    +0.047 A 
ATOM     19  C   UNL     1      16.024   8.126  21.964  0.00  0.00    +0.015 A 
ATOM     33  H   UNL     1      12.656  10.364  16.680  0.00  0.00    +0.156 HD
ENDROOT
BRANCH   7  21
ATOM      1 CL   UNL     1      18.087  12.280  13.869  0.00  0.00    -0.084 Cl
ATOM     21  C   UNL     1      14.551  11.110  16.403  0.00  0.00    +0.035 A 
ATOM     26  C   UNL     1      14.774  10.468  15.189  0.00  0.00    +0.025 A 
ATOM     27  C   UNL     1      15.415  12.112  16.840  0.00  0.00    +0.025 A 
ATOM     29  C   UNL     1      15.869  10.831  14.404  0.00  0.00    +0.022 A 
ATOM     30  C   UNL     1      16.509  12.474  16.054  0.00  0.00    +0.022 A 
ATOM     31  C   UNL     1      16.736  11.833  14.837  0.00  0.00    +0.041 A 
ENDBRANCH   7  21
BRANCH  18  20
ATOM     20  C   UNL     1      17.867   7.052  20.777  0.00  0.00    -0.012 A 
ATOM     22  C   UNL     1      18.229   5.828  20.215  0.00  0.00    +0.012 A 
ATOM     23  C   UNL     1      18.853   7.937  21.214  0.00  0.00    +0.012 A 
ATOM     24  C   UNL     1      19.577   5.490  20.089  0.00  0.00    +0.046 A 
ATOM     25  C   UNL     1      20.200   7.599  21.088  0.00  0.00    +0.046 A 
ATOM     28  C   UNL     1      20.562   6.374  20.526  0.00  0.00    +0.120 A 
BRANCH  28   4
ATOM      4  O   UNL     1      21.877   6.045  20.404  0.00  0.00    -0.495 OA
ATOM     32  C   UNL     1      22.256   4.730  20.804  0.00  0.00    +0.277 C 
ENDBRANCH  28   4
ENDBRANCH  18  20
TORSDOF 3
ENDMDL
MODEL 3
REMARK VINA RESULT:      -7.1      3.493      5.634
REMARK  Name = 11885132
REMARK  4 active torsions:
REMARK  status: ('A' for Active; 'I' for Inactive)
REMARK    1  A    between atoms: O_4  and  C_28
REMARK    2  A    between atoms: O_4  and  C_32
REMARK    3  A    between atoms: N_7  and  C_21
REMARK    4  A    between atoms: C_18  and  C_20
REMARK                            x       y       z     vdW  Elec       q    Type
REMARK                         _______ _______ _______ _____ _____    ______ ____
ROOT
ATOM      2  O   UNL     1      10.157   4.624   3.382  0.00  0.00    -0.267 OA
ATOM      3  O   UNL     1       9.648  10.161   5.006  0.00  0.00    -0.252 OA
ATOM      5  N   UNL     1       9.321   8.446   6.525  0.00  0.00    -0.284 N 
ATOM      6  N   UNL     1      10.762   5.906   5.233  0.00  0.00    -0.311 N 
ATOM      7  N   UNL     1       7.625   9.026   4.991  0.00  0.00    -0.269 N 
ATOM      8  C   UNL     1       9.304   6.074   7.329  0.00  0.00    +0.027 C 
ATOM      9  C   UNL     1      11.423   7.309   7.218  0.00  0.00    +0.054 C 
ATOM     10  C   UNL     1      10.615   6.325   8.060  0.00  0.00    +0.018 C 
ATOM     11  C   UNL     1       8.512   7.384   7.143  0.00  0.00    +0.114 C 
ATOM     12  C   UNL     1       9.610   5.395   5.988  0.00  0.00    +0.130 C 
ATOM     13  C   UNL     1      10.652   8.636   7.114  0.00  0.00    +0.119 C 
ATOM     14  C   UNL     1      11.692   6.760   5.829  0.00  0.00    +0.027 A 
ATOM     15  C   UNL     1      12.802   7.119   5.163  0.00  0.00    +0.022 A 
ATOM     16  C   UNL     1      10.936   5.408   3.927  0.00  0.00    +0.259 A 
ATOM     17  C   UNL     1       8.914   9.278   5.458  0.00  0.00    +0.306 C 
ATOM     18  C   UNL     1      12.167   5.860   3.190  0.00  0.00    +0.047 A 
ATOM     19  C   UNL     1      13.035   6.665   3.822  0.00  0.00    +0.015 A 
ATOM     33  H   UNL     1       6.946   8.639   5.638  0.00  0.00    +0.156 HD
ENDROOT
BRANCH   7  21
ATOM      1 CL   UNL     1       5.494  10.154  -0.418  0.00  0.00    -0.084 Cl
ATOM     21  C   UNL     1       7.115   9.296   3.697  0.00  0.00    +0.035 A 
ATOM     26  C   UNL     1       5.893   9.948   3.557  0.00  0.00    +0.025 A 
ATOM     27  C   UNL     1       7.839   8.907   2.573  0.00  0.00    +0.025 A 
ATOM     29  C   UNL     1       5.391  10.214   2.282  0.00  0.00    +0.022 A 
ATOM     30  C   UNL     1       7.336   9.173   1.299  0.00  0.00    +0.022 A 
ATOM     31  C   UNL     1       6.113   9.826   1.154  0.00  0.00    +0.041 A 
ENDBRANCH   7  21
BRANCH  18  20
ATOM     20  C   UNL     1      12.421   5.444   1.800  0.00  0.00    -0.012 A 
ATOM     22  C   UNL     1      13.124   4.268   1.540  0.00  0.00    +0.012 A 
ATOM     23  C   UNL     1      11.958   6.227   0.741  0.00  0.00    +0.012 A 
ATOM     24  C   UNL     1      13.364   3.874   0.224  0.00  0.00    +0.046 A 
ATOM     25  C   UNL     1      12.199   5.833  -0.575  0.00  0.00    +0.046 A 
ATOM     28  C   UNL     1      12.902   4.656  -0.834  0.00  0.00    +0.120 A 
BRANCH  28   4
ATOM      4  O   UNL     1      13.137   4.272  -2.119  0.00  0.00    -0.495 OA
ATOM     32  C   UNL     1      12.534   3.055  -2.553  0.00  0.00    +0.277 C 
ENDBRANCH  28   4
ENDBRANCH  18  20
TORSDOF 3
ENDMDL
MODEL 4
REMARK VINA RESULT:      -7.0      2.320      6.705
REMARK  Name = 11885132
REMARK  4 active torsions:
REMARK  status: ('A' for Active; 'I' for Inactive)
REMARK    1  A    between atoms: O_4  and  C_28
REMARK    2  A    between atoms: O_4  and  C_32
REMARK    3  A    between atoms: N_7  and  C_21
REMARK    4  A    between atoms: C_18  and  C_20
REMARK                            x       y       z     vdW  Elec       q    Type
REMARK                         _______ _______ _______ _____ _____    ______ ____
ROOT
ATOM      2  O   UNL     1      13.843   6.578   6.926  0.00  0.00    -0.267 OA
ATOM      3  O   UNL     1       9.581   7.539   3.122  0.00  0.00    -0.252 OA
ATOM      5  N   UNL     1       9.119   6.728   5.239  0.00  0.00    -0.284 N 
ATOM      6  N   UNL     1      11.687   7.462   6.989  0.00  0.00    -0.311 N 
ATOM      7  N   UNL     1       9.925   5.286   3.555  0.00  0.00    -0.269 N 
ATOM      8  C   UNL     1       9.638   6.055   7.596  0.00  0.00    +0.027 C 
ATOM      9  C   UNL     1       9.363   8.431   7.038  0.00  0.00    +0.054 C 
ATOM     10  C   UNL     1       9.047   7.368   8.089  0.00  0.00    +0.018 C 
ATOM     11  C   UNL     1       9.034   5.649   6.237  0.00  0.00    +0.114 C 
ATOM     12  C   UNL     1      11.164   6.199   7.524  0.00  0.00    +0.130 C 
ATOM     13  C   UNL     1       8.682   8.047   5.713  0.00  0.00    +0.119 C 
ATOM     14  C   UNL     1      10.858   8.574   6.826  0.00  0.00    +0.027 A 
ATOM     15  C   UNL     1      11.378   9.755   6.452  0.00  0.00    +0.022 A 
ATOM     16  C   UNL     1      13.075   7.527   6.757  0.00  0.00    +0.259 A 
ATOM     17  C   UNL     1       9.556   6.585   3.904  0.00  0.00    +0.306 C 
ATOM     18  C   UNL     1      13.623   8.850   6.299  0.00  0.00    +0.047 A 
ATOM     19  C   UNL     1      12.780   9.888   6.179  0.00  0.00    +0.015 A 
ATOM     33  H   UNL     1       9.488   4.514   4.046  0.00  0.00    +0.156 HD
ENDROOT
BRANCH   7  21
ATOM      1 CL   UNL     1      13.703   3.662  -0.706  0.00  0.00    -0.084 Cl
ATOM     21  C   UNL     1      10.829   4.898   2.536  0.00  0.00    +0.035 A 
ATOM     26  C   UNL     1      10.344   4.336   1.358  0.00  0.00    +0.025 A 
ATOM     27  C   UNL     1      12.198   5.080   2.718  0.00  0.00    +0.025 A 
ATOM     29  C   UNL     1      11.234   3.953   0.354  0.00  0.00    +0.022 A 
ATOM     30  C   UNL     1      13.087   4.697   1.714  0.00  0.00    +0.022 A 
ATOM     31  C   UNL     1      12.605   4.134   0.533  0.00  0.00    +0.041 A 
ENDBRANCH   7  21
BRANCH  18  20
ATOM     20  C   UNL     1      15.051   9.015   5.973  0.00  0.00    -0.012 A 
ATOM     22  C   UNL     1      15.773  10.074   6.522  0.00  0.00    +0.012 A 
ATOM     23  C   UNL     1      15.680   8.111   5.117  0.00  0.00    +0.012 A 
ATOM     24  C   UNL     1      17.125  10.230   6.214  0.00  0.00    +0.046 A 
ATOM     25  C   UNL     1      17.032   8.268   4.809  0.00  0.00    +0.046 A 
ATOM     28  C   UNL     1      17.754   9.328   5.357  0.00  0.00    +0.120 A 
BRANCH  28   4
ATOM      4  O   UNL     1      19.073   9.480   5.056  0.00  0.00    -0.495 OA
ATOM     32  C   UNL     1      19.786   8.312   4.656  0.00  0.00    +0.277 C 
ENDBRANCH  28   4
ENDBRANCH  18  20
TORSDOF 3
ENDMDL
MODEL 5
REMARK VINA RESULT:      -7.0      4.324      8.785
REMARK  Name = 11885132
REMARK  4 active torsions:
REMARK  status: ('A' for Active; 'I' for Inactive)
REMARK    1  A    between atoms: O_4  and  C_28
REMARK    2  A    between atoms: O_4  and  C_32
REMARK    3  A    between atoms: N_7  and  C_21
REMARK    4  A    between atoms: C_18  and  C_20
REMARK                            x       y       z     vdW  Elec       q    Type
REMARK                         _______ _______ _______ _____ _____    ______ ____
ROOT
ATOM      2  O   UNL     1      12.059   7.400   2.146  0.00  0.00    -0.267 OA
ATOM      3  O   UNL     1       9.829   3.957  -1.945  0.00  0.00    -0.252 OA
ATOM      5  N   UNL     1      12.057   4.579  -2.005  0.00  0.00    -0.284 N 
ATOM      6  N   UNL     1      12.742   5.504   0.974  0.00  0.00    -0.311 N 
ATOM      7  N   UNL     1      10.379   6.069  -2.732  0.00  0.00    -0.269 N 
ATOM      8  C   UNL     1      14.163   5.634  -1.151  0.00  0.00    +0.027 C 
ATOM      9  C   UNL     1      13.458   3.445  -0.288  0.00  0.00    +0.054 C 
ATOM     10  C   UNL     1      14.669   4.260  -0.736  0.00  0.00    +0.018 C 
ATOM     11  C   UNL     1      13.142   5.527  -2.302  0.00  0.00    +0.114 C 
ATOM     12  C   UNL     1      13.564   6.329   0.080  0.00  0.00    +0.130 C 
ATOM     13  C   UNL     1      12.494   3.281  -1.476  0.00  0.00    +0.119 C 
ATOM     14  C   UNL     1      12.740   4.111   0.870  0.00  0.00    +0.027 A 
ATOM     15  C   UNL     1      12.078   3.368   1.773  0.00  0.00    +0.022 A 
ATOM     16  C   UNL     1      12.050   6.176   2.000  0.00  0.00    +0.259 A 
ATOM     17  C   UNL     1      10.679   4.813  -2.204  0.00  0.00    +0.306 C 
ATOM     18  C   UNL     1      11.284   5.321   2.971  0.00  0.00    +0.047 A 
ATOM     19  C   UNL     1      11.335   3.987   2.833  0.00  0.00    +0.015 A 
ATOM     33  H   UNL     1      11.075   6.525  -3.312  0.00  0.00    +0.156 HD
ENDROOT
BRANCH   7  21
ATOM      1 CL   UNL     1       5.314   9.081  -2.149  0.00  0.00    -0.084 Cl
ATOM     21  C   UNL     1       9.167   6.789  -2.593  0.00  0.00    +0.035 A 
ATOM     26  C   UNL     1       8.067   6.450  -3.375  0.00  0.00    +0.025 A 
ATOM     27  C   UNL     1       9.084   7.832  -1.673  0.00  0.00    +0.025 A 
ATOM     29  C   UNL     1       6.873   7.160  -3.238  0.00  0.00    +0.022 A 
ATOM     30  C   UNL     1       7.890   8.541  -1.537  0.00  0.00    +0.022 A 
ATOM     31  C   UNL     1       6.786   8.205  -2.318  0.00  0.00    +0.041 A 
ENDBRANCH   7  21
BRANCH  18  20
ATOM     20  C   UNL     1      10.480   5.922   4.050  0.00  0.00    -0.012 A 
ATOM     22  C   UNL     1      10.939   5.884   5.366  0.00  0.00    +0.012 A 
ATOM     23  C   UNL     1       9.259   6.530   3.755  0.00  0.00    +0.012 A 
ATOM     24  C   UNL     1      10.178   6.454   6.387  0.00  0.00    +0.046 A 
ATOM     25  C   UNL     1       8.498   7.100   4.776  0.00  0.00    +0.046 A 
ATOM     28  C   UNL     1       8.957   7.061   6.093  0.00  0.00    +0.120 A 
BRANCH  28   4
ATOM      4  O   UNL     1       8.214   7.616   7.089  0.00  0.00    -0.495 OA
ATOM     32  C   UNL     1       8.918   8.325   8.106  0.00  0.00    +0.277 C 
ENDBRANCH  28   4
ENDBRANCH  18  20
TORSDOF 3
ENDMDL
MODEL 6
REMARK VINA RESULT:      -6.9     15.222     19.387
REMARK  Name = 11885132
REMARK  4 active torsions:
REMARK  status: ('A' for Active; 'I' for Inactive)
REMARK    1  A    between atoms: O_4  and  C_28
REMARK    2  A    between atoms: O_4  and  C_32
REMARK    3  A    between atoms: N_7  and  C_21
REMARK    4  A    between atoms: C_18  and  C_20
REMARK                            x       y       z     vdW  Elec       q    Type
REMARK                         _______ _______ _______ _____ _____    ______ ____
ROOT
ATOM      2  O   UNL     1      16.076  11.710  19.575  0.00  0.00    -0.267 OA
ATOM      3  O   UNL     1      12.365   8.104  22.179  0.00  0.00    -0.252 OA
ATOM      5  N   UNL     1      12.475   8.227  19.871  0.00  0.00    -0.284 N 
ATOM      6  N   UNL     1      15.323   9.529  19.244  0.00  0.00    -0.311 N 
ATOM      7  N   UNL     1      11.315   9.870  21.103  0.00  0.00    -0.269 N 
ATOM      8  C   UNL     1      13.394   8.962  17.659  0.00  0.00    +0.027 C 
ATOM      9  C   UNL     1      14.512   7.168  18.909  0.00  0.00    +0.054 C 
ATOM     10  C   UNL     1      14.087   7.615  17.513  0.00  0.00    +0.018 C 
ATOM     11  C   UNL     1      12.161   8.856  18.579  0.00  0.00    +0.114 C 
ATOM     12  C   UNL     1      14.412   9.983  18.185  0.00  0.00    +0.130 C 
ATOM     13  C   UNL     1      13.260   6.988  19.784  0.00  0.00    +0.119 C 
ATOM     14  C   UNL     1      15.449   8.173  19.552  0.00  0.00    +0.027 A 
ATOM     15  C   UNL     1      16.374   7.765  20.437  0.00  0.00    +0.022 A 
ATOM     16  C   UNL     1      16.133  10.510  19.848  0.00  0.00    +0.259 A 
ATOM     17  C   UNL     1      12.074   8.701  21.139  0.00  0.00    +0.306 C 
ATOM     18  C   UNL     1      17.131  10.029  20.866  0.00  0.00    +0.047 A 
ATOM     19  C   UNL     1      17.220   8.712  21.106  0.00  0.00    +0.015 A 
ATOM     33  H   UNL     1      10.757  10.055  20.276  0.00  0.00    +0.156 HD
ENDROOT
BRANCH   7  21
ATOM      1 CL   UNL     1      10.773  13.922  25.388  0.00  0.00    -0.084 Cl
ATOM     21  C   UNL     1      11.186  10.840  22.128  0.00  0.00    +0.035 A 
ATOM     26  C   UNL     1      11.229  12.194  21.809  0.00  0.00    +0.025 A 
ATOM     27  C   UNL     1      11.016  10.432  23.449  0.00  0.00    +0.025 A 
ATOM     29  C   UNL     1      11.101  13.148  22.819  0.00  0.00    +0.022 A 
ATOM     30  C   UNL     1      10.888  11.387  24.457  0.00  0.00    +0.022 A 
ATOM     31  C   UNL     1      10.931  12.744  24.142  0.00  0.00    +0.041 A 
ENDBRANCH   7  21
BRANCH  18  20
ATOM     20  C   UNL     1      17.990  10.975  21.599  0.00  0.00    -0.012 A 
ATOM     22  C   UNL     1      17.497  11.638  22.723  0.00  0.00    +0.012 A 
ATOM     23  C   UNL     1      19.297  11.209  21.170  0.00  0.00    +0.012 A 
ATOM     24  C   UNL     1      18.310  12.534  23.417  0.00  0.00    +0.046 A 
ATOM     25  C   UNL     1      20.110  12.105  21.864  0.00  0.00    +0.046 A 
ATOM     28  C   UNL     1      19.616  12.768  22.988  0.00  0.00    +0.120 A 
BRANCH  28   4
ATOM      4  O   UNL     1      20.409  13.642  23.665  0.00  0.00    -0.495 OA
ATOM     32  C   UNL     1      19.827  14.324  24.774  0.00  0.00    +0.277 C 
ENDBRANCH  28   4
ENDBRANCH  18  20
TORSDOF 3
ENDMDL
MODEL 7
REMARK VINA RESULT:      -6.9     15.503     18.386
REMARK  Name = 11885132
REMARK  4 active torsions:
REMARK  status: ('A' for Active; 'I' for Inactive)
REMARK    1  A    between atoms: O_4  and  C_28
REMARK    2  A    between atoms: O_4  and  C_32
REMARK    3  A    between atoms: N_7  and  C_21
REMARK    4  A    between atoms: C_18  and  C_20
REMARK                            x       y       z     vdW  Elec       q    Type
REMARK                         _______ _______ _______ _____ _____    ______ ____
ROOT
ATOM      2  O   UNL     1      14.762  10.844  22.698  0.00  0.00    -0.267 OA
ATOM      3  O   UNL     1      14.894   7.294  18.123  0.00  0.00    -0.252 OA
ATOM      5  N   UNL     1      13.156   7.198  19.647  0.00  0.00    -0.284 N 
ATOM      6  N   UNL     1      13.221  10.009  21.160  0.00  0.00    -0.311 N 
ATOM      7  N   UNL     1      15.234   6.196  20.138  0.00  0.00    -0.269 N 
ATOM      8  C   UNL     1      11.801   7.931  21.622  0.00  0.00    +0.027 C 
ATOM      9  C   UNL     1      11.573   9.112  19.481  0.00  0.00    +0.054 C 
ATOM     10  C   UNL     1      10.794   8.573  20.678  0.00  0.00    +0.018 C 
ATOM     11  C   UNL     1      12.561   6.784  20.927  0.00  0.00    +0.114 C 
ATOM     12  C   UNL     1      12.753   9.018  22.137  0.00  0.00    +0.130 C 
ATOM     13  C   UNL     1      12.255   7.939  18.755  0.00  0.00    +0.119 C 
ATOM     14  C   UNL     1      12.614  10.128  19.908  0.00  0.00    +0.027 A 
ATOM     15  C   UNL     1      12.974  11.119  19.076  0.00  0.00    +0.022 A 
ATOM     16  C   UNL     1      14.229  10.895  21.588  0.00  0.00    +0.259 A 
ATOM     17  C   UNL     1      14.475   6.925  19.223  0.00  0.00    +0.306 C 
ATOM     18  C   UNL     1      14.641  11.969  20.618  0.00  0.00    +0.047 A 
ATOM     19  C   UNL     1      14.008  12.046  19.437  0.00  0.00    +0.015 A 
ATOM     33  H   UNL     1      14.751   5.570  20.773  0.00  0.00    +0.156 HD
ENDROOT
BRANCH   7  21
ATOM      1 CL   UNL     1      21.133   6.147  20.662  0.00  0.00    -0.084 Cl
ATOM     21  C   UNL     1      16.645   6.185  20.263  0.00  0.00    +0.035 A 
ATOM     26  C   UNL     1      17.255   6.908  21.284  0.00  0.00    +0.025 A 
ATOM     27  C   UNL     1      17.414   5.449  19.364  0.00  0.00    +0.025 A 
ATOM     29  C   UNL     1      18.645   6.896  21.408  0.00  0.00    +0.022 A 
ATOM     30  C   UNL     1      18.803   5.438  19.488  0.00  0.00    +0.022 A 
ATOM     31  C   UNL     1      19.418   6.161  20.509  0.00  0.00    +0.041 A 
ENDBRANCH   7  21
BRANCH  18  20
ATOM     20  C   UNL     1      15.724  12.914  20.940  0.00  0.00    -0.012 A 
ATOM     22  C   UNL     1      17.045  12.598  20.622  0.00  0.00    +0.012 A 
ATOM     23  C   UNL     1      15.430  14.127  21.564  0.00  0.00    +0.012 A 
ATOM     24  C   UNL     1      18.070  13.493  20.928  0.00  0.00    +0.046 A 
ATOM     25  C   UNL     1      16.455  15.022  21.870  0.00  0.00    +0.046 A 
ATOM     28  C   UNL     1      17.776  14.705  21.552  0.00  0.00    +0.120 A 
BRANCH  28   4
ATOM      4  O   UNL     1      18.776  15.578  21.850  0.00  0.00    -0.495 OA
ATOM     32  C   UNL     1      19.933  15.550  21.017  0.00  0.00    +0.277 C 
ENDBRANCH  28   4
ENDBRANCH  18  20
TORSDOF 3
ENDMDL
MODEL 8
REMARK VINA RESULT:      -6.9     25.992     28.740
REMARK  Name = 11885132
REMARK  4 active torsions:
REMARK  status: ('A' for Active; 'I' for Inactive)
REMARK    1  A    between atoms: O_4  and  C_28
REMARK    2  A    between atoms: O_4  and  C_32
REMARK    3  A    between atoms: N_7  and  C_21
REMARK    4  A    between atoms: C_18  and  C_20
REMARK                            x       y       z     vdW  Elec       q    Type
REMARK                         _______ _______ _______ _____ _____    ______ ____
ROOT
ATOM      2  O   UNL     1      -7.528  -8.814  17.139  0.00  0.00    -0.267 OA
ATOM      3  O   UNL     1      -5.305 -12.956  13.754  0.00  0.00    -0.252 OA
ATOM      5  N   UNL     1      -4.296 -12.397  15.760  0.00  0.00    -0.284 N 
ATOM      6  N   UNL     1      -6.566 -10.915  17.447  0.00  0.00    -0.311 N 
ATOM      7  N   UNL     1      -3.985 -11.051  13.848  0.00  0.00    -0.269 N 
ATOM      8  C   UNL     1      -4.080 -11.230  17.967  0.00  0.00    +0.027 C 
ATOM      9  C   UNL     1      -5.541 -13.194  17.763  0.00  0.00    +0.054 C 
ATOM     10  C   UNL     1      -4.525 -12.504  18.670  0.00  0.00    +0.018 C 
ATOM     11  C   UNL     1      -3.439 -11.545  16.600  0.00  0.00    +0.114 C 
ATOM     12  C   UNL     1      -5.290 -10.297  17.829  0.00  0.00    +0.130 C 
ATOM     13  C   UNL     1      -4.857 -13.572  16.438  0.00  0.00    +0.119 C 
ATOM     14  C   UNL     1      -6.736 -12.301  17.488  0.00  0.00    +0.027 A 
ATOM     15  C   UNL     1      -7.944 -12.840  17.254  0.00  0.00    +0.022 A 
ATOM     16  C   UNL     1      -7.630 -10.042  17.148  0.00  0.00    +0.259 A 
ATOM     17  C   UNL     1      -4.589 -12.182  14.395  0.00  0.00    +0.306 C 
ATOM     18  C   UNL     1      -8.961 -10.676  16.849  0.00  0.00    +0.047 A 
ATOM     19  C   UNL     1      -9.068 -12.012  16.923  0.00  0.00    +0.015 A 
ATOM     33  H   UNL     1      -3.111 -10.730  14.250  0.00  0.00    +0.156 HD
ENDROOT
BRANCH   7  21
ATOM      1 CL   UNL     1      -5.846  -7.897   9.193  0.00  0.00    -0.084 Cl
ATOM     21  C   UNL     1      -4.431 -10.296  12.735  0.00  0.00    +0.035 A 
ATOM     26  C   UNL     1      -5.661  -9.647  12.786  0.00  0.00    +0.025 A 
ATOM     27  C   UNL     1      -3.635 -10.209  11.594  0.00  0.00    +0.025 A 
ATOM     29  C   UNL     1      -6.099  -8.904  11.689  0.00  0.00    +0.022 A 
ATOM     30  C   UNL     1      -4.074  -9.466  10.499  0.00  0.00    +0.022 A 
ATOM     31  C   UNL     1      -5.305  -8.814  10.546  0.00  0.00    +0.041 A 
ENDBRANCH   7  21
BRANCH  18  20
ATOM     20  C   UNL     1     -10.128  -9.860  16.469  0.00  0.00    -0.012 A 
ATOM     22  C   UNL     1     -10.344  -9.532  15.131  0.00  0.00    +0.012 A 
ATOM     23  C   UNL     1     -11.017  -9.414  17.448  0.00  0.00    +0.012 A 
ATOM     24  C   UNL     1     -11.449  -8.760  14.772  0.00  0.00    +0.046 A 
ATOM     25  C   UNL     1     -12.121  -8.641  17.089  0.00  0.00    +0.046 A 
ATOM     28  C   UNL     1     -12.337  -8.314  15.750  0.00  0.00    +0.120 A 
BRANCH  28   4
ATOM      4  O   UNL     1     -13.414  -7.559  15.400  0.00  0.00    -0.495 OA
ATOM     32  C   UNL     1     -13.186  -6.172  15.164  0.00  0.00    +0.277 C 
ENDBRANCH  28   4
ENDBRANCH  18  20
TORSDOF 3
ENDMDL
MODEL 9
REMARK VINA RESULT:      -6.9     15.338     19.140
REMARK  Name = 11885132
REMARK  4 active torsions:
REMARK  status: ('A' for Active; 'I' for Inactive)
REMARK    1  A    between atoms: O_4  and  C_28
REMARK    2  A    between atoms: O_4  and  C_32
REMARK    3  A    between atoms: N_7  and  C_21
REMARK    4  A    between atoms: C_18  and  C_20
REMARK                            x       y       z     vdW  Elec       q    Type
REMARK                         _______ _______ _______ _____ _____    ______ ____
ROOT
ATOM      2  O   UNL     1      16.113  10.430  19.727  0.00  0.00    -0.267 OA
ATOM      3  O   UNL     1      11.731   8.107  22.720  0.00  0.00    -0.252 OA
ATOM      5  N   UNL     1      11.577   8.401  20.430  0.00  0.00    -0.284 N 
ATOM      6  N   UNL     1      14.594   8.687  19.424  0.00  0.00    -0.311 N 
ATOM      7  N   UNL     1      11.251  10.221  21.895  0.00  0.00    -0.269 N 
ATOM      8  C   UNL     1      12.402   8.977  18.136  0.00  0.00    +0.027 C 
ATOM      9  C   UNL     1      12.957   6.797  19.120  0.00  0.00    +0.054 C 
ATOM     10  C   UNL     1      12.542   7.493  17.827  0.00  0.00    +0.018 C 
ATOM     11  C   UNL     1      11.343   9.219  19.230  0.00  0.00    +0.114 C 
ATOM     12  C   UNL     1      13.776   9.527  18.540  0.00  0.00    +0.130 C 
ATOM     13  C   UNL     1      11.849   6.982  20.171  0.00  0.00    +0.119 C 
ATOM     14  C   UNL     1      14.267   7.349  19.651  0.00  0.00    +0.027 A 
ATOM     15  C   UNL     1      15.092   6.564  20.364  0.00  0.00    +0.022 A 
ATOM     16  C   UNL     1      15.772   9.264  19.936  0.00  0.00    +0.259 A 
ATOM     17  C   UNL     1      11.540   8.863  21.764  0.00  0.00    +0.306 C 
ATOM     18  C   UNL     1      16.656   8.373  20.766  0.00  0.00    +0.047 A 
ATOM     19  C   UNL     1      16.300   7.091  20.933  0.00  0.00    +0.015 A 
ATOM     33  H   UNL     1      10.693  10.665  21.174  0.00  0.00    +0.156 HD
ENDROOT
BRANCH   7  21
ATOM      1 CL   UNL     1      12.753  13.786  26.378  0.00  0.00    -0.084 Cl
ATOM     21  C   UNL     1      11.611  11.074  22.968  0.00  0.00    +0.035 A 
ATOM     26  C   UNL     1      12.916  11.546  23.069  0.00  0.00    +0.025 A 
ATOM     27  C   UNL     1      10.655  11.435  23.915  0.00  0.00    +0.025 A 
ATOM     29  C   UNL     1      13.270  12.386  24.125  0.00  0.00    +0.022 A 
ATOM     30  C   UNL     1      11.010  12.275  24.970  0.00  0.00    +0.022 A 
ATOM     31  C   UNL     1      12.317  12.750  25.076  0.00  0.00    +0.041 A 
ENDBRANCH   7  21
BRANCH  18  20
ATOM     20  C   UNL     1      17.884   8.889  21.396  0.00  0.00    -0.012 A 
ATOM     22  C   UNL     1      19.053   8.128  21.372  0.00  0.00    +0.012 A 
ATOM     23  C   UNL     1      17.878  10.138  22.019  0.00  0.00    +0.012 A 
ATOM     24  C   UNL     1      20.215   8.616  21.969  0.00  0.00    +0.046 A 
ATOM     25  C   UNL     1      19.041  10.625  22.616  0.00  0.00    +0.046 A 
ATOM     28  C   UNL     1      20.210   9.864  22.591  0.00  0.00    +0.120 A 
BRANCH  28   4
ATOM      4  O   UNL     1      21.344  10.340  23.174  0.00  0.00    -0.495 OA
ATOM     32  C   UNL     1      22.207   9.386  23.790  0.00  0.00    +0.277 C 
ENDBRANCH  28   4
ENDBRANCH  18  20
TORSDOF 3
ENDMDL
MODEL 10
REMARK VINA RESULT:      -6.7     24.614     26.754
REMARK  Name = 11885132
REMARK  4 active torsions:
REMARK  status: ('A' for Active; 'I' for Inactive)
REMARK    1  A    between atoms: O_4  and  C_28
REMARK    2  A    between atoms: O_4  and  C_32
REMARK    3  A    between atoms: N_7  and  C_21
REMARK    4  A    between atoms: C_18  and  C_20
REMARK                            x       y       z     vdW  Elec       q    Type
REMARK                         _______ _______ _______ _____ _____    ______ ____
ROOT
ATOM      2  O   UNL     1      -5.913 -12.384  10.911  0.00  0.00    -0.267 OA
ATOM      3  O   UNL     1      -3.615 -10.131  15.727  0.00  0.00    -0.252 OA
ATOM      5  N   UNL     1      -3.250 -12.346  15.165  0.00  0.00    -0.284 N 
ATOM      6  N   UNL     1      -3.877 -12.523  12.038  0.00  0.00    -0.311 N 
ATOM      7  N   UNL     1      -5.286 -11.682  16.155  0.00  0.00    -0.269 N 
ATOM      8  C   UNL     1      -3.353 -14.386  13.713  0.00  0.00    +0.027 C 
ATOM      9  C   UNL     1      -1.678 -12.648  13.259  0.00  0.00    +0.054 C 
ATOM     10  C   UNL     1      -1.903 -14.157  13.310  0.00  0.00    +0.018 C 
ATOM     11  C   UNL     1      -3.652 -13.759  15.090  0.00  0.00    +0.114 C 
ATOM     12  C   UNL     1      -4.263 -13.816  12.616  0.00  0.00    +0.130 C 
ATOM     13  C   UNL     1      -1.901 -12.057  14.661  0.00  0.00    +0.119 C 
ATOM     14  C   UNL     1      -2.610 -11.982  12.265  0.00  0.00    +0.027 A 
ATOM     15  C   UNL     1      -2.232 -10.859  11.630  0.00  0.00    +0.022 A 
ATOM     16  C   UNL     1      -4.801 -11.918  11.164  0.00  0.00    +0.259 A 
ATOM     17  C   UNL     1      -4.033 -11.291  15.684  0.00  0.00    +0.306 C 
ATOM     18  C   UNL     1      -4.366 -10.640  10.500  0.00  0.00    +0.047 A 
ATOM     19  C   UNL     1      -3.130 -10.178  10.741  0.00  0.00    +0.015 A 
ATOM     33  H   UNL     1      -5.396 -12.631  16.496  0.00  0.00    +0.156 HD
ENDROOT
BRANCH   7  21
ATOM      1 CL   UNL     1     -10.146  -8.330  16.607  0.00  0.00    -0.084 Cl
ATOM     21  C   UNL     1      -6.448 -10.881  16.262  0.00  0.00    +0.035 A 
ATOM     26  C   UNL     1      -7.352 -10.827  15.206  0.00  0.00    +0.025 A 
ATOM     27  C   UNL     1      -6.681 -10.151  17.426  0.00  0.00    +0.025 A 
ATOM     29  C   UNL     1      -8.498 -10.037  15.313  0.00  0.00    +0.022 A 
ATOM     30  C   UNL     1      -7.825  -9.362  17.532  0.00  0.00    +0.022 A 
ATOM     31  C   UNL     1      -8.733  -9.304  16.476  0.00  0.00    +0.041 A 
ENDBRANCH   7  21
BRANCH  18  20
ATOM     20  C   UNL     1      -5.274  -9.894   9.611  0.00  0.00    -0.012 A 
ATOM     22  C   UNL     1      -5.325 -10.199   8.251  0.00  0.00    +0.012 A 
ATOM     23  C   UNL     1      -6.083  -8.881  10.128  0.00  0.00    +0.012 A 
ATOM     24  C   UNL     1      -6.184  -9.493   7.409  0.00  0.00    +0.046 A 
ATOM     25  C   UNL     1      -6.942  -8.175   9.286  0.00  0.00    +0.046 A 
ATOM     28  C   UNL     1      -6.992  -8.481   7.925  0.00  0.00    +0.120 A 
BRANCH  28   4
ATOM      4  O   UNL     1      -7.830  -7.792   7.104  0.00  0.00    -0.495 OA
ATOM     32  C   UNL     1      -8.391  -6.584   7.614  0.00  0.00    +0.277 C 
ENDBRANCH  28   4
ENDBRANCH  18  20
TORSDOF 3
ENDMDL
