MODEL 1
REMARK VINA RESULT:      -8.0      0.000      0.000
REMARK  Name = 75536768
REMARK  6 active torsions:
REMARK  status: ('A' for Active; 'I' for Inactive)
REMARK    1  A    between atoms: O_4  and  C_11
REMARK    2  A    between atoms: N_6  and  C_9
REMARK    3  A    between atoms: N_6  and  C_10
REMARK    4  A    between atoms: N_7  and  C_19
REMARK    5  A    between atoms: N_8  and  C_21
REMARK    6  A    between atoms: C_14  and  C_19
REMARK                            x       y       z     vdW  Elec       q    Type
REMARK                         _______ _______ _______ _____ _____    ______ ____
ROOT
ATOM      3  O   UNL     1      17.713   6.601  21.615  0.00  0.00    -0.371 OA
ATOM     10  C   UNL     1      16.136   6.286  19.868  0.00  0.00    +0.111 C 
ATOM     11  C   UNL     1      17.535   6.269  19.280  0.00  0.00    +0.164 C 
ATOM     14  C   UNL     1      18.367   5.947  20.515  0.00  0.00    +0.165 C 
ATOM     15  C   UNL     1      16.380   6.959  21.209  0.00  0.00    +0.181 C 
ENDROOT
BRANCH  11   4
ATOM      4  O   UNL     1      17.691   5.291  18.270  0.00  0.00    -0.388 OA
ATOM     28  H   UNL     1      17.745   4.418  18.695  0.00  0.00    +0.210 HD
ENDBRANCH  11   4
BRANCH  10   6
ATOM      6  N   UNL     1      15.168   6.995  19.047  0.00  0.00    -0.306 NA
ATOM     27  H   UNL     1      14.758   6.363  18.361  0.00  0.00    +0.123 HD
BRANCH   6   9
ATOM      1  F   UNL     1      10.447   9.211  20.988  0.00  0.00    -0.206 F 
ATOM      2  F   UNL     1      10.863   8.580  18.950  0.00  0.00    -0.206 F 
ATOM      9  C   UNL     1      14.117   7.581  19.877  0.00  0.00    +0.054 C 
ATOM     12  C   UNL     1      13.756   8.976  19.351  0.00  0.00    +0.024 C 
ATOM     13  C   UNL     1      12.891   6.660  19.891  0.00  0.00    +0.024 C 
ATOM     16  C   UNL     1      12.609   9.591  20.151  0.00  0.00    +0.077 C 
ATOM     17  C   UNL     1      11.744   7.273  20.691  0.00  0.00    +0.077 C 
ATOM     18  C   UNL     1      11.403   8.669  20.193  0.00  0.00    +0.249 C 
ENDBRANCH   6   9
ENDBRANCH  10   6
BRANCH  14  19
ATOM     19  C   UNL     1      19.804   6.428  20.412  0.00  0.00    +0.140 C 
BRANCH  19   7
ATOM      5  O   UNL     1      21.184   4.943  22.436  0.00  0.00    -0.253 OA
ATOM      7  N   UNL     1      20.707   5.333  20.206  0.00  0.00    -0.297 N 
ATOM      8  N   UNL     1      22.167   3.636  20.751  0.00  0.00    -0.269 N 
ATOM     20  C   UNL     1      21.349   4.653  21.253  0.00  0.00    +0.304 C 
ATOM     29  H   UNL     1      20.901   5.046  19.252  0.00  0.00    +0.150 HD
ATOM     30  H   UNL     1      22.190   3.526  19.741  0.00  0.00    +0.156 HD
BRANCH   8  21
ATOM     21  C   UNL     1      22.974   2.732  21.481  0.00  0.00    +0.035 A 
ATOM     22  C   UNL     1      22.895   2.696  22.874  0.00  0.00    +0.023 A 
ATOM     23  C   UNL     1      23.845   1.875  20.809  0.00  0.00    +0.023 A 
ATOM     24  C   UNL     1      23.691   1.805  23.594  0.00  0.00    +0.002 A 
ATOM     25  C   UNL     1      24.641   0.984  21.530  0.00  0.00    +0.002 A 
ATOM     26  C   UNL     1      24.562   0.948  22.922  0.00  0.00    +0.000 A 
ENDBRANCH   8  21
ENDBRANCH  19   7
ENDBRANCH  14  19
TORSDOF 6
ENDMDL
MODEL 2
REMARK VINA RESULT:      -8.0      5.010     10.533
REMARK  Name = 75536768
REMARK  6 active torsions:
REMARK  status: ('A' for Active; 'I' for Inactive)
REMARK    1  A    between atoms: O_4  and  C_11
REMARK    2  A    between atoms: N_6  and  C_9
REMARK    3  A    between atoms: N_6  and  C_10
REMARK    4  A    between atoms: N_7  and  C_19
REMARK    5  A    between atoms: N_8  and  C_21
REMARK    6  A    between atoms: C_14  and  C_19
REMARK                            x       y       z     vdW  Elec       q    Type
REMARK                         _______ _______ _______ _____ _____    ______ ____
ROOT
ATOM      3  O   UNL     1      12.120   6.993  19.147  0.00  0.00    -0.371 OA
ATOM     10  C   UNL     1      14.361   6.951  19.932  0.00  0.00    +0.111 C 
ATOM     11  C   UNL     1      13.508   7.733  20.913  0.00  0.00    +0.164 C 
ATOM     14  C   UNL     1      12.117   7.219  20.566  0.00  0.00    +0.165 C 
ATOM     15  C   UNL     1      13.484   6.966  18.690  0.00  0.00    +0.181 C 
ENDROOT
BRANCH  11   4
ATOM      4  O   UNL     1      13.847   7.470  22.261  0.00  0.00    -0.388 OA
ATOM     28  H   UNL     1      13.871   6.507  22.388  0.00  0.00    +0.210 HD
ENDBRANCH  11   4
BRANCH  10   6
ATOM      6  N   UNL     1      15.673   7.534  19.705  0.00  0.00    -0.306 NA
ATOM     27  H   UNL     1      15.708   8.480  20.082  0.00  0.00    +0.123 HD
BRANCH   6   9
ATOM      1  F   UNL     1      20.502   5.313  21.352  0.00  0.00    -0.206 F 
ATOM      2  F   UNL     1      20.221   7.036  20.056  0.00  0.00    -0.206 F 
ATOM      9  C   UNL     1      16.718   6.715  20.316  0.00  0.00    +0.054 C 
ATOM     12  C   UNL     1      17.569   6.057  19.223  0.00  0.00    +0.024 C 
ATOM     13  C   UNL     1      17.580   7.579  21.245  0.00  0.00    +0.024 C 
ATOM     16  C   UNL     1      18.717   5.248  19.825  0.00  0.00    +0.077 C 
ATOM     17  C   UNL     1      18.727   6.771  21.849  0.00  0.00    +0.077 C 
ATOM     18  C   UNL     1      19.556   6.092  20.770  0.00  0.00    +0.249 C 
ENDBRANCH   6   9
ENDBRANCH  10   6
BRANCH  14  19
ATOM     19  C   UNL     1      11.010   8.193  20.929  0.00  0.00    +0.140 C 
BRANCH  19   7
ATOM      5  O   UNL     1      11.258  10.949  21.669  0.00  0.00    -0.253 OA
ATOM      7  N   UNL     1      11.185   8.712  22.255  0.00  0.00    -0.297 N 
ATOM      8  N   UNL     1      11.461  10.288  23.912  0.00  0.00    -0.269 N 
ATOM     20  C   UNL     1      11.300  10.083  22.539  0.00  0.00    +0.304 C 
ATOM     29  H   UNL     1      11.242   8.052  23.024  0.00  0.00    +0.150 HD
ATOM     30  H   UNL     1      11.473   9.458  24.500  0.00  0.00    +0.156 HD
BRANCH   8  21
ATOM     21  C   UNL     1      11.609  11.519  24.594  0.00  0.00    +0.035 A 
ATOM     22  C   UNL     1      12.856  11.893  25.094  0.00  0.00    +0.023 A 
ATOM     23  C   UNL     1      10.508  12.359  24.765  0.00  0.00    +0.023 A 
ATOM     24  C   UNL     1      13.003  13.107  25.766  0.00  0.00    +0.002 A 
ATOM     25  C   UNL     1      10.655  13.573  25.437  0.00  0.00    +0.002 A 
ATOM     26  C   UNL     1      11.903  13.946  25.937  0.00  0.00    +0.000 A 
ENDBRANCH   8  21
ENDBRANCH  19   7
ENDBRANCH  14  19
TORSDOF 6
ENDMDL
MODEL 3
REMARK VINA RESULT:      -7.6      4.198      6.238
REMARK  Name = 75536768
REMARK  6 active torsions:
REMARK  status: ('A' for Active; 'I' for Inactive)
REMARK    1  A    between atoms: O_4  and  C_11
REMARK    2  A    between atoms: N_6  and  C_9
REMARK    3  A    between atoms: N_6  and  C_10
REMARK    4  A    between atoms: N_7  and  C_19
REMARK    5  A    between atoms: N_8  and  C_21
REMARK    6  A    between atoms: C_14  and  C_19
REMARK                            x       y       z     vdW  Elec       q    Type
REMARK                         _______ _______ _______ _____ _____    ______ ____
ROOT
ATOM      3  O   UNL     1      14.408  12.785  21.882  0.00  0.00    -0.371 OA
ATOM     10  C   UNL     1      13.057  11.306  23.158  0.00  0.00    +0.111 C 
ATOM     11  C   UNL     1      14.514  11.067  23.505  0.00  0.00    +0.164 C 
ATOM     14  C   UNL     1      15.143  12.377  23.048  0.00  0.00    +0.165 C 
ATOM     15  C   UNL     1      13.178  12.040  21.833  0.00  0.00    +0.181 C 
ENDROOT
BRANCH  11   4
ATOM      4  O   UNL     1      14.717  10.838  24.886  0.00  0.00    -0.388 OA
ATOM     28  H   UNL     1      15.640  11.056  25.100  0.00  0.00    +0.210 HD
ENDBRANCH  11   4
BRANCH  10   6
ATOM      6  N   UNL     1      12.273  10.086  23.059  0.00  0.00    -0.306 NA
ATOM     27  H   UNL     1      11.286  10.287  23.217  0.00  0.00    +0.123 HD
BRANCH   6   9
ATOM      1  F   UNL     1      12.347   6.602  18.721  0.00  0.00    -0.206 F 
ATOM      2  F   UNL     1      11.583   6.202  20.716  0.00  0.00    -0.206 F 
ATOM      9  C   UNL     1      12.451   9.461  21.750  0.00  0.00    +0.054 C 
ATOM     12  C   UNL     1      13.369   8.238  21.878  0.00  0.00    +0.024 C 
ATOM     13  C   UNL     1      11.085   9.071  21.170  0.00  0.00    +0.024 C 
ATOM     16  C   UNL     1      13.520   7.516  20.540  0.00  0.00    +0.077 C 
ATOM     17  C   UNL     1      11.235   8.350  19.832  0.00  0.00    +0.077 C 
ATOM     18  C   UNL     1      12.169   7.155  19.947  0.00  0.00    +0.249 C 
ENDBRANCH   6   9
ENDBRANCH  10   6
BRANCH  14  19
ATOM     19  C   UNL     1      16.617  12.249  22.708  0.00  0.00    +0.140 C 
BRANCH  19   7
ATOM      5  O   UNL     1      17.124  10.440  20.546  0.00  0.00    -0.253 OA
ATOM      7  N   UNL     1      17.061  10.889  22.814  0.00  0.00    -0.297 N 
ATOM      8  N   UNL     1      17.713   8.794  22.112  0.00  0.00    -0.269 N 
ATOM     20  C   UNL     1      17.288  10.061  21.703  0.00  0.00    +0.304 C 
ATOM     29  H   UNL     1      17.205  10.504  23.742  0.00  0.00    +0.150 HD
ATOM     30  H   UNL     1      17.799   8.643  23.114  0.00  0.00    +0.156 HD
BRANCH   8  21
ATOM     21  C   UNL     1      18.043   7.685  21.298  0.00  0.00    +0.035 A 
ATOM     22  C   UNL     1      17.127   7.214  20.358  0.00  0.00    +0.023 A 
ATOM     23  C   UNL     1      19.284   7.064  21.435  0.00  0.00    +0.023 A 
ATOM     24  C   UNL     1      17.451   6.120  19.555  0.00  0.00    +0.002 A 
ATOM     25  C   UNL     1      19.609   5.970  20.631  0.00  0.00    +0.002 A 
ATOM     26  C   UNL     1      18.692   5.499  19.691  0.00  0.00    +0.000 A 
ENDBRANCH   8  21
ENDBRANCH  19   7
ENDBRANCH  14  19
TORSDOF 6
ENDMDL
MODEL 4
REMARK VINA RESULT:      -7.6     30.398     33.320
REMARK  Name = 75536768
REMARK  6 active torsions:
REMARK  status: ('A' for Active; 'I' for Inactive)
REMARK    1  A    between atoms: O_4  and  C_11
REMARK    2  A    between atoms: N_6  and  C_9
REMARK    3  A    between atoms: N_6  and  C_10
REMARK    4  A    between atoms: N_7  and  C_19
REMARK    5  A    between atoms: N_8  and  C_21
REMARK    6  A    between atoms: C_14  and  C_19
REMARK                            x       y       z     vdW  Elec       q    Type
REMARK                         _______ _______ _______ _____ _____    ______ ____
ROOT
ATOM      3  O   UNL     1     -16.826   4.411  22.652  0.00  0.00    -0.371 OA
ATOM     10  C   UNL     1     -14.683   5.370  22.292  0.00  0.00    +0.111 C 
ATOM     11  C   UNL     1     -14.794   4.937  23.742  0.00  0.00    +0.164 C 
ATOM     14  C   UNL     1     -15.925   3.921  23.658  0.00  0.00    +0.165 C 
ATOM     15  C   UNL     1     -16.145   5.415  21.878  0.00  0.00    +0.181 C 
ENDROOT
BRANCH  11   4
ATOM      4  O   UNL     1     -13.600   4.358  24.232  0.00  0.00    -0.388 OA
ATOM     28  H   UNL     1     -13.285   4.894  24.979  0.00  0.00    +0.210 HD
ENDBRANCH  11   4
BRANCH  10   6
ATOM      6  N   UNL     1     -14.006   6.644  22.114  0.00  0.00    -0.306 NA
ATOM     27  H   UNL     1     -13.263   6.747  22.803  0.00  0.00    +0.123 HD
BRANCH   6   9
ATOM      1  F   UNL     1     -11.526   8.342  17.430  0.00  0.00    -0.206 F 
ATOM      2  F   UNL     1     -11.750   9.461  19.281  0.00  0.00    -0.206 F 
ATOM      9  C   UNL     1     -13.453   6.752  20.765  0.00  0.00    +0.054 C 
ATOM     12  C   UNL     1     -14.139   7.899  20.012  0.00  0.00    +0.024 C 
ATOM     13  C   UNL     1     -11.936   6.968  20.840  0.00  0.00    +0.024 C 
ATOM     16  C   UNL     1     -13.536   8.088  18.621  0.00  0.00    +0.077 C 
ATOM     17  C   UNL     1     -11.332   7.156  19.450  0.00  0.00    +0.077 C 
ATOM     18  C   UNL     1     -12.030   8.272  18.688  0.00  0.00    +0.249 C 
ENDBRANCH   6   9
ENDBRANCH  10   6
BRANCH  14  19
ATOM     19  C   UNL     1     -16.669   3.742  24.970  0.00  0.00    +0.140 C 
BRANCH  19   7
ATOM      5  O   UNL     1     -17.241   2.747  27.594  0.00  0.00    -0.253 OA
ATOM      7  N   UNL     1     -15.763   3.683  26.080  0.00  0.00    -0.297 N 
ATOM      8  N   UNL     1     -15.035   3.248  28.222  0.00  0.00    -0.269 N 
ATOM     20  C   UNL     1     -16.119   3.180  27.342  0.00  0.00    +0.304 C 
ATOM     29  H   UNL     1     -14.821   4.035  25.949  0.00  0.00    +0.150 HD
ATOM     30  H   UNL     1     -14.171   3.635  27.853  0.00  0.00    +0.156 HD
BRANCH   8  21
ATOM     21  C   UNL     1     -14.991   2.842  29.577  0.00  0.00    +0.035 A 
ATOM     22  C   UNL     1     -15.147   3.785  30.593  0.00  0.00    +0.023 A 
ATOM     23  C   UNL     1     -14.792   1.499  29.896  0.00  0.00    +0.023 A 
ATOM     24  C   UNL     1     -15.103   3.385  31.929  0.00  0.00    +0.002 A 
ATOM     25  C   UNL     1     -14.748   1.099  31.233  0.00  0.00    +0.002 A 
ATOM     26  C   UNL     1     -14.905   2.042  32.248  0.00  0.00    +0.000 A 
ENDBRANCH   8  21
ENDBRANCH  19   7
ENDBRANCH  14  19
TORSDOF 6
ENDMDL
MODEL 5
REMARK VINA RESULT:      -7.5      7.172     10.195
REMARK  Name = 75536768
REMARK  6 active torsions:
REMARK  status: ('A' for Active; 'I' for Inactive)
REMARK    1  A    between atoms: O_4  and  C_11
REMARK    2  A    between atoms: N_6  and  C_9
REMARK    3  A    between atoms: N_6  and  C_10
REMARK    4  A    between atoms: N_7  and  C_19
REMARK    5  A    between atoms: N_8  and  C_21
REMARK    6  A    between atoms: C_14  and  C_19
REMARK                            x       y       z     vdW  Elec       q    Type
REMARK                         _______ _______ _______ _____ _____    ______ ____
ROOT
ATOM      3  O   UNL     1      11.396   7.674  19.367  0.00  0.00    -0.371 OA
ATOM     10  C   UNL     1      13.564   7.700  18.397  0.00  0.00    +0.111 C 
ATOM     11  C   UNL     1      13.671   7.225  19.834  0.00  0.00    +0.164 C 
ATOM     14  C   UNL     1      12.241   6.771  20.100  0.00  0.00    +0.165 C 
ATOM     15  C   UNL     1      12.201   8.374  18.403  0.00  0.00    +0.181 C 
ENDROOT
BRANCH  11   4
ATOM      4  O   UNL     1      14.597   6.168  19.992  0.00  0.00    -0.388 OA
ATOM     28  H   UNL     1      15.471   6.552  20.178  0.00  0.00    +0.210 HD
ENDBRANCH  11   4
BRANCH  10   6
ATOM      6  N   UNL     1      14.636   8.595  17.997  0.00  0.00    -0.306 NA
ATOM     27  H   UNL     1      15.269   8.122  17.353  0.00  0.00    +0.123 HD
BRANCH   6   9
ATOM      1  F   UNL     1      13.939  13.389  15.258  0.00  0.00    -0.206 F 
ATOM      2  F   UNL     1      15.801  12.311  15.571  0.00  0.00    -0.206 F 
ATOM      9  C   UNL     1      14.098   9.802  17.373  0.00  0.00    +0.054 C 
ATOM     12  C   UNL     1      14.733  11.045  18.009  0.00  0.00    +0.024 C 
ATOM     13  C   UNL     1      14.352   9.762  15.860  0.00  0.00    +0.024 C 
ATOM     16  C   UNL     1      14.247  12.325  17.331  0.00  0.00    +0.077 C 
ATOM     17  C   UNL     1      13.865  11.041  15.181  0.00  0.00    +0.077 C 
ATOM     18  C   UNL     1      14.468  12.277  15.828  0.00  0.00    +0.249 C 
ENDBRANCH   6   9
ENDBRANCH  10   6
BRANCH  14  19
ATOM     19  C   UNL     1      11.867   6.798  21.571  0.00  0.00    +0.140 C 
BRANCH  19   7
ATOM      5  O   UNL     1      10.139   8.954  22.326  0.00  0.00    -0.253 OA
ATOM      7  N   UNL     1      12.257   8.034  22.187  0.00  0.00    -0.297 N 
ATOM      8  N   UNL     1      12.014  10.130  23.110  0.00  0.00    -0.269 N 
ATOM     20  C   UNL     1      11.348   9.048  22.528  0.00  0.00    +0.304 C 
ATOM     29  H   UNL     1      13.243   8.186  22.372  0.00  0.00    +0.150 HD
ATOM     30  H   UNL     1      13.022  10.047  23.207  0.00  0.00    +0.156 HD
BRANCH   8  21
ATOM     21  C   UNL     1      11.453  11.339  23.588  0.00  0.00    +0.035 A 
ATOM     22  C   UNL     1      11.255  11.522  24.956  0.00  0.00    +0.023 A 
ATOM     23  C   UNL     1      11.101  12.346  22.690  0.00  0.00    +0.023 A 
ATOM     24  C   UNL     1      10.703  12.713  25.428  0.00  0.00    +0.002 A 
ATOM     25  C   UNL     1      10.548  13.538  23.162  0.00  0.00    +0.002 A 
ATOM     26  C   UNL     1      10.350  13.721  24.531  0.00  0.00    +0.000 A 
ENDBRANCH   8  21
ENDBRANCH  19   7
ENDBRANCH  14  19
TORSDOF 6
ENDMDL
MODEL 6
REMARK VINA RESULT:      -7.5      5.944     10.928
REMARK  Name = 75536768
REMARK  6 active torsions:
REMARK  status: ('A' for Active; 'I' for Inactive)
REMARK    1  A    between atoms: O_4  and  C_11
REMARK    2  A    between atoms: N_6  and  C_9
REMARK    3  A    between atoms: N_6  and  C_10
REMARK    4  A    between atoms: N_7  and  C_19
REMARK    5  A    between atoms: N_8  and  C_21
REMARK    6  A    between atoms: C_14  and  C_19
REMARK                            x       y       z     vdW  Elec       q    Type
REMARK                         _______ _______ _______ _____ _____    ______ ____
ROOT
ATOM      3  O   UNL     1      10.614   8.528  19.934  0.00  0.00    -0.371 OA
ATOM     10  C   UNL     1      12.389   7.031  19.436  0.00  0.00    +0.111 C 
ATOM     11  C   UNL     1      12.214   7.106  20.941  0.00  0.00    +0.164 C 
ATOM     14  C   UNL     1      10.788   7.632  21.044  0.00  0.00    +0.165 C 
ATOM     15  C   UNL     1      11.669   8.291  18.985  0.00  0.00    +0.181 C 
ENDROOT
BRANCH  11   4
ATOM      4  O   UNL     1      12.359   5.849  21.572  0.00  0.00    -0.388 OA
ATOM     28  H   UNL     1      12.396   5.163  20.883  0.00  0.00    +0.210 HD
ENDBRANCH  11   4
BRANCH  10   6
ATOM      6  N   UNL     1      13.779   6.991  19.012  0.00  0.00    -0.306 NA
ATOM     27  H   UNL     1      13.921   7.606  18.212  0.00  0.00    +0.123 HD
BRANCH   6   9
ATOM      1  F   UNL     1      18.153   8.291  22.197  0.00  0.00    -0.206 F 
ATOM      2  F   UNL     1      18.179   7.692  20.107  0.00  0.00    -0.206 F 
ATOM      9  C   UNL     1      14.665   7.383  20.106  0.00  0.00    +0.054 C 
ATOM     12  C   UNL     1      15.635   6.239  20.426  0.00  0.00    +0.024 C 
ATOM     13  C   UNL     1      15.423   8.663  19.729  0.00  0.00    +0.024 C 
ATOM     16  C   UNL     1      16.625   6.640  21.518  0.00  0.00    +0.077 C 
ATOM     17  C   UNL     1      16.413   9.065  20.820  0.00  0.00    +0.077 C 
ATOM     18  C   UNL     1      17.356   7.924  21.162  0.00  0.00    +0.249 C 
ENDBRANCH   6   9
ENDBRANCH  10   6
BRANCH  14  19
ATOM     19  C   UNL     1      10.510   8.364  22.344  0.00  0.00    +0.140 C 
BRANCH  19   7
ATOM      5  O   UNL     1      11.205  10.357  24.282  0.00  0.00    -0.253 OA
ATOM      7  N   UNL     1      10.505   9.786  22.152  0.00  0.00    -0.297 N 
ATOM      8  N   UNL     1      10.760  12.014  22.680  0.00  0.00    -0.269 N 
ATOM     20  C   UNL     1      10.859  10.703  23.154  0.00  0.00    +0.304 C 
ATOM     29  H   UNL     1      10.217  10.146  21.247  0.00  0.00    +0.150 HD
ATOM     30  H   UNL     1      10.458  12.129  21.716  0.00  0.00    +0.156 HD
BRANCH   8  21
ATOM     21  C   UNL     1      11.030  13.213  23.380  0.00  0.00    +0.035 A 
ATOM     22  C   UNL     1      12.284  13.814  23.274  0.00  0.00    +0.023 A 
ATOM     23  C   UNL     1      10.043  13.794  24.175  0.00  0.00    +0.023 A 
ATOM     24  C   UNL     1      12.552  14.997  23.964  0.00  0.00    +0.002 A 
ATOM     25  C   UNL     1      10.310  14.977  24.866  0.00  0.00    +0.002 A 
ATOM     26  C   UNL     1      11.565  15.578  24.759  0.00  0.00    +0.000 A 
ENDBRANCH   8  21
ENDBRANCH  19   7
ENDBRANCH  14  19
TORSDOF 6
ENDMDL
MODEL 7
REMARK VINA RESULT:      -7.2     33.184     35.814
REMARK  Name = 75536768
REMARK  6 active torsions:
REMARK  status: ('A' for Active; 'I' for Inactive)
REMARK    1  A    between atoms: O_4  and  C_11
REMARK    2  A    between atoms: N_6  and  C_9
REMARK    3  A    between atoms: N_6  and  C_10
REMARK    4  A    between atoms: N_7  and  C_19
REMARK    5  A    between atoms: N_8  and  C_21
REMARK    6  A    between atoms: C_14  and  C_19
REMARK                            x       y       z     vdW  Elec       q    Type
REMARK                         _______ _______ _______ _____ _____    ______ ____
ROOT
ATOM      3  O   UNL     1      -2.301 -15.656  -1.330  0.00  0.00    -0.371 OA
ATOM     10  C   UNL     1      -1.280 -14.199   0.242  0.00  0.00    +0.111 C 
ATOM     11  C   UNL     1      -2.001 -13.370  -0.804  0.00  0.00    +0.164 C 
ATOM     14  C   UNL     1      -2.984 -14.392  -1.360  0.00  0.00    +0.165 C 
ATOM     15  C   UNL     1      -1.158 -15.538  -0.466  0.00  0.00    +0.181 C 
ENDROOT
BRANCH  11   4
ATOM      4  O   UNL     1      -2.663 -12.248  -0.251  0.00  0.00    -0.388 OA
ATOM     28  H   UNL     1      -3.172 -12.544   0.522  0.00  0.00    +0.210 HD
ENDBRANCH  11   4
BRANCH  10   6
ATOM      6  N   UNL     1       0.006 -13.648   0.637  0.00  0.00    -0.306 NA
ATOM     27  H   UNL     1       0.102 -13.670   1.652  0.00  0.00    +0.123 HD
BRANCH   6   9
ATOM      1  F   UNL     1       4.906 -15.317  -1.406  0.00  0.00    -0.206 F 
ATOM      2  F   UNL     1       4.458 -13.417  -0.449  0.00  0.00    -0.206 F 
ATOM      9  C   UNL     1       1.101 -14.393   0.017  0.00  0.00    +0.054 C 
ATOM     12  C   UNL     1       1.619 -13.631  -1.210  0.00  0.00    +0.024 C 
ATOM     13  C   UNL     1       2.220 -14.622   1.041  0.00  0.00    +0.024 C 
ATOM     16  C   UNL     1       2.812 -14.345  -1.843  0.00  0.00    +0.077 C 
ATOM     17  C   UNL     1       3.413 -15.336   0.409  0.00  0.00    +0.077 C 
ATOM     18  C   UNL     1       3.911 -14.601  -0.825  0.00  0.00    +0.249 C 
ENDBRANCH   6   9
ENDBRANCH  10   6
BRANCH  14  19
ATOM     19  C   UNL     1      -3.431 -14.083  -2.778  0.00  0.00    +0.140 C 
BRANCH  19   7
ATOM      5  O   UNL     1      -1.264 -14.770  -4.520  0.00  0.00    -0.253 OA
ATOM      7  N   UNL     1      -2.529 -13.173  -3.424  0.00  0.00    -0.297 N 
ATOM      8  N   UNL     1      -0.776 -12.485  -4.750  0.00  0.00    -0.269 N 
ATOM     20  C   UNL     1      -1.486 -13.588  -4.267  0.00  0.00    +0.304 C 
ATOM     29  H   UNL     1      -2.645 -12.180  -3.251  0.00  0.00    +0.150 HD
ATOM     30  H   UNL     1      -1.091 -11.569  -4.443  0.00  0.00    +0.156 HD
BRANCH   8  21
ATOM     21  C   UNL     1       0.339 -12.485  -5.623  0.00  0.00    +0.035 A 
ATOM     22  C   UNL     1       0.146 -12.350  -6.997  0.00  0.00    +0.023 A 
ATOM     23  C   UNL     1       1.627 -12.619  -5.108  0.00  0.00    +0.023 A 
ATOM     24  C   UNL     1       1.245 -12.350  -7.858  0.00  0.00    +0.002 A 
ATOM     25  C   UNL     1       2.726 -12.618  -5.969  0.00  0.00    +0.002 A 
ATOM     26  C   UNL     1       2.534 -12.483  -7.344  0.00  0.00    +0.000 A 
ENDBRANCH   8  21
ENDBRANCH  19   7
ENDBRANCH  14  19
TORSDOF 6
ENDMDL
MODEL 8
REMARK VINA RESULT:      -7.1     27.311     29.768
REMARK  Name = 75536768
REMARK  6 active torsions:
REMARK  status: ('A' for Active; 'I' for Inactive)
REMARK    1  A    between atoms: O_4  and  C_11
REMARK    2  A    between atoms: N_6  and  C_9
REMARK    3  A    between atoms: N_6  and  C_10
REMARK    4  A    between atoms: N_7  and  C_19
REMARK    5  A    between atoms: N_8  and  C_21
REMARK    6  A    between atoms: C_14  and  C_19
REMARK                            x       y       z     vdW  Elec       q    Type
REMARK                         _______ _______ _______ _____ _____    ______ ____
ROOT
ATOM      3  O   UNL     1      -7.615 -11.669  17.150  0.00  0.00    -0.371 OA
ATOM     10  C   UNL     1      -5.367 -10.981  17.491  0.00  0.00    +0.111 C 
ATOM     11  C   UNL     1      -5.972 -10.156  16.371  0.00  0.00    +0.164 C 
ATOM     14  C   UNL     1      -7.459 -10.331  16.649  0.00  0.00    +0.165 C 
ATOM     15  C   UNL     1      -6.323 -12.162  17.546  0.00  0.00    +0.181 C 
ENDROOT
BRANCH  11   4
ATOM      4  O   UNL     1      -5.582  -8.797  16.423  0.00  0.00    -0.388 OA
ATOM     28  H   UNL     1      -5.903  -8.356  15.618  0.00  0.00    +0.210 HD
ENDBRANCH  11   4
BRANCH  10   6
ATOM      6  N   UNL     1      -3.991 -11.379  17.246  0.00  0.00    -0.306 NA
ATOM     27  H   UNL     1      -3.848 -12.348  17.524  0.00  0.00    +0.123 HD
BRANCH   6   9
ATOM      1  F   UNL     1      -1.625 -11.611  12.214  0.00  0.00    -0.206 F 
ATOM      2  F   UNL     1      -0.972 -12.625  14.022  0.00  0.00    -0.206 F 
ATOM      9  C   UNL     1      -3.647 -11.210  15.835  0.00  0.00    +0.054 C 
ATOM     12  C   UNL     1      -2.255 -10.578  15.710  0.00  0.00    +0.024 C 
ATOM     13  C   UNL     1      -3.706 -12.566  15.119  0.00  0.00    +0.024 C 
ATOM     16  C   UNL     1      -1.832 -10.452  14.247  0.00  0.00    +0.077 C 
ATOM     17  C   UNL     1      -3.285 -12.441  13.657  0.00  0.00    +0.077 C 
ATOM     18  C   UNL     1      -1.919 -11.787  13.526  0.00  0.00    +0.249 C 
ENDBRANCH   6   9
ENDBRANCH  10   6
BRANCH  14  19
ATOM     19  C   UNL     1      -8.326 -10.140  15.417  0.00  0.00    +0.140 C 
BRANCH  19   7
ATOM      5  O   UNL     1      -6.848 -11.143  13.177  0.00  0.00    -0.253 OA
ATOM      7  N   UNL     1      -7.650  -9.362  14.418  0.00  0.00    -0.297 N 
ATOM      8  N   UNL     1      -6.391  -8.930  12.538  0.00  0.00    -0.269 N 
ATOM     20  C   UNL     1      -6.943  -9.929  13.346  0.00  0.00    +0.304 C 
ATOM     29  H   UNL     1      -7.675  -8.351  14.501  0.00  0.00    +0.150 HD
ATOM     30  H   UNL     1      -6.564  -7.969  12.819  0.00  0.00    +0.156 HD
BRANCH   8  21
ATOM     21  C   UNL     1      -5.613  -9.092  11.367  0.00  0.00    +0.035 A 
ATOM     22  C   UNL     1      -6.163  -8.797  10.120  0.00  0.00    +0.023 A 
ATOM     23  C   UNL     1      -4.298  -9.547  11.460  0.00  0.00    +0.023 A 
ATOM     24  C   UNL     1      -5.397  -8.956   8.964  0.00  0.00    +0.002 A 
ATOM     25  C   UNL     1      -3.532  -9.706  10.304  0.00  0.00    +0.002 A 
ATOM     26  C   UNL     1      -4.082  -9.410   9.057  0.00  0.00    +0.000 A 
ENDBRANCH   8  21
ENDBRANCH  19   7
ENDBRANCH  14  19
TORSDOF 6
ENDMDL
MODEL 9
REMARK VINA RESULT:      -7.1     29.389     31.792
REMARK  Name = 75536768
REMARK  6 active torsions:
REMARK  status: ('A' for Active; 'I' for Inactive)
REMARK    1  A    between atoms: O_4  and  C_11
REMARK    2  A    between atoms: N_6  and  C_9
REMARK    3  A    between atoms: N_6  and  C_10
REMARK    4  A    between atoms: N_7  and  C_19
REMARK    5  A    between atoms: N_8  and  C_21
REMARK    6  A    between atoms: C_14  and  C_19
REMARK                            x       y       z     vdW  Elec       q    Type
REMARK                         _______ _______ _______ _____ _____    ______ ____
ROOT
ATOM      3  O   UNL     1     -12.331  -8.423  15.416  0.00  0.00    -0.371 OA
ATOM     10  C   UNL     1     -11.958  -6.310  14.398  0.00  0.00    +0.111 C 
ATOM     11  C   UNL     1     -11.144  -6.393  15.676  0.00  0.00    +0.164 C 
ATOM     14  C   UNL     1     -11.075  -7.901  15.881  0.00  0.00    +0.165 C 
ATOM     15  C   UNL     1     -12.977  -7.417  14.616  0.00  0.00    +0.181 C 
ENDROOT
BRANCH  11   4
ATOM      4  O   UNL     1      -9.858  -5.819  15.542  0.00  0.00    -0.388 OA
ATOM     28  H   UNL     1      -9.754  -5.510  14.627  0.00  0.00    +0.210 HD
ENDBRANCH  11   4
BRANCH  10   6
ATOM      6  N   UNL     1     -12.572  -5.010  14.182  0.00  0.00    -0.306 NA
ATOM     27  H   UNL     1     -11.898  -4.267  14.361  0.00  0.00    +0.123 HD
BRANCH   6   9
ATOM      1  F   UNL     1     -14.969  -3.332   9.448  0.00  0.00    -0.206 F 
ATOM      2  F   UNL     1     -14.863  -2.243  11.327  0.00  0.00    -0.206 F 
ATOM      9  C   UNL     1     -13.084  -4.900  12.817  0.00  0.00    +0.054 C 
ATOM     12  C   UNL     1     -14.611  -4.758  12.843  0.00  0.00    +0.024 C 
ATOM     13  C   UNL     1     -12.428  -3.706  12.111  0.00  0.00    +0.024 C 
ATOM     16  C   UNL     1     -15.175  -4.568  11.436  0.00  0.00    +0.077 C 
ATOM     17  C   UNL     1     -12.990  -3.516  10.703  0.00  0.00    +0.077 C 
ATOM     18  C   UNL     1     -14.506  -3.405  10.721  0.00  0.00    +0.249 C 
ENDBRANCH   6   9
ENDBRANCH  10   6
BRANCH  14  19
ATOM     19  C   UNL     1     -10.857  -8.300  17.329  0.00  0.00    +0.140 C 
BRANCH  19   7
ATOM      5  O   UNL     1      -9.186 -10.624  17.450  0.00  0.00    -0.253 OA
ATOM      7  N   UNL     1      -9.460  -8.336  17.657  0.00  0.00    -0.297 N 
ATOM      8  N   UNL     1      -7.380  -9.246  18.044  0.00  0.00    -0.269 N 
ATOM     20  C   UNL     1      -8.706  -9.520  17.696  0.00  0.00    +0.304 C 
ATOM     29  H   UNL     1      -8.999  -7.461  17.884  0.00  0.00    +0.150 HD
ATOM     30  H   UNL     1      -7.144  -8.273  18.215  0.00  0.00    +0.156 HD
BRANCH   8  21
ATOM     21  C   UNL     1      -6.314 -10.166  18.187  0.00  0.00    +0.035 A 
ATOM     22  C   UNL     1      -6.169 -10.884  19.374  0.00  0.00    +0.023 A 
ATOM     23  C   UNL     1      -5.410 -10.354  17.142  0.00  0.00    +0.023 A 
ATOM     24  C   UNL     1      -5.117 -11.791  19.517  0.00  0.00    +0.002 A 
ATOM     25  C   UNL     1      -4.359 -11.261  17.285  0.00  0.00    +0.002 A 
ATOM     26  C   UNL     1      -4.214 -11.979  18.472  0.00  0.00    +0.000 A 
ENDBRANCH   8  21
ENDBRANCH  19   7
ENDBRANCH  14  19
TORSDOF 6
ENDMDL
MODEL 10
REMARK VINA RESULT:      -7.1     15.293     17.824
REMARK  Name = 75536768
REMARK  6 active torsions:
REMARK  status: ('A' for Active; 'I' for Inactive)
REMARK    1  A    between atoms: O_4  and  C_11
REMARK    2  A    between atoms: N_6  and  C_9
REMARK    3  A    between atoms: N_6  and  C_10
REMARK    4  A    between atoms: N_7  and  C_19
REMARK    5  A    between atoms: N_8  and  C_21
REMARK    6  A    between atoms: C_14  and  C_19
REMARK                            x       y       z     vdW  Elec       q    Type
REMARK                         _______ _______ _______ _____ _____    ______ ____
ROOT
ATOM      3  O   UNL     1      12.271   8.932   4.728  0.00  0.00    -0.371 OA
ATOM     10  C   UNL     1      11.128   7.139   5.786  0.00  0.00    +0.111 C 
ATOM     11  C   UNL     1      12.614   6.835   5.766  0.00  0.00    +0.164 C 
ATOM     14  C   UNL     1      13.196   8.229   5.574  0.00  0.00    +0.165 C 
ATOM     15  C   UNL     1      11.025   8.213   4.715  0.00  0.00    +0.181 C 
ENDROOT
BRANCH  11   4
ATOM      4  O   UNL     1      13.065   6.236   6.966  0.00  0.00    -0.388 OA
ATOM     28  H   UNL     1      13.612   5.465   6.736  0.00  0.00    +0.210 HD
ENDBRANCH  11   4
BRANCH  10   6
ATOM      6  N   UNL     1      10.292   5.983   5.510  0.00  0.00    -0.306 NA
ATOM     27  H   UNL     1      10.866   5.199   5.200  0.00  0.00    +0.123 HD
BRANCH   6   9
ATOM      1  F   UNL     1       8.622   4.725  10.667  0.00  0.00    -0.206 F 
ATOM      2  F   UNL     1      10.619   5.309  10.037  0.00  0.00    -0.206 F 
ATOM      9  C   UNL     1       9.527   5.601   6.696  0.00  0.00    +0.054 C 
ATOM     12  C   UNL     1      10.115   4.323   7.306  0.00  0.00    +0.024 C 
ATOM     13  C   UNL     1       9.531   6.753   7.710  0.00  0.00    +0.024 C 
ATOM     16  C   UNL     1       9.383   3.934   8.590  0.00  0.00    +0.077 C 
ATOM     17  C   UNL     1       8.800   6.365   8.994  0.00  0.00    +0.077 C 
ATOM     18  C   UNL     1       9.358   5.081   9.585  0.00  0.00    +0.249 C 
ENDBRANCH   6   9
ENDBRANCH  10   6
BRANCH  14  19
ATOM     19  C   UNL     1      14.573   8.222   4.934  0.00  0.00    +0.140 C 
BRANCH  19   7
ATOM      5  O   UNL     1      13.940   7.675   2.195  0.00  0.00    -0.253 OA
ATOM      7  N   UNL     1      14.814   6.997   4.227  0.00  0.00    -0.297 N 
ATOM      8  N   UNL     1      14.825   5.517   2.461  0.00  0.00    -0.269 N 
ATOM     20  C   UNL     1      14.473   6.804   2.878  0.00  0.00    +0.304 C 
ATOM     29  H   UNL     1      15.240   6.228   4.733  0.00  0.00    +0.150 HD
ATOM     30  H   UNL     1      15.261   4.916   3.155  0.00  0.00    +0.156 HD
BRANCH   8  21
ATOM     21  C   UNL     1      14.649   4.942   1.181  0.00  0.00    +0.035 A 
ATOM     22  C   UNL     1      15.707   4.925   0.273  0.00  0.00    +0.023 A 
ATOM     23  C   UNL     1      13.418   4.390   0.827  0.00  0.00    +0.023 A 
ATOM     24  C   UNL     1      15.534   4.358  -0.990  0.00  0.00    +0.002 A 
ATOM     25  C   UNL     1      13.245   3.822  -0.436  0.00  0.00    +0.002 A 
ATOM     26  C   UNL     1      14.304   3.806  -1.344  0.00  0.00    +0.000 A 
ENDBRANCH   8  21
ENDBRANCH  19   7
ENDBRANCH  14  19
TORSDOF 6
ENDMDL
