MODEL 1
REMARK VINA RESULT:      -6.7      0.000      0.000
REMARK  Name = 51137879
REMARK  4 active torsions:
REMARK  status: ('A' for Active; 'I' for Inactive)
REMARK    1  A    between atoms: N_1  and  C_9
REMARK    2  A    between atoms: N_2  and  C_13
REMARK    3  A    between atoms: C_4  and  C_8
REMARK    4  A    between atoms: C_9  and  C_11
REMARK                            x       y       z     vdW  Elec       q    Type
REMARK                         _______ _______ _______ _____ _____    ______ ____
ROOT
ATOM      1  N   UNL     1      11.161  10.475  22.669  0.00  0.00    -0.297 NA
ATOM      4  C   UNL     1      12.484   9.556  20.964  0.00  0.00    +0.070 C 
ATOM      5  C   UNL     1      11.161   8.777  21.066  0.00  0.00    +0.028 C 
ATOM      6  C   UNL     1      12.565  10.355  22.271  0.00  0.00    +0.096 C 
ATOM      7  C   UNL     1      10.586   9.152  22.426  0.00  0.00    +0.085 C 
ENDROOT
BRANCH   4   8
ATOM      2  N   UNL     1      13.943   8.102  19.513  0.00  0.00    -0.330 N 
ATOM      3  N   UNL     1      14.653   8.443  21.591  0.00  0.00    -0.232 NA
ATOM      8  C   UNL     1      13.706   8.703  20.717  0.00  0.00    +0.115 A 
ATOM     10  C   UNL     1      15.121   7.408  19.615  0.00  0.00    +0.069 A 
ATOM     12  C   UNL     1      15.545   7.636  20.922  0.00  0.00    +0.089 A 
ATOM     13  C   UNL     1      13.105   8.181  18.337  0.00  0.00    +0.150 C 
ATOM     14  C   UNL     1      15.832   6.624  18.705  0.00  0.00    +0.028 A 
ATOM     15  C   UNL     1      16.745   7.056  21.365  0.00  0.00    +0.030 A 
ATOM     18  C   UNL     1      17.025   6.054  19.163  0.00  0.00    +0.002 A 
ATOM     19  C   UNL     1      17.475   6.265  20.468  0.00  0.00    +0.002 A 
ENDBRANCH   4   8
BRANCH   1   9
ATOM      9  C   UNL     1      11.009  10.899  24.052  0.00  0.00    +0.119 C 
BRANCH   9  11
ATOM     11  C   UNL     1      10.733  12.375  24.159  0.00  0.00    -0.033 A 
ATOM     16  C   UNL     1      10.745  12.999  25.406  0.00  0.00    +0.005 A 
ATOM     17  C   UNL     1      10.465  13.120  23.010  0.00  0.00    +0.005 A 
ATOM     20  C   UNL     1      10.488  14.367  25.504  0.00  0.00    +0.000 A 
ATOM     21  C   UNL     1      10.209  14.487  23.108  0.00  0.00    +0.000 A 
ATOM     22  C   UNL     1      10.220  15.110  24.355  0.00  0.00    +0.000 A 
ENDBRANCH   9  11
ENDBRANCH   1   9
TORSDOF 3
ENDMDL
MODEL 2
REMARK VINA RESULT:      -6.6      1.152      8.239
REMARK  Name = 51137879
REMARK  4 active torsions:
REMARK  status: ('A' for Active; 'I' for Inactive)
REMARK    1  A    between atoms: N_1  and  C_9
REMARK    2  A    between atoms: N_2  and  C_13
REMARK    3  A    between atoms: C_4  and  C_8
REMARK    4  A    between atoms: C_9  and  C_11
REMARK                            x       y       z     vdW  Elec       q    Type
REMARK                         _______ _______ _______ _____ _____    ______ ____
ROOT
ATOM      1  N   UNL     1      13.309   8.877  20.590  0.00  0.00    -0.297 NA
ATOM      4  C   UNL     1      12.121  10.142  22.167  0.00  0.00    +0.070 C 
ATOM      5  C   UNL     1      11.194   9.075  21.559  0.00  0.00    +0.028 C 
ATOM      6  C   UNL     1      13.322  10.201  21.214  0.00  0.00    +0.096 C 
ATOM      7  C   UNL     1      11.901   8.614  20.292  0.00  0.00    +0.085 C 
ENDROOT
BRANCH   4   8
ATOM      2  N   UNL     1      11.091  11.919  23.628  0.00  0.00    -0.330 N 
ATOM      3  N   UNL     1      11.220  12.384  21.459  0.00  0.00    -0.232 NA
ATOM      8  C   UNL     1      11.477  11.491  22.389  0.00  0.00    +0.115 A 
ATOM     10  C   UNL     1      10.548  13.170  23.489  0.00  0.00    +0.069 A 
ATOM     12  C   UNL     1      10.639  13.438  22.126  0.00  0.00    +0.089 A 
ATOM     13  C   UNL     1      11.227  11.186  24.867  0.00  0.00    +0.150 C 
ATOM     14  C   UNL     1      10.001  14.064  24.411  0.00  0.00    +0.028 A 
ATOM     15  C   UNL     1      10.163  14.664  21.635  0.00  0.00    +0.030 A 
ATOM     18  C   UNL     1       9.530  15.280  23.905  0.00  0.00    +0.002 A 
ATOM     19  C   UNL     1       9.610  15.577  22.542  0.00  0.00    +0.002 A 
ENDBRANCH   4   8
BRANCH   1   9
ATOM      9  C   UNL     1      14.148   8.813  19.403  0.00  0.00    +0.119 C 
BRANCH   9  11
ATOM     11  C   UNL     1      15.390   7.995  19.639  0.00  0.00    -0.033 A 
ATOM     16  C   UNL     1      15.577   6.796  18.952  0.00  0.00    +0.005 A 
ATOM     17  C   UNL     1      16.356   8.437  20.544  0.00  0.00    +0.005 A 
ATOM     20  C   UNL     1      16.728   6.039  19.170  0.00  0.00    +0.000 A 
ATOM     21  C   UNL     1      17.506   7.681  20.762  0.00  0.00    +0.000 A 
ATOM     22  C   UNL     1      17.692   6.481  20.076  0.00  0.00    +0.000 A 
ENDBRANCH   9  11
ENDBRANCH   1   9
TORSDOF 3
ENDMDL
MODEL 3
REMARK VINA RESULT:      -6.4     16.808     20.160
REMARK  Name = 51137879
REMARK  4 active torsions:
REMARK  status: ('A' for Active; 'I' for Inactive)
REMARK    1  A    between atoms: N_1  and  C_9
REMARK    2  A    between atoms: N_2  and  C_13
REMARK    3  A    between atoms: C_4  and  C_8
REMARK    4  A    between atoms: C_9  and  C_11
REMARK                            x       y       z     vdW  Elec       q    Type
REMARK                         _______ _______ _______ _____ _____    ______ ____
ROOT
ATOM      1  N   UNL     1      10.604   5.806   4.431  0.00  0.00    -0.297 NA
ATOM      4  C   UNL     1      11.814   4.957   2.611  0.00  0.00    +0.070 C 
ATOM      5  C   UNL     1      12.240   6.411   2.879  0.00  0.00    +0.028 C 
ATOM      6  C   UNL     1      10.499   4.789   3.383  0.00  0.00    +0.096 C 
ATOM      7  C   UNL     1      11.137   6.989   3.757  0.00  0.00    +0.085 C 
ENDROOT
BRANCH   4   8
ATOM      2  N   UNL     1      12.647   3.864   0.499  0.00  0.00    -0.330 N 
ATOM      3  N   UNL     1      10.692   4.910   0.358  0.00  0.00    -0.232 NA
ATOM      8  C   UNL     1      11.691   4.590   1.150  0.00  0.00    +0.115 A 
ATOM     10  C   UNL     1      12.240   3.704  -0.800  0.00  0.00    +0.069 A 
ATOM     12  C   UNL     1      11.017   4.366  -0.864  0.00  0.00    +0.089 A 
ATOM     13  C   UNL     1      13.873   3.353   1.072  0.00  0.00    +0.150 C 
ATOM     14  C   UNL     1      12.818   3.056  -1.893  0.00  0.00    +0.028 A 
ATOM     15  C   UNL     1      10.315   4.394  -2.080  0.00  0.00    +0.030 A 
ATOM     18  C   UNL     1      12.106   3.094  -3.096  0.00  0.00    +0.002 A 
ATOM     19  C   UNL     1      10.876   3.750  -3.190  0.00  0.00    +0.002 A 
ENDBRANCH   4   8
BRANCH   1   9
ATOM      9  C   UNL     1       9.328   6.067   5.082  0.00  0.00    +0.119 C 
BRANCH   9  11
ATOM     11  C   UNL     1       9.372   5.743   6.552  0.00  0.00    -0.033 A 
ATOM     16  C   UNL     1       9.002   6.706   7.490  0.00  0.00    +0.005 A 
ATOM     17  C   UNL     1       9.784   4.479   6.976  0.00  0.00    +0.005 A 
ATOM     20  C   UNL     1       9.043   6.406   8.852  0.00  0.00    +0.000 A 
ATOM     21  C   UNL     1       9.825   4.180   8.337  0.00  0.00    +0.000 A 
ATOM     22  C   UNL     1       9.455   5.143   9.275  0.00  0.00    +0.000 A 
ENDBRANCH   9  11
ENDBRANCH   1   9
TORSDOF 3
ENDMDL
MODEL 4
REMARK VINA RESULT:      -6.2     18.625     21.075
REMARK  Name = 51137879
REMARK  4 active torsions:
REMARK  status: ('A' for Active; 'I' for Inactive)
REMARK    1  A    between atoms: N_1  and  C_9
REMARK    2  A    between atoms: N_2  and  C_13
REMARK    3  A    between atoms: C_4  and  C_8
REMARK    4  A    between atoms: C_9  and  C_11
REMARK                            x       y       z     vdW  Elec       q    Type
REMARK                         _______ _______ _______ _____ _____    ______ ____
ROOT
ATOM      1  N   UNL     1      -1.489  10.406   5.596  0.00  0.00    -0.297 NA
ATOM      4  C   UNL     1      -0.760  12.168   6.960  0.00  0.00    +0.070 C 
ATOM      5  C   UNL     1      -0.416  12.477   5.492  0.00  0.00    +0.028 C 
ATOM      6  C   UNL     1      -1.078  10.667   6.977  0.00  0.00    +0.096 C 
ATOM      7  C   UNL     1      -0.530  11.140   4.771  0.00  0.00    +0.085 C 
ENDROOT
BRANCH   4   8
ATOM      2  N   UNL     1       0.003  13.014   9.208  0.00  0.00    -0.330 N 
ATOM      3  N   UNL     1       1.605  12.502   7.756  0.00  0.00    -0.232 NA
ATOM      8  C   UNL     1       0.307  12.556   7.957  0.00  0.00    +0.115 A 
ATOM     10  C   UNL     1       1.182  13.275   9.857  0.00  0.00    +0.069 A 
ATOM     12  C   UNL     1       2.168  12.947   8.930  0.00  0.00    +0.089 A 
ATOM     13  C   UNL     1      -1.323  13.195   9.754  0.00  0.00    +0.150 C 
ATOM     14  C   UNL     1       1.464  13.754  11.137  0.00  0.00    +0.028 A 
ATOM     15  C   UNL     1       3.519  13.100   9.282  0.00  0.00    +0.030 A 
ATOM     18  C   UNL     1       2.814  13.900  11.472  0.00  0.00    +0.002 A 
ATOM     19  C   UNL     1       3.825  13.579  10.562  0.00  0.00    +0.002 A 
ENDBRANCH   4   8
BRANCH   1   9
ATOM      9  C   UNL     1      -1.515   8.985   5.283  0.00  0.00    +0.119 C 
BRANCH   9  11
ATOM     11  C   UNL     1      -2.907   8.504   4.971  0.00  0.00    -0.033 A 
ATOM     16  C   UNL     1      -3.301   7.219   5.341  0.00  0.00    +0.005 A 
ATOM     17  C   UNL     1      -3.804   9.345   4.311  0.00  0.00    +0.005 A 
ATOM     20  C   UNL     1      -4.591   6.774   5.052  0.00  0.00    +0.000 A 
ATOM     21  C   UNL     1      -5.093   8.901   4.022  0.00  0.00    +0.000 A 
ATOM     22  C   UNL     1      -5.487   7.615   4.392  0.00  0.00    +0.000 A 
ENDBRANCH   9  11
ENDBRANCH   1   9
TORSDOF 3
ENDMDL
MODEL 5
REMARK VINA RESULT:      -6.2     27.123     29.514
REMARK  Name = 51137879
REMARK  4 active torsions:
REMARK  status: ('A' for Active; 'I' for Inactive)
REMARK    1  A    between atoms: N_1  and  C_9
REMARK    2  A    between atoms: N_2  and  C_13
REMARK    3  A    between atoms: C_4  and  C_8
REMARK    4  A    between atoms: C_9  and  C_11
REMARK                            x       y       z     vdW  Elec       q    Type
REMARK                         _______ _______ _______ _____ _____    ______ ____
ROOT
ATOM      1  N   UNL     1      -4.260 -10.641  14.739  0.00  0.00    -0.297 NA
ATOM      4  C   UNL     1      -5.617 -10.143  16.585  0.00  0.00    +0.070 C 
ATOM      5  C   UNL     1      -4.167 -10.352  17.054  0.00  0.00    +0.028 C 
ATOM      6  C   UNL     1      -5.656 -10.732  15.169  0.00  0.00    +0.096 C 
ATOM      7  C   UNL     1      -3.479 -11.069  15.899  0.00  0.00    +0.085 C 
ENDROOT
BRANCH   4   8
ATOM      2  N   UNL     1      -7.887 -10.133  17.680  0.00  0.00    -0.330 N 
ATOM      3  N   UNL     1      -6.554 -11.834  18.197  0.00  0.00    -0.232 NA
ATOM      8  C   UNL     1      -6.670 -10.727  17.497  0.00  0.00    +0.115 A 
ATOM     10  C   UNL     1      -8.604 -10.905  18.557  0.00  0.00    +0.069 A 
ATOM     12  C   UNL     1      -7.750 -11.961  18.866  0.00  0.00    +0.089 A 
ATOM     13  C   UNL     1      -8.342  -8.907  17.063  0.00  0.00    +0.150 C 
ATOM     14  C   UNL     1      -9.887 -10.776  19.091  0.00  0.00    +0.028 A 
ATOM     15  C   UNL     1      -8.185 -12.956  19.757  0.00  0.00    +0.030 A 
ATOM     18  C   UNL     1     -10.303 -11.775  19.977  0.00  0.00    +0.002 A 
ATOM     19  C   UNL     1      -9.469 -12.846  20.305  0.00  0.00    +0.002 A 
ENDBRANCH   4   8
BRANCH   1   9
ATOM      9  C   UNL     1      -3.988 -11.449  13.560  0.00  0.00    +0.119 C 
BRANCH   9  11
ATOM     11  C   UNL     1      -3.738 -10.598  12.343  0.00  0.00    -0.033 A 
ATOM     16  C   UNL     1      -2.432 -10.334  11.931  0.00  0.00    +0.005 A 
ATOM     17  C   UNL     1      -4.814 -10.074  11.625  0.00  0.00    +0.005 A 
ATOM     20  C   UNL     1      -2.202  -9.546  10.804  0.00  0.00    +0.000 A 
ATOM     21  C   UNL     1      -4.584  -9.286  10.498  0.00  0.00    +0.000 A 
ATOM     22  C   UNL     1      -3.277  -9.021  10.088  0.00  0.00    +0.000 A 
ENDBRANCH   9  11
ENDBRANCH   1   9
TORSDOF 3
ENDMDL
MODEL 6
REMARK VINA RESULT:      -6.1     27.387     29.947
REMARK  Name = 51137879
REMARK  4 active torsions:
REMARK  status: ('A' for Active; 'I' for Inactive)
REMARK    1  A    between atoms: N_1  and  C_9
REMARK    2  A    between atoms: N_2  and  C_13
REMARK    3  A    between atoms: C_4  and  C_8
REMARK    4  A    between atoms: C_9  and  C_11
REMARK                            x       y       z     vdW  Elec       q    Type
REMARK                         _______ _______ _______ _____ _____    ______ ____
ROOT
ATOM      1  N   UNL     1      -4.960 -11.151  17.607  0.00  0.00    -0.297 NA
ATOM      4  C   UNL     1      -6.870 -10.306  18.672  0.00  0.00    +0.070 C 
ATOM      5  C   UNL     1      -5.870 -10.807  19.729  0.00  0.00    +0.028 C 
ATOM      6  C   UNL     1      -6.384 -10.923  17.354  0.00  0.00    +0.096 C 
ATOM      7  C   UNL     1      -4.899 -11.696  18.963  0.00  0.00    +0.085 C 
ENDROOT
BRANCH   4   8
ATOM      2  N   UNL     1      -9.346  -9.953  18.362  0.00  0.00    -0.330 N 
ATOM      3  N   UNL     1      -8.752 -11.526  19.814  0.00  0.00    -0.232 NA
ATOM      8  C   UNL     1      -8.318 -10.617  18.970  0.00  0.00    +0.115 A 
ATOM     10  C   UNL     1     -10.521 -10.466  18.846  0.00  0.00    +0.069 A 
ATOM     12  C   UNL     1     -10.125 -11.446  19.751  0.00  0.00    +0.089 A 
ATOM     13  C   UNL     1      -9.221  -8.896  17.383  0.00  0.00    +0.150 C 
ATOM     14  C   UNL     1     -11.858 -10.166  18.577  0.00  0.00    +0.028 A 
ATOM     15  C   UNL     1     -11.104 -12.181  20.439  0.00  0.00    +0.030 A 
ATOM     18  C   UNL     1     -12.820 -10.908  19.271  0.00  0.00    +0.002 A 
ATOM     19  C   UNL     1     -12.453 -11.898  20.185  0.00  0.00    +0.002 A 
ENDBRANCH   4   8
BRANCH   1   9
ATOM      9  C   UNL     1      -4.357 -12.040  16.625  0.00  0.00    +0.119 C 
BRANCH   9  11
ATOM     11  C   UNL     1      -3.336 -11.329  15.777  0.00  0.00    -0.033 A 
ATOM     16  C   UNL     1      -3.550 -11.178  14.408  0.00  0.00    +0.005 A 
ATOM     17  C   UNL     1      -2.175 -10.822  16.361  0.00  0.00    +0.005 A 
ATOM     20  C   UNL     1      -2.603 -10.519  13.622  0.00  0.00    +0.000 A 
ATOM     21  C   UNL     1      -1.229 -10.163  15.577  0.00  0.00    +0.000 A 
ATOM     22  C   UNL     1      -1.443 -10.013  14.207  0.00  0.00    +0.000 A 
ENDBRANCH   9  11
ENDBRANCH   1   9
TORSDOF 3
ENDMDL
MODEL 7
REMARK VINA RESULT:      -6.1     27.465     31.015
REMARK  Name = 51137879
REMARK  4 active torsions:
REMARK  status: ('A' for Active; 'I' for Inactive)
REMARK    1  A    between atoms: N_1  and  C_9
REMARK    2  A    between atoms: N_2  and  C_13
REMARK    3  A    between atoms: C_4  and  C_8
REMARK    4  A    between atoms: C_9  and  C_11
REMARK                            x       y       z     vdW  Elec       q    Type
REMARK                         _______ _______ _______ _____ _____    ______ ____
ROOT
ATOM      1  N   UNL     1       0.906   2.606  -6.615  0.00  0.00    -0.297 NA
ATOM      4  C   UNL     1       1.467   4.840  -6.174  0.00  0.00    +0.070 C 
ATOM      5  C   UNL     1       2.024   4.431  -7.549  0.00  0.00    +0.028 C 
ATOM      6  C   UNL     1       1.119   3.513  -5.486  0.00  0.00    +0.096 C 
ATOM      7  C   UNL     1       1.988   2.909  -7.552  0.00  0.00    +0.085 C 
ENDROOT
BRANCH   4   8
ATOM      2  N   UNL     1       2.328   7.073  -5.385  0.00  0.00    -0.330 N 
ATOM      3  N   UNL     1       3.319   5.280  -4.526  0.00  0.00    -0.232 NA
ATOM      8  C   UNL     1       2.387   5.708  -5.348  0.00  0.00    +0.115 A 
ATOM     10  C   UNL     1       3.285   7.558  -4.532  0.00  0.00    +0.069 A 
ATOM     12  C   UNL     1       3.891   6.419  -4.008  0.00  0.00    +0.089 A 
ATOM     13  C   UNL     1       1.420   7.869  -6.182  0.00  0.00    +0.150 C 
ATOM     14  C   UNL     1       3.662   8.856  -4.183  0.00  0.00    +0.028 A 
ATOM     15  C   UNL     1       4.935   6.563  -3.081  0.00  0.00    +0.030 A 
ATOM     18  C   UNL     1       4.704   8.981  -3.258  0.00  0.00    +0.002 A 
ATOM     19  C   UNL     1       5.330   7.857  -2.715  0.00  0.00    +0.002 A 
ENDBRANCH   4   8
BRANCH   1   9
ATOM      9  C   UNL     1       0.897   1.208  -6.211  0.00  0.00    +0.119 C 
BRANCH   9  11
ATOM     11  C   UNL     1      -0.387   0.522  -6.595  0.00  0.00    -0.033 A 
ATOM     16  C   UNL     1      -0.703  -0.723  -6.051  0.00  0.00    +0.005 A 
ATOM     17  C   UNL     1      -1.262   1.131  -7.496  0.00  0.00    +0.005 A 
ATOM     20  C   UNL     1      -1.893  -1.358  -6.407  0.00  0.00    +0.000 A 
ATOM     21  C   UNL     1      -2.451   0.496  -7.851  0.00  0.00    +0.000 A 
ATOM     22  C   UNL     1      -2.766  -0.749  -7.307  0.00  0.00    +0.000 A 
ENDBRANCH   9  11
ENDBRANCH   1   9
TORSDOF 3
ENDMDL
MODEL 8
REMARK VINA RESULT:      -6.0     15.248     17.922
REMARK  Name = 51137879
REMARK  4 active torsions:
REMARK  status: ('A' for Active; 'I' for Inactive)
REMARK    1  A    between atoms: N_1  and  C_9
REMARK    2  A    between atoms: N_2  and  C_13
REMARK    3  A    between atoms: C_4  and  C_8
REMARK    4  A    between atoms: C_9  and  C_11
REMARK                            x       y       z     vdW  Elec       q    Type
REMARK                         _______ _______ _______ _____ _____    ______ ____
ROOT
ATOM      1  N   UNL     1      16.353   8.793   5.047  0.00  0.00    -0.297 NA
ATOM      4  C   UNL     1      14.327   7.697   4.609  0.00  0.00    +0.070 C 
ATOM      5  C   UNL     1      14.354   9.045   3.866  0.00  0.00    +0.028 C 
ATOM      6  C   UNL     1      15.457   7.800   5.641  0.00  0.00    +0.096 C 
ATOM      7  C   UNL     1      15.469   9.839   4.533  0.00  0.00    +0.085 C 
ENDROOT
BRANCH   4   8
ATOM      2  N   UNL     1      12.017   6.693   4.523  0.00  0.00    -0.330 N 
ATOM      3  N   UNL     1      12.626   7.592   6.462  0.00  0.00    -0.232 NA
ATOM      8  C   UNL     1      12.995   7.339   5.226  0.00  0.00    +0.115 A 
ATOM     10  C   UNL     1      10.945   6.518   5.360  0.00  0.00    +0.069 A 
ATOM     12  C   UNL     1      11.350   7.088   6.564  0.00  0.00    +0.089 A 
ATOM     13  C   UNL     1      12.093   6.269   3.143  0.00  0.00    +0.150 C 
ATOM     14  C   UNL     1       9.694   5.927   5.173  0.00  0.00    +0.028 A 
ATOM     15  C   UNL     1      10.468   7.078   7.657  0.00  0.00    +0.030 A 
ATOM     18  C   UNL     1       8.829   5.926   6.272  0.00  0.00    +0.002 A 
ATOM     19  C   UNL     1       9.207   6.490   7.493  0.00  0.00    +0.002 A 
ENDBRANCH   4   8
BRANCH   1   9
ATOM      9  C   UNL     1      17.324   9.308   6.000  0.00  0.00    +0.119 C 
BRANCH   9  11
ATOM     11  C   UNL     1      18.665   8.639   5.851  0.00  0.00    -0.033 A 
ATOM     16  C   UNL     1      19.013   8.035   4.644  0.00  0.00    +0.005 A 
ATOM     17  C   UNL     1      19.560   8.624   6.921  0.00  0.00    +0.005 A 
ATOM     20  C   UNL     1      20.255   7.415   4.506  0.00  0.00    +0.000 A 
ATOM     21  C   UNL     1      20.802   8.005   6.784  0.00  0.00    +0.000 A 
ATOM     22  C   UNL     1      21.149   7.400   5.576  0.00  0.00    +0.000 A 
ENDBRANCH   9  11
ENDBRANCH   1   9
TORSDOF 3
ENDMDL
MODEL 9
REMARK VINA RESULT:      -5.8     14.483     18.497
REMARK  Name = 51137879
REMARK  4 active torsions:
REMARK  status: ('A' for Active; 'I' for Inactive)
REMARK    1  A    between atoms: N_1  and  C_9
REMARK    2  A    between atoms: N_2  and  C_13
REMARK    3  A    between atoms: C_4  and  C_8
REMARK    4  A    between atoms: C_9  and  C_11
REMARK                            x       y       z     vdW  Elec       q    Type
REMARK                         _______ _______ _______ _____ _____    ______ ____
ROOT
ATOM      1  N   UNL     1      17.042  -8.404  26.533  0.00  0.00    -0.297 NA
ATOM      4  C   UNL     1      18.102  -6.573  25.522  0.00  0.00    +0.070 C 
ATOM      5  C   UNL     1      18.510  -6.650  27.004  0.00  0.00    +0.028 C 
ATOM      6  C   UNL     1      16.870  -7.481  25.410  0.00  0.00    +0.096 C 
ATOM      7  C   UNL     1      17.477  -7.565  27.649  0.00  0.00    +0.085 C 
ENDROOT
BRANCH   4   8
ATOM      2  N   UNL     1      18.122  -4.822  23.711  0.00  0.00    -0.330 N 
ATOM      3  N   UNL     1      17.373  -4.170  25.698  0.00  0.00    -0.232 NA
ATOM      8  C   UNL     1      17.855  -5.176  25.003  0.00  0.00    +0.115 A 
ATOM     10  C   UNL     1      17.791  -3.499  23.561  0.00  0.00    +0.069 A 
ATOM     12  C   UNL     1      17.326  -3.115  24.816  0.00  0.00    +0.089 A 
ATOM     13  C   UNL     1      18.659  -5.683  22.680  0.00  0.00    +0.150 C 
ATOM     14  C   UNL     1      17.856  -2.632  22.470  0.00  0.00    +0.028 A 
ATOM     15  C   UNL     1      16.897  -1.793  25.013  0.00  0.00    +0.030 A 
ATOM     18  C   UNL     1      17.424  -1.319  22.683  0.00  0.00    +0.002 A 
ATOM     19  C   UNL     1      16.952  -0.905  23.931  0.00  0.00    +0.002 A 
ENDBRANCH   4   8
BRANCH   1   9
ATOM      9  C   UNL     1      15.826  -9.143  26.837  0.00  0.00    +0.119 C 
BRANCH   9  11
ATOM     11  C   UNL     1      15.533 -10.193  25.798  0.00  0.00    -0.033 A 
ATOM     16  C   UNL     1      16.495 -11.153  25.485  0.00  0.00    +0.005 A 
ATOM     17  C   UNL     1      14.299 -10.205  25.146  0.00  0.00    +0.005 A 
ATOM     20  C   UNL     1      16.224 -12.125  24.521  0.00  0.00    +0.000 A 
ATOM     21  C   UNL     1      14.028 -11.177  24.184  0.00  0.00    +0.000 A 
ATOM     22  C   UNL     1      14.991 -12.136  23.871  0.00  0.00    +0.000 A 
ENDBRANCH   9  11
ENDBRANCH   1   9
TORSDOF 3
ENDMDL
MODEL 10
REMARK VINA RESULT:      -5.8     28.649     30.501
REMARK  Name = 51137879
REMARK  4 active torsions:
REMARK  status: ('A' for Active; 'I' for Inactive)
REMARK    1  A    between atoms: N_1  and  C_9
REMARK    2  A    between atoms: N_2  and  C_13
REMARK    3  A    between atoms: C_4  and  C_8
REMARK    4  A    between atoms: C_9  and  C_11
REMARK                            x       y       z     vdW  Elec       q    Type
REMARK                         _______ _______ _______ _____ _____    ______ ____
ROOT
ATOM      1  N   UNL     1     -12.294  -6.888  14.699  0.00  0.00    -0.297 NA
ATOM      4  C   UNL     1     -11.381  -7.838  16.638  0.00  0.00    +0.070 C 
ATOM      5  C   UNL     1     -11.203  -6.310  16.681  0.00  0.00    +0.028 C 
ATOM      6  C   UNL     1     -11.723  -8.149  15.175  0.00  0.00    +0.096 C 
ATOM      7  C   UNL     1     -11.423  -5.848  15.247  0.00  0.00    +0.085 C 
ENDROOT
BRANCH   4   8
ATOM      2  N   UNL     1     -10.317  -9.545  18.157  0.00  0.00    -0.330 N 
ATOM      3  N   UNL     1      -8.965  -8.542  16.707  0.00  0.00    -0.232 NA
ATOM      8  C   UNL     1     -10.200  -8.630  17.149  0.00  0.00    +0.115 A 
ATOM     10  C   UNL     1      -9.077 -10.083  18.381  0.00  0.00    +0.069 A 
ATOM     12  C   UNL     1      -8.249  -9.441  17.464  0.00  0.00    +0.089 A 
ATOM     13  C   UNL     1     -11.531  -9.887  18.865  0.00  0.00    +0.150 C 
ATOM     14  C   UNL     1      -8.620 -11.048  19.280  0.00  0.00    +0.028 A 
ATOM     15  C   UNL     1      -6.884  -9.767  17.426  0.00  0.00    +0.030 A 
ATOM     18  C   UNL     1      -7.257 -11.361  19.230  0.00  0.00    +0.002 A 
ATOM     19  C   UNL     1      -6.403 -10.733  18.320  0.00  0.00    +0.002 A 
ENDBRANCH   4   8
BRANCH   1   9
ATOM      9  C   UNL     1     -12.381  -6.830  13.247  0.00  0.00    +0.119 C 
BRANCH   9  11
ATOM     11  C   UNL     1     -13.012  -5.548  12.774  0.00  0.00    -0.033 A 
ATOM     16  C   UNL     1     -12.333  -4.724  11.878  0.00  0.00    +0.005 A 
ATOM     17  C   UNL     1     -14.279  -5.183  13.232  0.00  0.00    +0.005 A 
ATOM     20  C   UNL     1     -12.918  -3.535  11.440  0.00  0.00    +0.000 A 
ATOM     21  C   UNL     1     -14.864  -3.996  12.794  0.00  0.00    +0.000 A 
ATOM     22  C   UNL     1     -14.184  -3.172  11.899  0.00  0.00    +0.000 A 
ENDBRANCH   9  11
ENDBRANCH   1   9
TORSDOF 3
ENDMDL
