REMARK  Name = 75367730
REMARK  6 active torsions:
REMARK  status: ('A' for Active; 'I' for Inactive)
REMARK    1  A    between atoms: O_5  and  C_11
REMARK    2  A    between atoms: O_5  and  C_19
REMARK    3  A    between atoms: O_6  and  C_22
REMARK    4  A    between atoms: O_6  and  C_26
REMARK    5  A    between atoms: N_7  and  C_13
REMARK    6  A    between atoms: C_13  and  C_16
REMARK                            x       y       z     vdW  Elec       q    Type
REMARK                         _______ _______ _______ _____ _____    ______ ____
ROOT
ATOM      4  O   UNL     1      -4.800  -0.477   1.042  0.00  0.00    -0.375 OA
ATOM      7  N   UNL     1      -2.494  -1.658  -0.212  0.00  0.00    -0.292 NA
ATOM     10  C   UNL     1      -2.447  -0.331  -0.824  0.00  0.00    +0.131 C 
ATOM     11  C   UNL     1      -2.841   0.754   0.187  0.00  0.00    +0.215 C 
ATOM     12  C   UNL     1      -3.812  -2.300  -0.249  0.00  0.00    +0.113 C 
ATOM     14  C   UNL     1      -4.315   0.779   0.583  0.00  0.00    +0.205 C 
ATOM     15  C   UNL     1      -5.020  -1.393  -0.025  0.00  0.00    +0.175 C 
ENDROOT
BRANCH  11   5
ATOM      5  O   UNL     1      -2.503   2.022  -0.375  0.00  0.00    -0.468 OA
BRANCH   5  19
ATOM      8  N   UNL     1      -0.399   1.675   0.552  0.00  0.00    -0.219 NA
ATOM      9  N   UNL     1       0.432   4.145  -0.483  0.00  0.00    -0.256 NA
ATOM     19  C   UNL     1      -1.226   2.464  -0.163  0.00  0.00    +0.234 A 
ATOM     23  C   UNL     1      -0.817   3.677  -0.671  0.00  0.00    +0.177 A 
ATOM     24  C   UNL     1       0.851   2.143   0.740  0.00  0.00    +0.134 A 
ATOM     25  C   UNL     1       1.259   3.357   0.232  0.00  0.00    +0.130 A 
ENDBRANCH   5  19
ENDBRANCH  11   5
BRANCH   7  13
ATOM     13  C   UNL     1      -1.486  -2.550  -0.788  0.00  0.00    +0.119 C 
BRANCH  13  16
ATOM     16  C   UNL     1      -0.094  -2.178  -0.353  0.00  0.00    -0.033 A 
ATOM     17  C   UNL     1       0.872  -1.855  -1.306  0.00  0.00    +0.008 A 
ATOM     18  C   UNL     1       0.230  -2.157   1.003  0.00  0.00    +0.008 A 
ATOM     20  C   UNL     1       2.162  -1.510  -0.903  0.00  0.00    +0.046 A 
ATOM     21  C   UNL     1       1.520  -1.813   1.407  0.00  0.00    +0.046 A 
ATOM     22  C   UNL     1       2.486  -1.490   0.454  0.00  0.00    +0.130 A 
BRANCH  22   6
ATOM      6  O   UNL     1       3.745  -1.153   0.848  0.00  0.00    -0.406 OA
BRANCH   6  26
ATOM      1  F   UNL     1       5.386   0.439   0.771  0.00  0.00    -0.133 F 
ATOM      2  F   UNL     1       5.161  -0.953  -0.899  0.00  0.00    -0.133 F 
ATOM      3  F   UNL     1       3.665   0.613  -0.604  0.00  0.00    -0.133 F 
ATOM     26  C   UNL     1       4.485  -0.247   0.036  0.00  0.00    +0.575 C 
ENDBRANCH   6  26
ENDBRANCH  22   6
ENDBRANCH  13  16
ENDBRANCH   7  13
TORSDOF 6
