MODEL 1
REMARK VINA RESULT:      -6.8      0.000      0.000
REMARK  Name = 51137603
REMARK  6 active torsions:
REMARK  status: ('A' for Active; 'I' for Inactive)
REMARK    1  A    between atoms: O_3  and  C_18
REMARK    2  A    between atoms: O_3  and  C_21
REMARK    3  A    between atoms: N_4  and  C_12
REMARK    4  A    between atoms: C_8  and  C_13
REMARK    5  A    between atoms: C_12  and  C_14
REMARK    6  A    between atoms: C_15  and  C_18
REMARK                            x       y       z     vdW  Elec       q    Type
REMARK                         _______ _______ _______ _____ _____    ______ ____
ROOT
ATOM      2  O   UNL     1      17.071   6.816  20.880  0.00  0.00    -0.421 OA
ATOM      5  N   UNL     1      17.544   5.785  18.953  0.00  0.00    -0.112 NA
ATOM      6  N   UNL     1      16.170   5.888  19.055  0.00  0.00    -0.109 NA
ATOM     13  C   UNL     1      18.029   6.339  20.040  0.00  0.00    +0.222 A 
ATOM     15  C   UNL     1      15.939   6.498  20.195  0.00  0.00    +0.254 A 
ENDROOT
BRANCH  13   8
ATOM      4  N   UNL     1      21.205   5.460  21.642  0.00  0.00    -0.297 NA
ATOM      8  C   UNL     1      19.466   6.514  20.473  0.00  0.00    +0.092 C 
ATOM      9  C   UNL     1      19.651   7.193  21.841  0.00  0.00    +0.029 C 
ATOM     10  C   UNL     1      20.220   5.182  20.594  0.00  0.00    +0.097 C 
ATOM     11  C   UNL     1      20.468   6.204  22.663  0.00  0.00    +0.085 C 
BRANCH   4  12
ATOM     12  C   UNL     1      21.811   4.247  22.170  0.00  0.00    +0.119 C 
BRANCH  12  14
ATOM      7  N   UNL     1      25.129   2.937  19.767  0.00  0.00    -0.263 NA
ATOM     14  C   UNL     1      22.973   3.789  21.329  0.00  0.00    -0.031 A 
ATOM     16  C   UNL     1      23.728   4.715  20.617  0.00  0.00    +0.024 A 
ATOM     17  C   UNL     1      23.294   2.438  21.261  0.00  0.00    +0.024 A 
ATOM     19  C   UNL     1      24.786   4.242  19.858  0.00  0.00    +0.111 A 
ATOM     20  C   UNL     1      24.372   2.067  20.473  0.00  0.00    +0.111 A 
ENDBRANCH  12  14
ENDBRANCH   4  12
ENDBRANCH  13   8
BRANCH  15  18
ATOM     18  C   UNL     1      14.661   6.873  20.812  0.00  0.00    +0.326 C 
BRANCH  18   3
ATOM      3  O   UNL     1      14.373   8.251  20.558  0.00  0.00    -0.483 OA
BRANCH   3  21
ATOM      1  F   UNL     1      11.903   9.397  15.785  0.00  0.00    -0.205 F 
ATOM     21  C   UNL     1      13.759   8.536  19.371  0.00  0.00    +0.121 A 
ATOM     22  C   UNL     1      12.547   7.926  19.049  0.00  0.00    +0.048 A 
ATOM     23  C   UNL     1      14.344   9.437  18.482  0.00  0.00    +0.048 A 
ATOM     24  C   UNL     1      11.920   8.216  17.838  0.00  0.00    +0.042 A 
ATOM     25  C   UNL     1      13.717   9.728  17.270  0.00  0.00    +0.042 A 
ATOM     26  C   UNL     1      12.505   9.118  16.948  0.00  0.00    +0.124 A 
ENDBRANCH   3  21
ENDBRANCH  18   3
ENDBRANCH  15  18
TORSDOF 6
ENDMDL
MODEL 2
REMARK VINA RESULT:      -6.7     30.548     33.698
REMARK  Name = 51137603
REMARK  6 active torsions:
REMARK  status: ('A' for Active; 'I' for Inactive)
REMARK    1  A    between atoms: O_3  and  C_18
REMARK    2  A    between atoms: O_3  and  C_21
REMARK    3  A    between atoms: N_4  and  C_12
REMARK    4  A    between atoms: C_8  and  C_13
REMARK    5  A    between atoms: C_12  and  C_14
REMARK    6  A    between atoms: C_15  and  C_18
REMARK                            x       y       z     vdW  Elec       q    Type
REMARK                         _______ _______ _______ _____ _____    ______ ____
ROOT
ATOM      2  O   UNL     1     -15.960   4.661  24.554  0.00  0.00    -0.421 OA
ATOM      5  N   UNL     1     -16.117   2.875  23.218  0.00  0.00    -0.112 NA
ATOM      6  N   UNL     1     -16.427   2.474  24.503  0.00  0.00    -0.109 NA
ATOM     13  C   UNL     1     -15.851   4.158  23.294  0.00  0.00    +0.222 A 
ATOM     15  C   UNL     1     -16.323   3.549  25.250  0.00  0.00    +0.254 A 
ENDROOT
BRANCH  13   8
ATOM      4  N   UNL     1     -13.649   6.394  21.405  0.00  0.00    -0.297 NA
ATOM      8  C   UNL     1     -15.451   5.126  22.205  0.00  0.00    +0.092 C 
ATOM      9  C   UNL     1     -15.676   6.609  22.544  0.00  0.00    +0.029 C 
ATOM     10  C   UNL     1     -13.964   5.031  21.838  0.00  0.00    +0.097 C 
ATOM     11  C   UNL     1     -14.310   7.262  22.379  0.00  0.00    +0.085 C 
BRANCH   4  12
ATOM     12  C   UNL     1     -12.215   6.637  21.331  0.00  0.00    +0.119 C 
BRANCH  12  14
ATOM      7  N   UNL     1     -11.206   9.314  18.120  0.00  0.00    -0.263 NA
ATOM     14  C   UNL     1     -11.862   7.573  20.206  0.00  0.00    -0.031 A 
ATOM     16  C   UNL     1     -11.509   7.067  18.960  0.00  0.00    +0.024 A 
ATOM     17  C   UNL     1     -11.889   8.948  20.411  0.00  0.00    +0.024 A 
ATOM     19  C   UNL     1     -11.192   7.971  17.959  0.00  0.00    +0.111 A 
ATOM     20  C   UNL     1     -11.555   9.768  19.344  0.00  0.00    +0.111 A 
ENDBRANCH  12  14
ENDBRANCH   4  12
ENDBRANCH  13   8
BRANCH  15  18
ATOM     18  C   UNL     1     -16.542   3.709  26.693  0.00  0.00    +0.326 C 
BRANCH  18   3
ATOM      3  O   UNL     1     -16.646   2.430  27.323  0.00  0.00    -0.483 OA
BRANCH   3  21
ATOM      1  F   UNL     1     -13.567   1.652  31.809  0.00  0.00    -0.205 F 
ATOM     21  C   UNL     1     -15.880   2.237  28.439  0.00  0.00    +0.121 A 
ATOM     22  C   UNL     1     -15.772   0.964  28.998  0.00  0.00    +0.048 A 
ATOM     23  C   UNL     1     -15.208   3.312  29.018  0.00  0.00    +0.048 A 
ATOM     24  C   UNL     1     -14.991   0.766  30.136  0.00  0.00    +0.042 A 
ATOM     25  C   UNL     1     -14.427   3.115  30.157  0.00  0.00    +0.042 A 
ATOM     26  C   UNL     1     -14.318   1.842  30.716  0.00  0.00    +0.124 A 
ENDBRANCH   3  21
ENDBRANCH  18   3
ENDBRANCH  15  18
TORSDOF 6
ENDMDL
MODEL 3
REMARK VINA RESULT:      -6.6     31.291     34.315
REMARK  Name = 51137603
REMARK  6 active torsions:
REMARK  status: ('A' for Active; 'I' for Inactive)
REMARK    1  A    between atoms: O_3  and  C_18
REMARK    2  A    between atoms: O_3  and  C_21
REMARK    3  A    between atoms: N_4  and  C_12
REMARK    4  A    between atoms: C_8  and  C_13
REMARK    5  A    between atoms: C_12  and  C_14
REMARK    6  A    between atoms: C_15  and  C_18
REMARK                            x       y       z     vdW  Elec       q    Type
REMARK                         _______ _______ _______ _____ _____    ______ ____
ROOT
ATOM      2  O   UNL     1     -16.144   4.182  25.136  0.00  0.00    -0.421 OA
ATOM      5  N   UNL     1     -16.514   2.064  24.520  0.00  0.00    -0.112 NA
ATOM      6  N   UNL     1     -16.174   2.783  23.390  0.00  0.00    -0.109 NA
ATOM     13  C   UNL     1     -16.484   2.920  25.515  0.00  0.00    +0.222 A 
ATOM     15  C   UNL     1     -15.966   4.014  23.797  0.00  0.00    +0.254 A 
ENDROOT
BRANCH  13   8
ATOM      4  N   UNL     1     -15.724   2.350  29.054  0.00  0.00    -0.297 NA
ATOM      8  C   UNL     1     -16.767   2.702  26.983  0.00  0.00    +0.092 C 
ATOM      9  C   UNL     1     -16.931   1.229  27.398  0.00  0.00    +0.029 C 
ATOM     10  C   UNL     1     -15.656   3.241  27.894  0.00  0.00    +0.097 C 
ATOM     11  C   UNL     1     -15.893   1.011  28.492  0.00  0.00    +0.085 C 
BRANCH   4  12
ATOM     12  C   UNL     1     -14.546   2.450  29.902  0.00  0.00    +0.119 C 
BRANCH  12  14
ATOM      7  N   UNL     1     -15.426   4.376  33.645  0.00  0.00    -0.263 NA
ATOM     14  C   UNL     1     -14.853   3.124  31.212  0.00  0.00    -0.031 A 
ATOM     16  C   UNL     1     -13.828   3.414  32.106  0.00  0.00    +0.024 A 
ATOM     17  C   UNL     1     -16.164   3.459  31.533  0.00  0.00    +0.024 A 
ATOM     19  C   UNL     1     -14.163   4.035  33.299  0.00  0.00    +0.111 A 
ATOM     20  C   UNL     1     -16.395   4.078  32.752  0.00  0.00    +0.111 A 
ENDBRANCH  12  14
ENDBRANCH   4  12
ENDBRANCH  13   8
BRANCH  15  18
ATOM     18  C   UNL     1     -15.576   5.200  23.025  0.00  0.00    +0.326 C 
BRANCH  18   3
ATOM      3  O   UNL     1     -14.334   4.969  22.354  0.00  0.00    -0.483 OA
BRANCH   3  21
ATOM      1  F   UNL     1     -11.671   9.417  20.530  0.00  0.00    -0.205 F 
ATOM     21  C   UNL     1     -13.672   6.075  21.901  0.00  0.00    +0.121 A 
ATOM     22  C   UNL     1     -14.269   7.332  21.993  0.00  0.00    +0.048 A 
ATOM     23  C   UNL     1     -12.399   5.947  21.344  0.00  0.00    +0.048 A 
ATOM     24  C   UNL     1     -13.593   8.461  21.530  0.00  0.00    +0.042 A 
ATOM     25  C   UNL     1     -11.724   7.076  20.881  0.00  0.00    +0.042 A 
ATOM     26  C   UNL     1     -12.321   8.333  20.974  0.00  0.00    +0.124 A 
ENDBRANCH   3  21
ENDBRANCH  18   3
ENDBRANCH  15  18
TORSDOF 6
ENDMDL
MODEL 4
REMARK VINA RESULT:      -6.6      1.996      2.481
REMARK  Name = 51137603
REMARK  6 active torsions:
REMARK  status: ('A' for Active; 'I' for Inactive)
REMARK    1  A    between atoms: O_3  and  C_18
REMARK    2  A    between atoms: O_3  and  C_21
REMARK    3  A    between atoms: N_4  and  C_12
REMARK    4  A    between atoms: C_8  and  C_13
REMARK    5  A    between atoms: C_12  and  C_14
REMARK    6  A    between atoms: C_15  and  C_18
REMARK                            x       y       z     vdW  Elec       q    Type
REMARK                         _______ _______ _______ _____ _____    ______ ____
ROOT
ATOM      2  O   UNL     1      17.081   6.769  20.645  0.00  0.00    -0.421 OA
ATOM      5  N   UNL     1      17.787   5.682  18.823  0.00  0.00    -0.112 NA
ATOM      6  N   UNL     1      16.406   5.710  18.794  0.00  0.00    -0.109 NA
ATOM     13  C   UNL     1      18.138   6.312  19.920  0.00  0.00    +0.222 A 
ATOM     15  C   UNL     1      16.037   6.355  19.876  0.00  0.00    +0.254 A 
ENDROOT
BRANCH  13   8
ATOM      4  N   UNL     1      21.233   5.652  21.766  0.00  0.00    -0.297 NA
ATOM      8  C   UNL     1      19.517   6.590  20.472  0.00  0.00    +0.092 C 
ATOM      9  C   UNL     1      19.535   7.253  21.860  0.00  0.00    +0.029 C 
ATOM     10  C   UNL     1      20.363   5.319  20.637  0.00  0.00    +0.097 C 
ATOM     11  C   UNL     1      20.360   6.315  22.733  0.00  0.00    +0.085 C 
BRANCH   4  12
ATOM     12  C   UNL     1      21.890   4.479  22.326  0.00  0.00    +0.119 C 
BRANCH  12  14
ATOM      7  N   UNL     1      25.005   3.007  19.752  0.00  0.00    -0.263 NA
ATOM     14  C   UNL     1      22.980   3.963  21.425  0.00  0.00    -0.031 A 
ATOM     16  C   UNL     1      23.209   2.596  21.318  0.00  0.00    +0.024 A 
ATOM     17  C   UNL     1      23.761   4.853  20.696  0.00  0.00    +0.024 A 
ATOM     19  C   UNL     1      24.225   2.172  20.476  0.00  0.00    +0.111 A 
ATOM     20  C   UNL     1      24.752   4.328  19.881  0.00  0.00    +0.111 A 
ENDBRANCH  12  14
ENDBRANCH   4  12
ENDBRANCH  13   8
BRANCH  15  18
ATOM     18  C   UNL     1      14.689   6.682  20.355  0.00  0.00    +0.326 C 
BRANCH  18   3
ATOM      3  O   UNL     1      14.355   8.030  20.015  0.00  0.00    -0.483 OA
BRANCH   3  21
ATOM      1  F   UNL     1      10.217  10.313  22.820  0.00  0.00    -0.205 F 
ATOM     21  C   UNL     1      13.326   8.598  20.713  0.00  0.00    +0.121 A 
ATOM     22  C   UNL     1      12.553   7.818  21.572  0.00  0.00    +0.048 A 
ATOM     23  C   UNL     1      13.049   9.957  20.565  0.00  0.00    +0.048 A 
ATOM     24  C   UNL     1      11.502   8.397  22.284  0.00  0.00    +0.042 A 
ATOM     25  C   UNL     1      11.999  10.536  21.277  0.00  0.00    +0.042 A 
ATOM     26  C   UNL     1      11.226   9.756  22.136  0.00  0.00    +0.124 A 
ENDBRANCH   3  21
ENDBRANCH  18   3
ENDBRANCH  15  18
TORSDOF 6
ENDMDL
MODEL 5
REMARK VINA RESULT:      -6.5     27.545     30.061
REMARK  Name = 51137603
REMARK  6 active torsions:
REMARK  status: ('A' for Active; 'I' for Inactive)
REMARK    1  A    between atoms: O_3  and  C_18
REMARK    2  A    between atoms: O_3  and  C_21
REMARK    3  A    between atoms: N_4  and  C_12
REMARK    4  A    between atoms: C_8  and  C_13
REMARK    5  A    between atoms: C_12  and  C_14
REMARK    6  A    between atoms: C_15  and  C_18
REMARK                            x       y       z     vdW  Elec       q    Type
REMARK                         _______ _______ _______ _____ _____    ______ ____
ROOT
ATOM      2  O   UNL     1      -4.988 -10.377  17.842  0.00  0.00    -0.421 OA
ATOM      5  N   UNL     1      -4.516 -12.496  17.308  0.00  0.00    -0.112 NA
ATOM      6  N   UNL     1      -5.394 -12.512  18.374  0.00  0.00    -0.109 NA
ATOM     13  C   UNL     1      -4.306 -11.230  17.030  0.00  0.00    +0.222 A 
ATOM     15  C   UNL     1      -5.643 -11.252  18.652  0.00  0.00    +0.254 A 
ENDROOT
BRANCH  13   8
ATOM      4  N   UNL     1      -2.322 -11.081  13.954  0.00  0.00    -0.297 NA
ATOM      8  C   UNL     1      -3.436 -10.609  15.963  0.00  0.00    +0.092 C 
ATOM      9  C   UNL     1      -1.924 -10.706  16.224  0.00  0.00    +0.029 C 
ATOM     10  C   UNL     1      -3.635 -11.249  14.582  0.00  0.00    +0.097 C 
ATOM     11  C   UNL     1      -1.357 -11.415  15.000  0.00  0.00    +0.085 C 
BRANCH   4  12
ATOM     12  C   UNL     1      -2.163 -11.910  12.768  0.00  0.00    +0.119 C 
BRANCH  12  14
ATOM      7  N   UNL     1      -3.979 -10.119   9.305  0.00  0.00    -0.263 NA
ATOM     14  C   UNL     1      -2.799 -11.283  11.556  0.00  0.00    -0.031 A 
ATOM     16  C   UNL     1      -3.587 -12.051  10.704  0.00  0.00    +0.024 A 
ATOM     17  C   UNL     1      -2.601  -9.934  11.284  0.00  0.00    +0.024 A 
ATOM     19  C   UNL     1      -4.149 -11.427   9.602  0.00  0.00    +0.111 A 
ATOM     20  C   UNL     1      -3.208  -9.405  10.156  0.00  0.00    +0.111 A 
ENDBRANCH  12  14
ENDBRANCH   4  12
ENDBRANCH  13   8
BRANCH  15  18
ATOM     18  C   UNL     1      -6.509 -10.678  19.689  0.00  0.00    +0.326 C 
BRANCH  18   3
ATOM      3  O   UNL     1      -7.729 -11.419  19.781  0.00  0.00    -0.483 OA
BRANCH   3  21
ATOM      1  F   UNL     1     -12.268  -8.901  17.973  0.00  0.00    -0.205 F 
ATOM     21  C   UNL     1      -8.858 -10.793  19.332  0.00  0.00    +0.121 A 
ATOM     22  C   UNL     1     -10.023 -10.823  20.097  0.00  0.00    +0.048 A 
ATOM     23  C   UNL     1      -8.844 -10.124  18.108  0.00  0.00    +0.048 A 
ATOM     24  C   UNL     1     -11.175 -10.184  19.638  0.00  0.00    +0.042 A 
ATOM     25  C   UNL     1      -9.996  -9.485  17.649  0.00  0.00    +0.042 A 
ATOM     26  C   UNL     1     -11.161  -9.515  18.414  0.00  0.00    +0.124 A 
ENDBRANCH   3  21
ENDBRANCH  18   3
ENDBRANCH  15  18
TORSDOF 6
ENDMDL
MODEL 6
REMARK VINA RESULT:      -6.4     27.358     30.427
REMARK  Name = 51137603
REMARK  6 active torsions:
REMARK  status: ('A' for Active; 'I' for Inactive)
REMARK    1  A    between atoms: O_3  and  C_18
REMARK    2  A    between atoms: O_3  and  C_21
REMARK    3  A    between atoms: N_4  and  C_12
REMARK    4  A    between atoms: C_8  and  C_13
REMARK    5  A    between atoms: C_12  and  C_14
REMARK    6  A    between atoms: C_15  and  C_18
REMARK                            x       y       z     vdW  Elec       q    Type
REMARK                         _______ _______ _______ _____ _____    ______ ____
ROOT
ATOM      2  O   UNL     1      -3.382 -10.839  14.556  0.00  0.00    -0.421 OA
ATOM      5  N   UNL     1      -2.124 -10.771  16.404  0.00  0.00    -0.112 NA
ATOM      6  N   UNL     1      -1.321 -10.440  15.330  0.00  0.00    -0.109 NA
ATOM     13  C   UNL     1      -3.318 -10.996  15.907  0.00  0.00    +0.222 A 
ATOM     15  C   UNL     1      -2.097 -10.491  14.271  0.00  0.00    +0.254 A 
ENDROOT
BRANCH  13   8
ATOM      4  N   UNL     1      -6.591 -10.533  17.486  0.00  0.00    -0.297 NA
ATOM      8  C   UNL     1      -4.594 -11.396  16.609  0.00  0.00    +0.092 C 
ATOM      9  C   UNL     1      -4.518 -11.384  18.145  0.00  0.00    +0.029 C 
ATOM     10  C   UNL     1      -5.776 -10.475  16.271  0.00  0.00    +0.097 C 
ATOM     11  C   UNL     1      -5.633 -10.445  18.588  0.00  0.00    +0.085 C 
BRANCH   4  12
ATOM     12  C   UNL     1      -7.590  -9.476  17.535  0.00  0.00    +0.119 C 
BRANCH  12  14
ATOM      7  N   UNL     1     -11.544 -11.035  18.190  0.00  0.00    -0.263 NA
ATOM     14  C   UNL     1      -8.974 -10.022  17.765  0.00  0.00    -0.031 A 
ATOM     16  C   UNL     1      -9.173 -11.394  17.876  0.00  0.00    +0.024 A 
ATOM     17  C   UNL     1     -10.057  -9.156  17.867  0.00  0.00    +0.024 A 
ATOM     19  C   UNL     1     -10.466 -11.846  18.086  0.00  0.00    +0.111 A 
ATOM     20  C   UNL     1     -11.310  -9.709  18.078  0.00  0.00    +0.111 A 
ENDBRANCH  12  14
ENDBRANCH   4  12
ENDBRANCH  13   8
BRANCH  15  18
ATOM     18  C   UNL     1      -1.776 -10.230  12.863  0.00  0.00    +0.326 C 
BRANCH  18   3
ATOM      3  O   UNL     1      -2.320 -11.259  12.032  0.00  0.00    -0.483 OA
BRANCH   3  21
ATOM      1  F   UNL     1      -5.221  -9.604   7.667  0.00  0.00    -0.205 F 
ATOM     21  C   UNL     1      -3.042 -10.847  10.946  0.00  0.00    +0.121 A 
ATOM     22  C   UNL     1      -3.780 -11.772  10.209  0.00  0.00    +0.048 A 
ATOM     23  C   UNL     1      -3.039  -9.503  10.576  0.00  0.00    +0.048 A 
ATOM     24  C   UNL     1      -4.516 -11.352   9.101  0.00  0.00    +0.042 A 
ATOM     25  C   UNL     1      -3.775  -9.083   9.469  0.00  0.00    +0.042 A 
ATOM     26  C   UNL     1      -4.514 -10.007   8.731  0.00  0.00    +0.124 A 
ENDBRANCH   3  21
ENDBRANCH  18   3
ENDBRANCH  15  18
TORSDOF 6
ENDMDL
MODEL 7
REMARK VINA RESULT:      -6.4     27.417     29.632
REMARK  Name = 51137603
REMARK  6 active torsions:
REMARK  status: ('A' for Active; 'I' for Inactive)
REMARK    1  A    between atoms: O_3  and  C_18
REMARK    2  A    between atoms: O_3  and  C_21
REMARK    3  A    between atoms: N_4  and  C_12
REMARK    4  A    between atoms: C_8  and  C_13
REMARK    5  A    between atoms: C_12  and  C_14
REMARK    6  A    between atoms: C_15  and  C_18
REMARK                            x       y       z     vdW  Elec       q    Type
REMARK                         _______ _______ _______ _____ _____    ______ ____
ROOT
ATOM      2  O   UNL     1      -5.527 -10.401  16.540  0.00  0.00    -0.421 OA
ATOM      5  N   UNL     1      -4.108 -11.441  17.921  0.00  0.00    -0.112 NA
ATOM      6  N   UNL     1      -5.381 -11.570  18.442  0.00  0.00    -0.109 NA
ATOM     13  C   UNL     1      -4.240 -10.753  16.812  0.00  0.00    +0.222 A 
ATOM     15  C   UNL     1      -6.178 -10.948  17.603  0.00  0.00    +0.254 A 
ENDROOT
BRANCH  13   8
ATOM      4  N   UNL     1      -2.064 -10.968  13.872  0.00  0.00    -0.297 NA
ATOM      8  C   UNL     1      -3.188 -10.309  15.822  0.00  0.00    +0.092 C 
ATOM      9  C   UNL     1      -1.751 -10.729  16.174  0.00  0.00    +0.029 C 
ATOM     10  C   UNL     1      -3.422 -10.867  14.411  0.00  0.00    +0.097 C 
ATOM     11  C   UNL     1      -1.264 -11.518  14.966  0.00  0.00    +0.085 C 
BRANCH   4  12
ATOM     12  C   UNL     1      -2.001 -11.789  12.672  0.00  0.00    +0.119 C 
BRANCH  12  14
ATOM      7  N   UNL     1      -3.998  -9.927   9.349  0.00  0.00    -0.263 NA
ATOM     14  C   UNL     1      -2.700 -11.137  11.509  0.00  0.00    -0.031 A 
ATOM     16  C   UNL     1      -2.435  -9.809  11.191  0.00  0.00    +0.024 A 
ATOM     17  C   UNL     1      -3.612 -11.860  10.749  0.00  0.00    +0.024 A 
ATOM     19  C   UNL     1      -3.104  -9.255  10.111  0.00  0.00    +0.111 A 
ATOM     20  C   UNL     1      -4.229 -11.214   9.689  0.00  0.00    +0.111 A 
ENDBRANCH  12  14
ENDBRANCH   4  12
ENDBRANCH  13   8
BRANCH  15  18
ATOM     18  C   UNL     1      -7.634 -10.770  17.654  0.00  0.00    +0.326 C 
BRANCH  18   3
ATOM      3  O   UNL     1      -7.959  -9.383  17.780  0.00  0.00    -0.483 OA
BRANCH   3  21
ATOM      1  F   UNL     1     -11.703  -7.416  14.270  0.00  0.00    -0.205 F 
ATOM     21  C   UNL     1      -8.890  -8.894  16.907  0.00  0.00    +0.121 A 
ATOM     22  C   UNL     1      -9.784  -7.907  17.322  0.00  0.00    +0.048 A 
ATOM     23  C   UNL     1      -8.947  -9.382  15.602  0.00  0.00    +0.048 A 
ATOM     24  C   UNL     1     -10.734  -7.408  16.431  0.00  0.00    +0.042 A 
ATOM     25  C   UNL     1      -9.897  -8.883  14.711  0.00  0.00    +0.042 A 
ATOM     26  C   UNL     1     -10.791  -7.896  15.126  0.00  0.00    +0.124 A 
ENDBRANCH   3  21
ENDBRANCH  18   3
ENDBRANCH  15  18
TORSDOF 6
ENDMDL
MODEL 8
REMARK VINA RESULT:      -6.3      5.098      8.555
REMARK  Name = 51137603
REMARK  6 active torsions:
REMARK  status: ('A' for Active; 'I' for Inactive)
REMARK    1  A    between atoms: O_3  and  C_18
REMARK    2  A    between atoms: O_3  and  C_21
REMARK    3  A    between atoms: N_4  and  C_12
REMARK    4  A    between atoms: C_8  and  C_13
REMARK    5  A    between atoms: C_12  and  C_14
REMARK    6  A    between atoms: C_15  and  C_18
REMARK                            x       y       z     vdW  Elec       q    Type
REMARK                         _______ _______ _______ _____ _____    ______ ____
ROOT
ATOM      2  O   UNL     1      14.468   9.754  16.964  0.00  0.00    -0.421 OA
ATOM      5  N   UNL     1      13.714   8.661  15.165  0.00  0.00    -0.112 NA
ATOM      6  N   UNL     1      13.491   7.864  16.271  0.00  0.00    -0.109 NA
ATOM     13  C   UNL     1      14.285   9.754  15.616  0.00  0.00    +0.222 A 
ATOM     15  C   UNL     1      13.947   8.542  17.300  0.00  0.00    +0.254 A 
ENDROOT
BRANCH  13   8
ATOM      4  N   UNL     1      16.488  12.553  14.758  0.00  0.00    -0.297 NA
ATOM      8  C   UNL     1      14.755  10.977  14.863  0.00  0.00    +0.092 C 
ATOM      9  C   UNL     1      14.267  12.317  15.438  0.00  0.00    +0.029 C 
ATOM     10  C   UNL     1      16.284  11.104  14.823  0.00  0.00    +0.097 C 
ATOM     11  C   UNL     1      15.536  13.112  15.717  0.00  0.00    +0.085 C 
BRANCH   4  12
ATOM     12  C   UNL     1      17.862  12.934  15.054  0.00  0.00    +0.119 C 
BRANCH  12  14
ATOM      7  N   UNL     1      20.661  11.035  12.398  0.00  0.00    -0.263 NA
ATOM     14  C   UNL     1      18.841  12.270  14.124  0.00  0.00    -0.031 A 
ATOM     16  C   UNL     1      18.855  12.600  12.773  0.00  0.00    +0.024 A 
ATOM     17  C   UNL     1      19.736  11.325  14.613  0.00  0.00    +0.024 A 
ATOM     19  C   UNL     1      19.776  11.959  11.959  0.00  0.00    +0.111 A 
ATOM     20  C   UNL     1      20.617  10.742  13.716  0.00  0.00    +0.111 A 
ENDBRANCH  12  14
ENDBRANCH   4  12
ENDBRANCH  13   8
BRANCH  15  18
ATOM     18  C   UNL     1      13.967   8.181  18.722  0.00  0.00    +0.326 C 
BRANCH  18   3
ATOM      3  O   UNL     1      14.569   6.895  18.898  0.00  0.00    -0.483 OA
BRANCH   3  21
ATOM      1  F   UNL     1      19.691   6.842  20.892  0.00  0.00    -0.205 F 
ATOM     21  C   UNL     1      15.843   6.882  19.394  0.00  0.00    +0.121 A 
ATOM     22  C   UNL     1      16.783   5.992  18.877  0.00  0.00    +0.048 A 
ATOM     23  C   UNL     1      16.202   7.759  20.418  0.00  0.00    +0.048 A 
ATOM     24  C   UNL     1      18.083   5.978  19.383  0.00  0.00    +0.042 A 
ATOM     25  C   UNL     1      17.502   7.745  20.924  0.00  0.00    +0.042 A 
ATOM     26  C   UNL     1      18.442   6.854  20.406  0.00  0.00    +0.124 A 
ENDBRANCH   3  21
ENDBRANCH  18   3
ENDBRANCH  15  18
TORSDOF 6
ENDMDL
MODEL 9
REMARK VINA RESULT:      -6.1     28.636     30.872
REMARK  Name = 51137603
REMARK  6 active torsions:
REMARK  status: ('A' for Active; 'I' for Inactive)
REMARK    1  A    between atoms: O_3  and  C_18
REMARK    2  A    between atoms: O_3  and  C_21
REMARK    3  A    between atoms: N_4  and  C_12
REMARK    4  A    between atoms: C_8  and  C_13
REMARK    5  A    between atoms: C_12  and  C_14
REMARK    6  A    between atoms: C_15  and  C_18
REMARK                            x       y       z     vdW  Elec       q    Type
REMARK                         _______ _______ _______ _____ _____    ______ ____
ROOT
ATOM      2  O   UNL     1      -4.118 -10.296  12.731  0.00  0.00    -0.421 OA
ATOM      5  N   UNL     1      -2.382 -10.538  11.342  0.00  0.00    -0.112 NA
ATOM      6  N   UNL     1      -2.139 -11.306  12.464  0.00  0.00    -0.109 NA
ATOM     13  C   UNL     1      -3.547  -9.967  11.540  0.00  0.00    +0.222 A 
ATOM     15  C   UNL     1      -3.179 -11.135  13.248  0.00  0.00    +0.254 A 
ENDROOT
BRANCH  13   8
ATOM      4  N   UNL     1      -6.338  -8.786   9.482  0.00  0.00    -0.297 NA
ATOM      8  C   UNL     1      -4.319  -9.020  10.652  0.00  0.00    +0.092 C 
ATOM      9  C   UNL     1      -4.063  -9.192   9.145  0.00  0.00    +0.029 C 
ATOM     10  C   UNL     1      -5.840  -9.161  10.807  0.00  0.00    +0.097 C 
ATOM     11  C   UNL     1      -5.437  -9.447   8.539  0.00  0.00    +0.085 C 
BRANCH   4  12
ATOM     12  C   UNL     1      -7.728  -9.168   9.282  0.00  0.00    +0.119 C 
BRANCH  12  14
ATOM      7  N   UNL     1     -10.225  -5.764   8.463  0.00  0.00    -0.263 NA
ATOM     14  C   UNL     1      -8.603  -7.977   8.996  0.00  0.00    -0.031 A 
ATOM     16  C   UNL     1      -9.935  -7.976   9.394  0.00  0.00    +0.024 A 
ATOM     17  C   UNL     1      -8.080  -6.872   8.332  0.00  0.00    +0.024 A 
ATOM     19  C   UNL     1     -10.698  -6.856   9.106  0.00  0.00    +0.111 A 
ATOM     20  C   UNL     1      -8.926  -5.801   8.092  0.00  0.00    +0.111 A 
ENDBRANCH  12  14
ENDBRANCH   4  12
ENDBRANCH  13   8
BRANCH  15  18
ATOM     18  C   UNL     1      -3.458 -11.712  14.569  0.00  0.00    +0.326 C 
BRANCH  18   3
ATOM      3  O   UNL     1      -3.306 -10.717  15.586  0.00  0.00    -0.483 OA
BRANCH   3  21
ATOM      1  F   UNL     1      -7.395 -10.300  19.235  0.00  0.00    -0.205 F 
ATOM     21  C   UNL     1      -4.323 -10.613  16.493  0.00  0.00    +0.121 A 
ATOM     22  C   UNL     1      -5.476  -9.899  16.170  0.00  0.00    +0.048 A 
ATOM     23  C   UNL     1      -4.207 -11.222  17.743  0.00  0.00    +0.048 A 
ATOM     24  C   UNL     1      -6.514  -9.793  17.096  0.00  0.00    +0.042 A 
ATOM     25  C   UNL     1      -5.245 -11.116  18.669  0.00  0.00    +0.042 A 
ATOM     26  C   UNL     1      -6.398 -10.401  18.345  0.00  0.00    +0.124 A 
ENDBRANCH   3  21
ENDBRANCH  18   3
ENDBRANCH  15  18
TORSDOF 6
ENDMDL
MODEL 10
REMARK VINA RESULT:      -6.1     28.569     30.757
REMARK  Name = 51137603
REMARK  6 active torsions:
REMARK  status: ('A' for Active; 'I' for Inactive)
REMARK    1  A    between atoms: O_3  and  C_18
REMARK    2  A    between atoms: O_3  and  C_21
REMARK    3  A    between atoms: N_4  and  C_12
REMARK    4  A    between atoms: C_8  and  C_13
REMARK    5  A    between atoms: C_12  and  C_14
REMARK    6  A    between atoms: C_15  and  C_18
REMARK                            x       y       z     vdW  Elec       q    Type
REMARK                         _______ _______ _______ _____ _____    ______ ____
ROOT
ATOM      2  O   UNL     1      -3.935 -10.573  13.396  0.00  0.00    -0.421 OA
ATOM      5  N   UNL     1      -2.510 -11.244  11.809  0.00  0.00    -0.112 NA
ATOM      6  N   UNL     1      -2.167 -11.881  12.986  0.00  0.00    -0.109 NA
ATOM     13  C   UNL     1      -3.546 -10.492  12.094  0.00  0.00    +0.222 A 
ATOM     15  C   UNL     1      -3.026 -11.460  13.886  0.00  0.00    +0.254 A 
ENDROOT
BRANCH  13   8
ATOM      4  N   UNL     1      -5.662  -9.534   9.260  0.00  0.00    -0.297 NA
ATOM      8  C   UNL     1      -4.345  -9.572  11.200  0.00  0.00    +0.092 C 
ATOM      9  C   UNL     1      -3.547  -8.936  10.049  0.00  0.00    +0.029 C 
ATOM     10  C   UNL     1      -5.522 -10.278  10.514  0.00  0.00    +0.097 C 
ATOM     11  C   UNL     1      -4.294  -9.337   8.784  0.00  0.00    +0.085 C 
BRANCH   4  12
ATOM     12  C   UNL     1      -6.492 -10.232   8.290  0.00  0.00    +0.119 C 
BRANCH  12  14
ATOM      7  N   UNL     1      -8.073  -7.556   5.318  0.00  0.00    -0.263 NA
ATOM     14  C   UNL     1      -7.046  -9.296   7.249  0.00  0.00    -0.031 A 
ATOM     16  C   UNL     1      -6.797  -9.525   5.900  0.00  0.00    +0.024 A 
ATOM     17  C   UNL     1      -7.808  -8.198   7.633  0.00  0.00    +0.024 A 
ATOM     19  C   UNL     1      -7.328  -8.633   4.982  0.00  0.00    +0.111 A 
ATOM     20  C   UNL     1      -8.294  -7.366   6.637  0.00  0.00    +0.111 A 
ENDBRANCH  12  14
ENDBRANCH   4  12
ENDBRANCH  13   8
BRANCH  15  18
ATOM     18  C   UNL     1      -3.137 -11.809  15.307  0.00  0.00    +0.326 C 
BRANCH  18   3
ATOM      3  O   UNL     1      -3.316 -10.628  16.095  0.00  0.00    -0.483 OA
BRANCH   3  21
ATOM      1  F   UNL     1      -7.736 -10.505  19.359  0.00  0.00    -0.205 F 
ATOM     21  C   UNL     1      -4.415 -10.597  16.906  0.00  0.00    +0.121 A 
ATOM     22  C   UNL     1      -4.379 -11.224  18.152  0.00  0.00    +0.048 A 
ATOM     23  C   UNL     1      -5.572  -9.940  16.489  0.00  0.00    +0.048 A 
ATOM     24  C   UNL     1      -5.501 -11.193  18.980  0.00  0.00    +0.042 A 
ATOM     25  C   UNL     1      -6.694  -9.909  17.318  0.00  0.00    +0.042 A 
ATOM     26  C   UNL     1      -6.658 -10.536  18.563  0.00  0.00    +0.124 A 
ENDBRANCH   3  21
ENDBRANCH  18   3
ENDBRANCH  15  18
TORSDOF 6
ENDMDL
