MODEL 1
REMARK VINA RESULT:      -6.1      0.000      0.000
REMARK  Name = 38030690
REMARK  12 active torsions:
REMARK  status: ('A' for Active; 'I' for Inactive)
REMARK    1  A    between atoms: N_2  and  C_13
REMARK    2  A    between atoms: N_2  and  C_19
REMARK    3  A    between atoms: C_6  and  C_10
REMARK    4  A    between atoms: C_7  and  C_13
REMARK    5  A    between atoms: C_9  and  C_14
REMARK    6  A    between atoms: C_10  and  C_15
REMARK    7  A    between atoms: C_10  and  C_16
REMARK    8  A    between atoms: C_11  and  C_17
REMARK    9  A    between atoms: C_14  and  C_18
REMARK   10  A    between atoms: C_19  and  C_20
REMARK   11  A    between atoms: C_21  and  C_23
REMARK   12  A    between atoms: C_31  and  C_32
REMARK                            x       y       z     vdW  Elec       q    Type
REMARK                         _______ _______ _______ _____ _____    ______ ____
ROOT
ATOM      6  C   UNL     1      -3.732  -9.906  11.700  0.00  0.00    +0.000 C 
ATOM      7  C   UNL     1      -4.977 -10.814  11.591  0.00  0.00    +0.029 C 
ATOM      8  C   UNL     1      -2.705 -10.514  12.666  0.00  0.00    +0.012 C 
ATOM      9  C   UNL     1      -2.267 -11.942  12.273  0.00  0.00    +0.024 C 
ATOM     11  C   UNL     1      -3.414 -12.794  11.752  0.00  0.00    -0.073 C 
ATOM     12  C   UNL     1      -4.622 -12.274  11.466  0.00  0.00    -0.023 C 
ATOM     17  C   UNL     1      -3.141 -14.253  11.508  0.00  0.00    +0.039 C 
ENDROOT
BRANCH   6  10
ATOM     10  C   UNL     1      -3.109  -9.642  10.322  0.00  0.00    -0.013 C 
ATOM     15  C   UNL     1      -1.797  -8.878  10.469  0.00  0.00    +0.007 C 
ATOM     16  C   UNL     1      -4.085  -8.876   9.436  0.00  0.00    +0.007 C 
ENDBRANCH   6  10
BRANCH   7  13
ATOM     13  C   UNL     1      -5.921 -10.627  12.785  0.00  0.00    +0.089 C 
BRANCH  13   2
ATOM      2  N   UNL     1      -6.829 -11.754  12.902  0.00  0.00    -0.310 NA
ATOM     33  H   UNL     1      -6.286 -12.618  12.892  0.00  0.00    +0.122 HD
BRANCH   2  19
ATOM     19  C   UNL     1      -7.591 -11.686  14.144  0.00  0.00    +0.136 C 
BRANCH  19  20
ATOM      5  N   UNL     1      -8.128 -13.077  16.067  0.00  0.00    -0.259 NA
ATOM     20  C   UNL     1      -7.243 -12.814  15.078  0.00  0.00    +0.055 A 
ATOM     22  C   UNL     1      -6.063 -13.513  14.887  0.00  0.00    +0.024 A 
ATOM     24  C   UNL     1      -5.771 -14.550  15.767  0.00  0.00    +0.003 A 
ATOM     25  C   UNL     1      -7.810 -14.092  16.901  0.00  0.00    +0.111 A 
ATOM     28  C   UNL     1      -6.656 -14.851  16.796  0.00  0.00    +0.020 A 
ENDBRANCH  19  20
ENDBRANCH   2  19
ENDBRANCH  13   2
ENDBRANCH   7  13
BRANCH   9  14
ATOM     14  C   UNL     1      -1.545 -12.578  13.467  0.00  0.00    +0.105 C 
BRANCH  14  18
ATOM      1  O   UNL     1      -3.131 -11.995  15.227  0.00  0.00    -0.420 OA
ATOM      3  N   UNL     1      -1.096 -11.108  15.498  0.00  0.00    -0.112 NA
ATOM      4  N   UNL     1      -1.884 -10.698  16.557  0.00  0.00    -0.107 NA
ATOM     18  C   UNL     1      -1.864 -11.862  14.747  0.00  0.00    +0.218 A 
ATOM     21  C   UNL     1      -3.063 -11.240  16.357  0.00  0.00    +0.248 A 
BRANCH  21  23
ATOM     23  C   UNL     1      -4.267 -11.160  17.132  0.00  0.00    +0.038 A 
ATOM     26  C   UNL     1      -4.436 -11.983  18.245  0.00  0.00    +0.013 A 
ATOM     27  C   UNL     1      -5.270 -10.258  16.773  0.00  0.00    +0.013 A 
ATOM     29  C   UNL     1      -5.607 -11.905  19.000  0.00  0.00    +0.004 A 
ATOM     30  C   UNL     1      -6.441 -10.181  17.527  0.00  0.00    +0.004 A 
ATOM     31  C   UNL     1      -6.609 -11.004  18.640  0.00  0.00    -0.050 A 
ATOM     32  C   UNL     1      -7.861 -10.921  19.447  0.00  0.00    +0.044 C 
ENDBRANCH  21  23
ENDBRANCH  14  18
ENDBRANCH   9  14
TORSDOF 8
ENDMDL
MODEL 2
REMARK VINA RESULT:      -6.0      3.511      7.954
REMARK  Name = 38030690
REMARK  12 active torsions:
REMARK  status: ('A' for Active; 'I' for Inactive)
REMARK    1  A    between atoms: N_2  and  C_13
REMARK    2  A    between atoms: N_2  and  C_19
REMARK    3  A    between atoms: C_6  and  C_10
REMARK    4  A    between atoms: C_7  and  C_13
REMARK    5  A    between atoms: C_9  and  C_14
REMARK    6  A    between atoms: C_10  and  C_15
REMARK    7  A    between atoms: C_10  and  C_16
REMARK    8  A    between atoms: C_11  and  C_17
REMARK    9  A    between atoms: C_14  and  C_18
REMARK   10  A    between atoms: C_19  and  C_20
REMARK   11  A    between atoms: C_21  and  C_23
REMARK   12  A    between atoms: C_31  and  C_32
REMARK                            x       y       z     vdW  Elec       q    Type
REMARK                         _______ _______ _______ _____ _____    ______ ____
ROOT
ATOM      6  C   UNL     1      -3.714 -12.076  12.398  0.00  0.00    +0.000 C 
ATOM      7  C   UNL     1      -2.691 -11.541  13.425  0.00  0.00    +0.029 C 
ATOM      8  C   UNL     1      -4.261 -10.930  11.536  0.00  0.00    +0.012 C 
ATOM      9  C   UNL     1      -3.159 -10.139  10.799  0.00  0.00    +0.024 C 
ATOM     11  C   UNL     1      -1.915  -9.921  11.648  0.00  0.00    -0.073 C 
ATOM     12  C   UNL     1      -1.730 -10.547  12.824  0.00  0.00    -0.023 C 
ATOM     17  C   UNL     1      -0.850  -9.012  11.098  0.00  0.00    +0.039 C 
ENDROOT
BRANCH   6  10
ATOM     10  C   UNL     1      -3.105 -13.184  11.526  0.00  0.00    -0.013 C 
ATOM     15  C   UNL     1      -4.133 -13.698  10.524  0.00  0.00    +0.007 C 
ATOM     16  C   UNL     1      -2.583 -14.321  12.398  0.00  0.00    +0.007 C 
ENDBRANCH   6  10
BRANCH   7  13
ATOM     13  C   UNL     1      -3.384 -10.903  14.634  0.00  0.00    +0.089 C 
BRANCH  13   2
ATOM      2  N   UNL     1      -3.220 -11.731  15.816  0.00  0.00    -0.310 NA
ATOM     33  H   UNL     1      -2.934 -11.139  16.597  0.00  0.00    +0.122 HD
BRANCH   2  19
ATOM     19  C   UNL     1      -4.467 -12.404  16.161  0.00  0.00    +0.136 C 
BRANCH  19  20
ATOM      5  N   UNL     1      -6.210 -11.011  17.132  0.00  0.00    -0.259 NA
ATOM     20  C   UNL     1      -5.124 -11.783  17.365  0.00  0.00    +0.055 A 
ATOM     22  C   UNL     1      -4.601 -12.027  18.624  0.00  0.00    +0.024 A 
ATOM     24  C   UNL     1      -5.232 -11.439  19.716  0.00  0.00    +0.003 A 
ATOM     25  C   UNL     1      -6.796 -10.458  18.218  0.00  0.00    +0.111 A 
ATOM     28  C   UNL     1      -6.351 -10.639  19.517  0.00  0.00    +0.020 A 
ENDBRANCH  19  20
ENDBRANCH   2  19
ENDBRANCH  13   2
ENDBRANCH   7  13
BRANCH   9  14
ATOM     14  C   UNL     1      -3.762  -8.829  10.278  0.00  0.00    +0.105 C 
BRANCH  14  18
ATOM      1  O   UNL     1      -4.444  -9.859   8.174  0.00  0.00    -0.420 OA
ATOM      3  N   UNL     1      -6.052  -8.669   9.174  0.00  0.00    -0.112 NA
ATOM      4  N   UNL     1      -6.572  -9.190   8.005  0.00  0.00    -0.107 NA
ATOM     18  C   UNL     1      -4.809  -9.084   9.232  0.00  0.00    +0.218 A 
ATOM     21  C   UNL     1      -5.599  -9.877   7.453  0.00  0.00    +0.248 A 
BRANCH  21  23
ATOM     23  C   UNL     1      -5.565 -10.630   6.234  0.00  0.00    +0.038 A 
ATOM     26  C   UNL     1      -6.553 -10.437   5.268  0.00  0.00    +0.013 A 
ATOM     27  C   UNL     1      -4.544 -11.554   6.012  0.00  0.00    +0.013 A 
ATOM     29  C   UNL     1      -6.520 -11.169   4.080  0.00  0.00    +0.004 A 
ATOM     30  C   UNL     1      -4.511 -12.286   4.824  0.00  0.00    +0.004 A 
ATOM     31  C   UNL     1      -5.499 -12.093   3.859  0.00  0.00    -0.050 A 
ATOM     32  C   UNL     1      -5.464 -12.875   2.590  0.00  0.00    +0.044 C 
ENDBRANCH  21  23
ENDBRANCH  14  18
ENDBRANCH   9  14
TORSDOF 8
ENDMDL
MODEL 3
REMARK VINA RESULT:      -6.0      1.902      2.758
REMARK  Name = 38030690
REMARK  12 active torsions:
REMARK  status: ('A' for Active; 'I' for Inactive)
REMARK    1  A    between atoms: N_2  and  C_13
REMARK    2  A    between atoms: N_2  and  C_19
REMARK    3  A    between atoms: C_6  and  C_10
REMARK    4  A    between atoms: C_7  and  C_13
REMARK    5  A    between atoms: C_9  and  C_14
REMARK    6  A    between atoms: C_10  and  C_15
REMARK    7  A    between atoms: C_10  and  C_16
REMARK    8  A    between atoms: C_11  and  C_17
REMARK    9  A    between atoms: C_14  and  C_18
REMARK   10  A    between atoms: C_19  and  C_20
REMARK   11  A    between atoms: C_21  and  C_23
REMARK   12  A    between atoms: C_31  and  C_32
REMARK                            x       y       z     vdW  Elec       q    Type
REMARK                         _______ _______ _______ _____ _____    ______ ____
ROOT
ATOM      6  C   UNL     1      -4.506  -9.898  11.603  0.00  0.00    +0.000 C 
ATOM      7  C   UNL     1      -5.719 -10.712  12.109  0.00  0.00    +0.029 C 
ATOM      8  C   UNL     1      -3.224 -10.339  12.322  0.00  0.00    +0.012 C 
ATOM      9  C   UNL     1      -2.928 -11.847  12.175  0.00  0.00    +0.024 C 
ATOM     11  C   UNL     1      -4.178 -12.710  12.259  0.00  0.00    -0.073 C 
ATOM     12  C   UNL     1      -5.416 -12.182  12.241  0.00  0.00    -0.023 C 
ATOM     17  C   UNL     1      -3.991 -14.202  12.307  0.00  0.00    +0.039 C 
ENDROOT
BRANCH   6  10
ATOM     10  C   UNL     1      -4.354 -10.009  10.079  0.00  0.00    -0.013 C 
ATOM     15  C   UNL     1      -3.399  -8.939   9.560  0.00  0.00    +0.007 C 
ATOM     16  C   UNL     1      -5.714  -9.897   9.399  0.00  0.00    +0.007 C 
ENDBRANCH   6  10
BRANCH   7  13
ATOM     13  C   UNL     1      -6.236 -10.182  13.451  0.00  0.00    +0.089 C 
BRANCH  13   2
ATOM      2  N   UNL     1      -7.424  -9.369  13.258  0.00  0.00    -0.310 NA
ATOM     33  H   UNL     1      -7.582  -9.248  12.258  0.00  0.00    +0.122 HD
BRANCH   2  19
ATOM     19  C   UNL     1      -8.595 -10.003  13.852  0.00  0.00    +0.136 C 
BRANCH  19  20
ATOM      5  N   UNL     1      -9.820  -8.335  15.133  0.00  0.00    -0.259 NA
ATOM     20  C   UNL     1      -8.961  -9.379  15.173  0.00  0.00    +0.055 A 
ATOM     22  C   UNL     1      -8.416  -9.891  16.339  0.00  0.00    +0.024 A 
ATOM     24  C   UNL     1      -8.775  -9.293  17.542  0.00  0.00    +0.003 A 
ATOM     25  C   UNL     1     -10.146  -7.781  16.322  0.00  0.00    +0.111 A 
ATOM     28  C   UNL     1      -9.656  -8.218  17.542  0.00  0.00    +0.020 A 
ENDBRANCH  19  20
ENDBRANCH   2  19
ENDBRANCH  13   2
ENDBRANCH   7  13
BRANCH   9  14
ATOM     14  C   UNL     1      -1.862 -12.239  13.206  0.00  0.00    +0.105 C 
BRANCH  14  18
ATOM      1  O   UNL     1      -3.355 -12.121  15.133  0.00  0.00    -0.420 OA
ATOM      3  N   UNL     1      -1.515 -10.863  15.321  0.00  0.00    -0.112 NA
ATOM      4  N   UNL     1      -2.262 -10.701  16.472  0.00  0.00    -0.107 NA
ATOM     18  C   UNL     1      -2.190 -11.699  14.568  0.00  0.00    +0.218 A 
ATOM     21  C   UNL     1      -3.328 -11.454  16.318  0.00  0.00    +0.248 A 
BRANCH  21  23
ATOM     23  C   UNL     1      -4.444 -11.677  17.190  0.00  0.00    +0.038 A 
ATOM     26  C   UNL     1      -5.278 -12.776  16.988  0.00  0.00    +0.013 A 
ATOM     27  C   UNL     1      -4.695 -10.795  18.242  0.00  0.00    +0.013 A 
ATOM     29  C   UNL     1      -6.364 -12.995  17.836  0.00  0.00    +0.004 A 
ATOM     30  C   UNL     1      -5.781 -11.013  19.090  0.00  0.00    +0.004 A 
ATOM     31  C   UNL     1      -6.614 -12.113  18.887  0.00  0.00    -0.050 A 
ATOM     32  C   UNL     1      -7.775 -12.346  19.795  0.00  0.00    +0.044 C 
ENDBRANCH  21  23
ENDBRANCH  14  18
ENDBRANCH   9  14
TORSDOF 8
ENDMDL
MODEL 4
REMARK VINA RESULT:      -5.9      2.719      5.700
REMARK  Name = 38030690
REMARK  12 active torsions:
REMARK  status: ('A' for Active; 'I' for Inactive)
REMARK    1  A    between atoms: N_2  and  C_13
REMARK    2  A    between atoms: N_2  and  C_19
REMARK    3  A    between atoms: C_6  and  C_10
REMARK    4  A    between atoms: C_7  and  C_13
REMARK    5  A    between atoms: C_9  and  C_14
REMARK    6  A    between atoms: C_10  and  C_15
REMARK    7  A    between atoms: C_10  and  C_16
REMARK    8  A    between atoms: C_11  and  C_17
REMARK    9  A    between atoms: C_14  and  C_18
REMARK   10  A    between atoms: C_19  and  C_20
REMARK   11  A    between atoms: C_21  and  C_23
REMARK   12  A    between atoms: C_31  and  C_32
REMARK                            x       y       z     vdW  Elec       q    Type
REMARK                         _______ _______ _______ _____ _____    ______ ____
ROOT
ATOM      6  C   UNL     1      -4.387 -10.386  15.250  0.00  0.00    +0.000 C 
ATOM      7  C   UNL     1      -5.594 -11.209  14.746  0.00  0.00    +0.029 C 
ATOM      8  C   UNL     1      -4.405 -10.288  16.782  0.00  0.00    +0.012 C 
ATOM      9  C   UNL     1      -4.418 -11.663  17.483  0.00  0.00    +0.024 C 
ATOM     11  C   UNL     1      -5.303 -12.682  16.779  0.00  0.00    -0.073 C 
ATOM     12  C   UNL     1      -5.829 -12.454  15.562  0.00  0.00    -0.023 C 
ATOM     17  C   UNL     1      -5.531 -13.998  17.470  0.00  0.00    +0.039 C 
ENDROOT
BRANCH   6  10
ATOM     10  C   UNL     1      -3.060 -10.972  14.747  0.00  0.00    -0.013 C 
ATOM     15  C   UNL     1      -1.889 -10.385  15.528  0.00  0.00    +0.007 C 
ATOM     16  C   UNL     1      -2.898 -10.716  13.253  0.00  0.00    +0.007 C 
ENDBRANCH   6  10
BRANCH   7  13
ATOM     13  C   UNL     1      -6.879 -10.373  14.722  0.00  0.00    +0.089 C 
BRANCH  13   2
ATOM      2  N   UNL     1      -6.881  -9.468  13.586  0.00  0.00    -0.310 NA
ATOM     33  H   UNL     1      -5.976  -8.998  13.537  0.00  0.00    +0.122 HD
BRANCH   2  19
ATOM     19  C   UNL     1      -7.111 -10.190  12.341  0.00  0.00    +0.136 C 
BRANCH  19  20
ATOM      5  N   UNL     1      -5.591 -11.076  10.659  0.00  0.00    -0.259 NA
ATOM     20  C   UNL     1      -5.987  -9.989  11.360  0.00  0.00    +0.055 A 
ATOM     22  C   UNL     1      -5.424  -8.731  11.222  0.00  0.00    +0.024 A 
ATOM     24  C   UNL     1      -4.389  -8.577  10.308  0.00  0.00    +0.003 A 
ATOM     25  C   UNL     1      -4.583 -10.888   9.779  0.00  0.00    +0.111 A 
ATOM     28  C   UNL     1      -3.954  -9.671   9.567  0.00  0.00    +0.020 A 
ENDBRANCH  19  20
ENDBRANCH   2  19
ENDBRANCH  13   2
ENDBRANCH   7  13
BRANCH   9  14
ATOM     14  C   UNL     1      -4.798 -11.459  18.954  0.00  0.00    +0.105 C 
BRANCH  14  18
ATOM      1  O   UNL     1      -6.903 -10.392  18.331  0.00  0.00    -0.420 OA
ATOM      3  N   UNL     1      -7.101 -11.942  19.931  0.00  0.00    -0.112 NA
ATOM      4  N   UNL     1      -8.358 -11.425  19.680  0.00  0.00    -0.107 NA
ATOM     18  C   UNL     1      -6.283 -11.311  19.122  0.00  0.00    +0.218 A 
ATOM     21  C   UNL     1      -8.194 -10.524  18.740  0.00  0.00    +0.248 A 
BRANCH  21  23
ATOM     23  C   UNL     1      -9.148  -9.674  18.089  0.00  0.00    +0.038 A 
ATOM     26  C   UNL     1     -10.507  -9.805  18.372  0.00  0.00    +0.013 A 
ATOM     27  C   UNL     1      -8.717  -8.714  17.172  0.00  0.00    +0.013 A 
ATOM     29  C   UNL     1     -11.436  -8.978  17.740  0.00  0.00    +0.004 A 
ATOM     30  C   UNL     1      -9.645  -7.888  16.539  0.00  0.00    +0.004 A 
ATOM     31  C   UNL     1     -11.004  -8.019  16.823  0.00  0.00    -0.050 A 
ATOM     32  C   UNL     1     -11.996  -7.135  16.147  0.00  0.00    +0.044 C 
ENDBRANCH  21  23
ENDBRANCH  14  18
ENDBRANCH   9  14
TORSDOF 8
ENDMDL
MODEL 5
REMARK VINA RESULT:      -5.9      2.794      6.450
REMARK  Name = 38030690
REMARK  12 active torsions:
REMARK  status: ('A' for Active; 'I' for Inactive)
REMARK    1  A    between atoms: N_2  and  C_13
REMARK    2  A    between atoms: N_2  and  C_19
REMARK    3  A    between atoms: C_6  and  C_10
REMARK    4  A    between atoms: C_7  and  C_13
REMARK    5  A    between atoms: C_9  and  C_14
REMARK    6  A    between atoms: C_10  and  C_15
REMARK    7  A    between atoms: C_10  and  C_16
REMARK    8  A    between atoms: C_11  and  C_17
REMARK    9  A    between atoms: C_14  and  C_18
REMARK   10  A    between atoms: C_19  and  C_20
REMARK   11  A    between atoms: C_21  and  C_23
REMARK   12  A    between atoms: C_31  and  C_32
REMARK                            x       y       z     vdW  Elec       q    Type
REMARK                         _______ _______ _______ _____ _____    ______ ____
ROOT
ATOM      6  C   UNL     1      -4.501 -10.552  17.369  0.00  0.00    +0.000 C 
ATOM      7  C   UNL     1      -3.430 -11.403  16.650  0.00  0.00    +0.029 C 
ATOM      8  C   UNL     1      -5.522 -10.008  16.360  0.00  0.00    +0.012 C 
ATOM      9  C   UNL     1      -6.214 -11.113  15.533  0.00  0.00    +0.024 C 
ATOM     11  C   UNL     1      -5.267 -12.231  15.123  0.00  0.00    -0.073 C 
ATOM     12  C   UNL     1      -4.022 -12.336  15.625  0.00  0.00    -0.023 C 
ATOM     17  C   UNL     1      -5.789 -13.268  14.167  0.00  0.00    +0.039 C 
ENDROOT
BRANCH   6  10
ATOM     10  C   UNL     1      -5.194 -11.349  18.484  0.00  0.00    -0.013 C 
ATOM     15  C   UNL     1      -6.104 -10.438  19.302  0.00  0.00    +0.007 C 
ATOM     16  C   UNL     1      -4.158 -12.024  19.377  0.00  0.00    +0.007 C 
ENDBRANCH   6  10
BRANCH   7  13
ATOM     13  C   UNL     1      -2.367 -10.526  15.979  0.00  0.00    +0.089 C 
BRANCH  13   2
ATOM      2  N   UNL     1      -1.798 -11.202  14.826  0.00  0.00    -0.310 NA
ATOM     33  H   UNL     1      -2.306 -12.074  14.671  0.00  0.00    +0.122 HD
BRANCH   2  19
ATOM     19  C   UNL     1      -1.900 -10.373  13.631  0.00  0.00    +0.136 C 
BRANCH  19  20
ATOM      5  N   UNL     1      -3.896 -10.198  12.249  0.00  0.00    -0.259 NA
ATOM     20  C   UNL     1      -2.844 -10.964  12.617  0.00  0.00    +0.055 A 
ATOM     22  C   UNL     1      -2.597 -12.233  12.121  0.00  0.00    +0.024 A 
ATOM     24  C   UNL     1      -3.487 -12.750  11.186  0.00  0.00    +0.003 A 
ATOM     25  C   UNL     1      -4.738 -10.733  11.337  0.00  0.00    +0.111 A 
ATOM     28  C   UNL     1      -4.580 -11.993  10.781  0.00  0.00    +0.020 A 
ENDBRANCH  19  20
ENDBRANCH   2  19
ENDBRANCH  13   2
ENDBRANCH   7  13
BRANCH   9  14
ATOM     14  C   UNL     1      -6.919 -10.461  14.338  0.00  0.00    +0.105 C 
BRANCH  14  18
ATOM      1  O   UNL     1      -8.706 -10.201  15.980  0.00  0.00    -0.420 OA
ATOM      3  N   UNL     1      -9.103  -9.187  14.027  0.00  0.00    -0.112 NA
ATOM      4  N   UNL     1     -10.187  -8.960  14.853  0.00  0.00    -0.107 NA
ATOM     18  C   UNL     1      -8.264  -9.915  14.724  0.00  0.00    +0.218 A 
ATOM     21  C   UNL     1      -9.912  -9.570  15.983  0.00  0.00    +0.248 A 
BRANCH  21  23
ATOM     23  C   UNL     1     -10.670  -9.672  17.195  0.00  0.00    +0.038 A 
ATOM     26  C   UNL     1     -12.044  -9.431  17.181  0.00  0.00    +0.013 A 
ATOM     27  C   UNL     1     -10.035 -10.015  18.389  0.00  0.00    +0.013 A 
ATOM     29  C   UNL     1     -12.783  -9.531  18.360  0.00  0.00    +0.004 A 
ATOM     30  C   UNL     1     -10.774 -10.114  19.569  0.00  0.00    +0.004 A 
ATOM     31  C   UNL     1     -12.147  -9.873  19.553  0.00  0.00    -0.050 A 
ATOM     32  C   UNL     1     -12.937  -9.980  20.814  0.00  0.00    +0.044 C 
ENDBRANCH  21  23
ENDBRANCH  14  18
ENDBRANCH   9  14
TORSDOF 8
ENDMDL
MODEL 6
REMARK VINA RESULT:      -5.8      3.521      6.119
REMARK  Name = 38030690
REMARK  12 active torsions:
REMARK  status: ('A' for Active; 'I' for Inactive)
REMARK    1  A    between atoms: N_2  and  C_13
REMARK    2  A    between atoms: N_2  and  C_19
REMARK    3  A    between atoms: C_6  and  C_10
REMARK    4  A    between atoms: C_7  and  C_13
REMARK    5  A    between atoms: C_9  and  C_14
REMARK    6  A    between atoms: C_10  and  C_15
REMARK    7  A    between atoms: C_10  and  C_16
REMARK    8  A    between atoms: C_11  and  C_17
REMARK    9  A    between atoms: C_14  and  C_18
REMARK   10  A    between atoms: C_19  and  C_20
REMARK   11  A    between atoms: C_21  and  C_23
REMARK   12  A    between atoms: C_31  and  C_32
REMARK                            x       y       z     vdW  Elec       q    Type
REMARK                         _______ _______ _______ _____ _____    ______ ____
ROOT
ATOM      6  C   UNL     1      -5.735 -10.658  10.883  0.00  0.00    +0.000 C 
ATOM      7  C   UNL     1      -5.125 -10.418   9.483  0.00  0.00    +0.029 C 
ATOM      8  C   UNL     1      -4.672 -11.206  11.845  0.00  0.00    +0.012 C 
ATOM      9  C   UNL     1      -3.433 -10.293  11.973  0.00  0.00    +0.024 C 
ATOM     11  C   UNL     1      -3.009  -9.677  10.648  0.00  0.00    -0.073 C 
ATOM     12  C   UNL     1      -3.774  -9.754   9.544  0.00  0.00    -0.023 C 
ATOM     17  C   UNL     1      -1.713  -8.914  10.621  0.00  0.00    +0.039 C 
ENDROOT
BRANCH   6  10
ATOM     10  C   UNL     1      -6.380  -9.381  11.439  0.00  0.00    -0.013 C 
ATOM     15  C   UNL     1      -6.893  -9.617  12.856  0.00  0.00    +0.007 C 
ATOM     16  C   UNL     1      -7.509  -8.915  10.525  0.00  0.00    +0.007 C 
ENDBRANCH   6  10
BRANCH   7  13
ATOM     13  C   UNL     1      -5.010 -11.722   8.685  0.00  0.00    +0.089 C 
BRANCH  13   2
ATOM      2  N   UNL     1      -4.313 -11.496   7.431  0.00  0.00    -0.310 NA
ATOM     33  H   UNL     1      -3.756 -12.321   7.209  0.00  0.00    +0.122 HD
BRANCH   2  19
ATOM     19  C   UNL     1      -5.255 -11.253   6.344  0.00  0.00    +0.136 C 
BRANCH  19  20
ATOM      5  N   UNL     1      -5.712 -12.043   4.088  0.00  0.00    -0.259 NA
ATOM     20  C   UNL     1      -4.777 -11.843   5.044  0.00  0.00    +0.055 A 
ATOM     22  C   UNL     1      -3.434 -12.145   4.891  0.00  0.00    +0.024 A 
ATOM     24  C   UNL     1      -3.024 -12.687   3.678  0.00  0.00    +0.003 A 
ATOM     25  C   UNL     1      -5.276 -12.571   2.923  0.00  0.00    +0.111 A 
ATOM     28  C   UNL     1      -3.956 -12.908   2.670  0.00  0.00    +0.020 A 
ENDBRANCH  19  20
ENDBRANCH   2  19
ENDBRANCH  13   2
ENDBRANCH   7  13
BRANCH   9  14
ATOM     14  C   UNL     1      -2.308 -11.087  12.649  0.00  0.00    +0.105 C 
BRANCH  14  18
ATOM      1  O   UNL     1      -3.530 -11.021  14.761  0.00  0.00    -0.420 OA
ATOM      3  N   UNL     1      -1.335 -10.636  14.960  0.00  0.00    -0.112 NA
ATOM      4  N   UNL     1      -1.896 -10.569  16.221  0.00  0.00    -0.107 NA
ATOM     18  C   UNL     1      -2.324 -10.901  14.139  0.00  0.00    +0.218 A 
ATOM     21  C   UNL     1      -3.179 -10.800  16.057  0.00  0.00    +0.248 A 
BRANCH  21  23
ATOM     23  C   UNL     1      -4.245 -10.854  17.013  0.00  0.00    +0.038 A 
ATOM     26  C   UNL     1      -4.089 -11.586  18.191  0.00  0.00    +0.013 A 
ATOM     27  C   UNL     1      -5.439 -10.175  16.768  0.00  0.00    +0.013 A 
ATOM     29  C   UNL     1      -5.126 -11.638  19.123  0.00  0.00    +0.004 A 
ATOM     30  C   UNL     1      -6.476 -10.228  17.700  0.00  0.00    +0.004 A 
ATOM     31  C   UNL     1      -6.319 -10.959  18.877  0.00  0.00    -0.050 A 
ATOM     32  C   UNL     1      -7.427 -11.015  19.873  0.00  0.00    +0.044 C 
ENDBRANCH  21  23
ENDBRANCH  14  18
ENDBRANCH   9  14
TORSDOF 8
ENDMDL
MODEL 7
REMARK VINA RESULT:      -5.7      3.312      5.503
REMARK  Name = 38030690
REMARK  12 active torsions:
REMARK  status: ('A' for Active; 'I' for Inactive)
REMARK    1  A    between atoms: N_2  and  C_13
REMARK    2  A    between atoms: N_2  and  C_19
REMARK    3  A    between atoms: C_6  and  C_10
REMARK    4  A    between atoms: C_7  and  C_13
REMARK    5  A    between atoms: C_9  and  C_14
REMARK    6  A    between atoms: C_10  and  C_15
REMARK    7  A    between atoms: C_10  and  C_16
REMARK    8  A    between atoms: C_11  and  C_17
REMARK    9  A    between atoms: C_14  and  C_18
REMARK   10  A    between atoms: C_19  and  C_20
REMARK   11  A    between atoms: C_21  and  C_23
REMARK   12  A    between atoms: C_31  and  C_32
REMARK                            x       y       z     vdW  Elec       q    Type
REMARK                         _______ _______ _______ _____ _____    ______ ____
ROOT
ATOM      6  C   UNL     1      -3.968 -10.454  15.746  0.00  0.00    +0.000 C 
ATOM      7  C   UNL     1      -5.272 -10.680  14.948  0.00  0.00    +0.029 C 
ATOM      8  C   UNL     1      -4.095 -11.037  17.160  0.00  0.00    +0.012 C 
ATOM      9  C   UNL     1      -4.452 -12.539  17.174  0.00  0.00    +0.024 C 
ATOM     11  C   UNL     1      -5.466 -12.919  16.105  0.00  0.00    -0.073 C 
ATOM     12  C   UNL     1      -5.828 -12.070  15.126  0.00  0.00    -0.023 C 
ATOM     17  C   UNL     1      -6.019 -14.317  16.139  0.00  0.00    +0.039 C 
ENDROOT
BRANCH   6  10
ATOM     10  C   UNL     1      -2.754 -11.041  15.011  0.00  0.00    -0.013 C 
ATOM     15  C   UNL     1      -1.460 -10.618  15.701  0.00  0.00    +0.007 C 
ATOM     16  C   UNL     1      -2.756 -10.606  13.550  0.00  0.00    +0.007 C 
ENDBRANCH   6  10
BRANCH   7  13
ATOM     13  C   UNL     1      -6.349  -9.655  15.322  0.00  0.00    +0.089 C 
BRANCH  13   2
ATOM      2  N   UNL     1      -7.664 -10.271  15.323  0.00  0.00    -0.310 NA
ATOM     33  H   UNL     1      -8.027 -10.275  16.277  0.00  0.00    +0.122 HD
BRANCH   2  19
ATOM     19  C   UNL     1      -8.588  -9.537  14.466  0.00  0.00    +0.136 C 
BRANCH  19  20
ATOM      5  N   UNL     1      -9.342  -8.244  16.386  0.00  0.00    -0.259 NA
ATOM     20  C   UNL     1      -9.699  -8.899  15.257  0.00  0.00    +0.055 A 
ATOM     22  C   UNL     1     -11.003  -9.007  14.803  0.00  0.00    +0.024 A 
ATOM     24  C   UNL     1     -12.006  -8.406  15.555  0.00  0.00    +0.003 A 
ATOM     25  C   UNL     1     -10.344  -7.672  17.090  0.00  0.00    +0.111 A 
ATOM     28  C   UNL     1     -11.679  -7.724  16.722  0.00  0.00    +0.020 A 
ENDBRANCH  19  20
ENDBRANCH   2  19
ENDBRANCH  13   2
ENDBRANCH   7  13
BRANCH   9  14
ATOM     14  C   UNL     1      -4.905 -12.921  18.588  0.00  0.00    +0.105 C 
BRANCH  14  18
ATOM      1  O   UNL     1      -7.217 -12.142  18.625  0.00  0.00    -0.420 OA
ATOM      3  N   UNL     1      -5.842 -10.993  19.964  0.00  0.00    -0.112 NA
ATOM      4  N   UNL     1      -7.107 -10.449  20.084  0.00  0.00    -0.107 NA
ATOM     18  C   UNL     1      -5.953 -11.978  19.103  0.00  0.00    +0.218 A 
ATOM     21  C   UNL     1      -7.877 -11.151  19.285  0.00  0.00    +0.248 A 
BRANCH  21  23
ATOM     23  C   UNL     1      -9.278 -11.037  19.006  0.00  0.00    +0.038 A 
ATOM     26  C   UNL     1      -9.804 -11.585  17.836  0.00  0.00    +0.013 A 
ATOM     27  C   UNL     1     -10.118 -10.379  19.905  0.00  0.00    +0.013 A 
ATOM     29  C   UNL     1     -11.168 -11.475  17.564  0.00  0.00    +0.004 A 
ATOM     30  C   UNL     1     -11.482 -10.268  19.633  0.00  0.00    +0.004 A 
ATOM     31  C   UNL     1     -12.006 -10.817  18.463  0.00  0.00    -0.050 A 
ATOM     32  C   UNL     1     -13.464 -10.699  18.173  0.00  0.00    +0.044 C 
ENDBRANCH  21  23
ENDBRANCH  14  18
ENDBRANCH   9  14
TORSDOF 8
ENDMDL
MODEL 8
REMARK VINA RESULT:      -5.6      2.636      7.176
REMARK  Name = 38030690
REMARK  12 active torsions:
REMARK  status: ('A' for Active; 'I' for Inactive)
REMARK    1  A    between atoms: N_2  and  C_13
REMARK    2  A    between atoms: N_2  and  C_19
REMARK    3  A    between atoms: C_6  and  C_10
REMARK    4  A    between atoms: C_7  and  C_13
REMARK    5  A    between atoms: C_9  and  C_14
REMARK    6  A    between atoms: C_10  and  C_15
REMARK    7  A    between atoms: C_10  and  C_16
REMARK    8  A    between atoms: C_11  and  C_17
REMARK    9  A    between atoms: C_14  and  C_18
REMARK   10  A    between atoms: C_19  and  C_20
REMARK   11  A    between atoms: C_21  and  C_23
REMARK   12  A    between atoms: C_31  and  C_32
REMARK                            x       y       z     vdW  Elec       q    Type
REMARK                         _______ _______ _______ _____ _____    ______ ____
ROOT
ATOM      6  C   UNL     1      -7.171 -12.007  17.151  0.00  0.00    +0.000 C 
ATOM      7  C   UNL     1      -7.210 -11.802  18.683  0.00  0.00    +0.029 C 
ATOM      8  C   UNL     1      -5.969 -11.273  16.541  0.00  0.00    +0.012 C 
ATOM      9  C   UNL     1      -4.617 -11.700  17.151  0.00  0.00    +0.024 C 
ATOM     11  C   UNL     1      -4.686 -11.920  18.655  0.00  0.00    -0.073 C 
ATOM     12  C   UNL     1      -5.854 -11.950  19.323  0.00  0.00    -0.023 C 
ATOM     17  C   UNL     1      -3.391 -12.165  19.382  0.00  0.00    +0.039 C 
ENDROOT
BRANCH   6  10
ATOM     10  C   UNL     1      -7.154 -13.499  16.786  0.00  0.00    -0.013 C 
ATOM     15  C   UNL     1      -7.327 -13.680  15.282  0.00  0.00    +0.007 C 
ATOM     16  C   UNL     1      -8.242 -14.246  17.551  0.00  0.00    +0.007 C 
ENDBRANCH   6  10
BRANCH   7  13
ATOM     13  C   UNL     1      -7.798 -10.437  19.056  0.00  0.00    +0.089 C 
BRANCH  13   2
ATOM      2  N   UNL     1      -8.949 -10.594  19.927  0.00  0.00    -0.310 NA
ATOM     33  H   UNL     1      -8.899  -9.896  20.670  0.00  0.00    +0.122 HD
BRANCH   2  19
ATOM     19  C   UNL     1     -10.193 -10.414  19.189  0.00  0.00    +0.136 C 
BRANCH  19  20
ATOM      5  N   UNL     1     -11.406 -12.130  20.417  0.00  0.00    -0.259 NA
ATOM     20  C   UNL     1     -11.390 -10.846  19.994  0.00  0.00    +0.055 A 
ATOM     22  C   UNL     1     -12.395  -9.930  20.258  0.00  0.00    +0.024 A 
ATOM     24  C   UNL     1     -13.487 -10.360  21.005  0.00  0.00    +0.003 A 
ATOM     25  C   UNL     1     -12.482 -12.511  21.140  0.00  0.00    +0.111 A 
ATOM     28  C   UNL     1     -13.539 -11.673  21.458  0.00  0.00    +0.020 A 
ENDBRANCH  19  20
ENDBRANCH   2  19
ENDBRANCH  13   2
ENDBRANCH   7  13
BRANCH   9  14
ATOM     14  C   UNL     1      -3.551 -10.674  16.747  0.00  0.00    +0.105 C 
BRANCH  14  18
ATOM      1  O   UNL     1      -3.756 -10.479  14.323  0.00  0.00    -0.420 OA
ATOM      3  N   UNL     1      -1.932 -11.583  15.002  0.00  0.00    -0.112 NA
ATOM      4  N   UNL     1      -1.920 -11.549  13.621  0.00  0.00    -0.107 NA
ATOM     18  C   UNL     1      -3.021 -10.948  15.369  0.00  0.00    +0.218 A 
ATOM     21  C   UNL     1      -3.003 -10.895  13.268  0.00  0.00    +0.248 A 
BRANCH  21  23
ATOM     23  C   UNL     1      -3.504 -10.558  11.968  0.00  0.00    +0.038 A 
ATOM     26  C   UNL     1      -4.725 -11.075  11.535  0.00  0.00    +0.013 A 
ATOM     27  C   UNL     1      -2.772  -9.710  11.135  0.00  0.00    +0.013 A 
ATOM     29  C   UNL     1      -5.214 -10.746  10.271  0.00  0.00    +0.004 A 
ATOM     30  C   UNL     1      -3.261  -9.382   9.871  0.00  0.00    +0.004 A 
ATOM     31  C   UNL     1      -4.481  -9.899   9.439  0.00  0.00    -0.050 A 
ATOM     32  C   UNL     1      -5.003  -9.548   8.087  0.00  0.00    +0.044 C 
ENDBRANCH  21  23
ENDBRANCH  14  18
ENDBRANCH   9  14
TORSDOF 8
ENDMDL
MODEL 9
REMARK VINA RESULT:      -5.5     24.098     27.024
REMARK  Name = 38030690
REMARK  12 active torsions:
REMARK  status: ('A' for Active; 'I' for Inactive)
REMARK    1  A    between atoms: N_2  and  C_13
REMARK    2  A    between atoms: N_2  and  C_19
REMARK    3  A    between atoms: C_6  and  C_10
REMARK    4  A    between atoms: C_7  and  C_13
REMARK    5  A    between atoms: C_9  and  C_14
REMARK    6  A    between atoms: C_10  and  C_15
REMARK    7  A    between atoms: C_10  and  C_16
REMARK    8  A    between atoms: C_11  and  C_17
REMARK    9  A    between atoms: C_14  and  C_18
REMARK   10  A    between atoms: C_19  and  C_20
REMARK   11  A    between atoms: C_21  and  C_23
REMARK   12  A    between atoms: C_31  and  C_32
REMARK                            x       y       z     vdW  Elec       q    Type
REMARK                         _______ _______ _______ _____ _____    ______ ____
ROOT
ATOM      6  C   UNL     1       9.373   9.023   2.626  0.00  0.00    +0.000 C 
ATOM      7  C   UNL     1       8.699   9.097   4.015  0.00  0.00    +0.029 C 
ATOM      8  C   UNL     1      10.555   8.044   2.652  0.00  0.00    +0.012 C 
ATOM      9  C   UNL     1      10.162   6.623   3.109  0.00  0.00    +0.024 C 
ATOM     11  C   UNL     1       9.152   6.621   4.247  0.00  0.00    -0.073 C 
ATOM     12  C   UNL     1       8.519   7.739   4.644  0.00  0.00    -0.023 C 
ATOM     17  C   UNL     1       8.833   5.299   4.889  0.00  0.00    +0.039 C 
ENDROOT
BRANCH   6  10
ATOM     10  C   UNL     1       8.363   8.644   1.533  0.00  0.00    -0.013 C 
ATOM     15  C   UNL     1       8.994   8.789   0.152  0.00  0.00    +0.007 C 
ATOM     16  C   UNL     1       7.108   9.502   1.648  0.00  0.00    +0.007 C 
ENDBRANCH   6  10
BRANCH   7  13
ATOM     13  C   UNL     1       9.482   9.998   4.977  0.00  0.00    +0.089 C 
BRANCH  13   2
ATOM      2  N   UNL     1       8.953   9.891   6.325  0.00  0.00    -0.310 NA
ATOM     33  H   UNL     1       8.274   9.130   6.354  0.00  0.00    +0.122 HD
BRANCH   2  19
ATOM     19  C   UNL     1      10.015   9.618   7.285  0.00  0.00    +0.136 C 
BRANCH  19  20
ATOM      5  N   UNL     1      11.263   7.529   7.246  0.00  0.00    -0.259 NA
ATOM     20  C   UNL     1      10.117   8.151   7.606  0.00  0.00    +0.055 A 
ATOM     22  C   UNL     1       9.060   7.520   8.241  0.00  0.00    +0.024 A 
ATOM     24  C   UNL     1       9.186   6.165   8.524  0.00  0.00    +0.003 A 
ATOM     25  C   UNL     1      11.349   6.212   7.538  0.00  0.00    +0.111 A 
ATOM     28  C   UNL     1      10.349   5.491   8.170  0.00  0.00    +0.020 A 
ENDBRANCH  19  20
ENDBRANCH   2  19
ENDBRANCH  13   2
ENDBRANCH   7  13
BRANCH   9  14
ATOM     14  C   UNL     1      11.441   5.846   3.445  0.00  0.00    +0.105 C 
BRANCH  14  18
ATOM      1  O   UNL     1      11.234   4.946   1.185  0.00  0.00    -0.420 OA
ATOM      3  N   UNL     1      13.333   5.009   1.958  0.00  0.00    -0.112 NA
ATOM      4  N   UNL     1      13.364   4.482   0.681  0.00  0.00    -0.107 NA
ATOM     18  C   UNL     1      12.071   5.265   2.212  0.00  0.00    +0.218 A 
ATOM     21  C   UNL     1      12.117   4.464   0.269  0.00  0.00    +0.248 A 
BRANCH  21  23
ATOM     23  C   UNL     1      11.554   4.025  -0.974  0.00  0.00    +0.038 A 
ATOM     26  C   UNL     1      10.469   4.704  -1.527  0.00  0.00    +0.013 A 
ATOM     27  C   UNL     1      12.091   2.917  -1.631  0.00  0.00    +0.013 A 
ATOM     29  C   UNL     1       9.921   4.278  -2.737  0.00  0.00    +0.004 A 
ATOM     30  C   UNL     1      11.543   2.490  -2.840  0.00  0.00    +0.004 A 
ATOM     31  C   UNL     1      10.458   3.170  -3.393  0.00  0.00    -0.050 A 
ATOM     32  C   UNL     1       9.872   2.713  -4.686  0.00  0.00    +0.044 C 
ENDBRANCH  21  23
ENDBRANCH  14  18
ENDBRANCH   9  14
TORSDOF 8
ENDMDL
MODEL 10
REMARK VINA RESULT:      -5.5      2.277      5.747
REMARK  Name = 38030690
REMARK  12 active torsions:
REMARK  status: ('A' for Active; 'I' for Inactive)
REMARK    1  A    between atoms: N_2  and  C_13
REMARK    2  A    between atoms: N_2  and  C_19
REMARK    3  A    between atoms: C_6  and  C_10
REMARK    4  A    between atoms: C_7  and  C_13
REMARK    5  A    between atoms: C_9  and  C_14
REMARK    6  A    between atoms: C_10  and  C_15
REMARK    7  A    between atoms: C_10  and  C_16
REMARK    8  A    between atoms: C_11  and  C_17
REMARK    9  A    between atoms: C_14  and  C_18
REMARK   10  A    between atoms: C_19  and  C_20
REMARK   11  A    between atoms: C_21  and  C_23
REMARK   12  A    between atoms: C_31  and  C_32
REMARK                            x       y       z     vdW  Elec       q    Type
REMARK                         _______ _______ _______ _____ _____    ______ ____
ROOT
ATOM      6  C   UNL     1      -5.106 -12.364  15.759  0.00  0.00    +0.000 C 
ATOM      7  C   UNL     1      -4.859 -10.881  16.121  0.00  0.00    +0.029 C 
ATOM      8  C   UNL     1      -4.284 -12.759  14.524  0.00  0.00    +0.012 C 
ATOM      9  C   UNL     1      -2.768 -12.517  14.694  0.00  0.00    +0.024 C 
ATOM     11  C   UNL     1      -2.452 -11.224  15.432  0.00  0.00    -0.073 C 
ATOM     12  C   UNL     1      -3.402 -10.502  16.053  0.00  0.00    -0.023 C 
ATOM     17  C   UNL     1      -1.011 -10.798  15.499  0.00  0.00    +0.039 C 
ENDROOT
BRANCH   6  10
ATOM     10  C   UNL     1      -4.803 -13.288  16.946  0.00  0.00    -0.013 C 
ATOM     15  C   UNL     1      -5.515 -14.626  16.774  0.00  0.00    +0.007 C 
ATOM     16  C   UNL     1      -5.210 -12.622  18.256  0.00  0.00    +0.007 C 
ENDBRANCH   6  10
BRANCH   7  13
ATOM     13  C   UNL     1      -5.668  -9.938  15.224  0.00  0.00    +0.089 C 
BRANCH  13   2
ATOM      2  N   UNL     1      -6.719  -9.283  15.983  0.00  0.00    -0.310 NA
ATOM     33  H   UNL     1      -6.822  -8.325  15.647  0.00  0.00    +0.122 HD
BRANCH   2  19
ATOM     19  C   UNL     1      -7.990  -9.981  15.828  0.00  0.00    +0.136 C 
BRANCH  19  20
ATOM      5  N   UNL     1      -8.177 -10.288  18.235  0.00  0.00    -0.259 NA
ATOM     20  C   UNL     1      -8.298 -10.857  17.013  0.00  0.00    +0.055 A 
ATOM     22  C   UNL     1      -8.682 -12.170  16.804  0.00  0.00    +0.024 A 
ATOM     24  C   UNL     1      -8.960 -12.953  17.919  0.00  0.00    +0.003 A 
ATOM     25  C   UNL     1      -8.456 -11.079  19.295  0.00  0.00    +0.111 A 
ATOM     28  C   UNL     1      -8.847 -12.404  19.192  0.00  0.00    +0.020 A 
ENDBRANCH  19  20
ENDBRANCH   2  19
ENDBRANCH  13   2
ENDBRANCH   7  13
BRANCH   9  14
ATOM     14  C   UNL     1      -2.102 -12.595  13.315  0.00  0.00    +0.105 C 
BRANCH  14  18
ATOM      1  O   UNL     1      -3.753 -11.231  12.146  0.00  0.00    -0.420 OA
ATOM      3  N   UNL     1      -1.657 -10.466  11.989  0.00  0.00    -0.112 NA
ATOM      4  N   UNL     1      -2.478  -9.605  11.286  0.00  0.00    -0.107 NA
ATOM     18  C   UNL     1      -2.442 -11.399  12.473  0.00  0.00    +0.218 A 
ATOM     21  C   UNL     1      -3.693 -10.090  11.405  0.00  0.00    +0.248 A 
BRANCH  21  23
ATOM     23  C   UNL     1      -4.941  -9.613  10.886  0.00  0.00    +0.038 A 
ATOM     26  C   UNL     1      -6.110  -9.764  11.631  0.00  0.00    +0.013 A 
ATOM     27  C   UNL     1      -4.986  -8.996   9.635  0.00  0.00    +0.013 A 
ATOM     29  C   UNL     1      -7.325  -9.299  11.126  0.00  0.00    +0.004 A 
ATOM     30  C   UNL     1      -6.201  -8.531   9.130  0.00  0.00    +0.004 A 
ATOM     31  C   UNL     1      -7.370  -8.682   9.876  0.00  0.00    -0.050 A 
ATOM     32  C   UNL     1      -8.668  -8.185   9.336  0.00  0.00    +0.044 C 
ENDBRANCH  21  23
ENDBRANCH  14  18
ENDBRANCH   9  14
TORSDOF 8
ENDMDL
