MODEL 1
REMARK VINA RESULT:      -9.0      0.000      0.000
REMARK  Name = 51136839
REMARK  7 active torsions:
REMARK  status: ('A' for Active; 'I' for Inactive)
REMARK    1  A    between atoms: S_1  and  C_31
REMARK    2  A    between atoms: S_1  and  C_36
REMARK    3  A    between atoms: N_6  and  C_16
REMARK    4  A    between atoms: C_12  and  C_17
REMARK    5  A    between atoms: C_16  and  C_18
REMARK    6  A    between atoms: C_23  and  C_27
REMARK    7  A    between atoms: C_32  and  C_35
REMARK                            x       y       z     vdW  Elec       q    Type
REMARK                         _______ _______ _______ _____ _____    ______ ____
ROOT
ATOM      2  O   UNL     1      15.593   6.061  18.281  0.00  0.00    -0.336 OA
ATOM      8  N   UNL     1      15.969   7.750  19.704  0.00  0.00    -0.190 NA
ATOM     10  N   UNL     1      16.817   5.783  18.902  0.00  0.00    -0.056 NA
ATOM     17  C   UNL     1      15.162   7.237  18.810  0.00  0.00    +0.245 A 
ATOM     23  C   UNL     1      16.970   6.823  19.726  0.00  0.00    +0.202 A 
ENDROOT
BRANCH  23  27
ATOM      3  O   UNL     1      24.313   1.302  20.877  0.00  0.00    -0.276 OA
ATOM      7  N   UNL     1      21.305   5.353  21.241  0.00  0.00    -0.312 N 
ATOM      9  N   UNL     1      23.487   3.473  20.948  0.00  0.00    -0.299 N 
ATOM     11  N   UNL     1      20.335   7.252  22.254  0.00  0.00    -0.240 NA
ATOM     19  C   UNL     1      22.680   5.755  21.548  0.00  0.00    +0.125 C 
ATOM     20  C   UNL     1      21.061   3.959  20.859  0.00  0.00    +0.125 C 
ATOM     21  C   UNL     1      23.681   4.913  20.757  0.00  0.00    +0.126 C 
ATOM     22  C   UNL     1      22.163   3.050  21.398  0.00  0.00    +0.126 C 
ATOM     26  C   UNL     1      20.251   6.257  21.343  0.00  0.00    +0.122 A 
ATOM     27  C   UNL     1      18.112   6.967  20.585  0.00  0.00    +0.027 A 
ATOM     28  C   UNL     1      19.173   6.073  20.493  0.00  0.00    +0.055 A 
ATOM     32  C   UNL     1      24.474   2.514  20.717  0.00  0.00    +0.213 C 
ATOM     33  C   UNL     1      18.161   8.004  21.510  0.00  0.00    +0.031 A 
ATOM     34  C   UNL     1      19.286   8.102  22.315  0.00  0.00    +0.113 A 
ATOM     35  C   UNL     1      25.810   3.034  20.246  0.00  0.00    +0.109 C 
ENDBRANCH  23  27
BRANCH  17  12
ATOM      6  N   UNL     1      13.257   8.794  19.178  0.00  0.00    -0.287 NA
ATOM     12  C   UNL     1      13.839   7.763  18.296  0.00  0.00    +0.146 C 
ATOM     13  C   UNL     1      13.965   8.449  16.923  0.00  0.00    +0.030 C 
ATOM     14  C   UNL     1      13.373   9.838  17.116  0.00  0.00    +0.017 C 
ATOM     15  C   UNL     1      12.465   9.675  18.319  0.00  0.00    +0.085 C 
BRANCH   6  16
ATOM     16  C   UNL     1      12.466   8.238  20.268  0.00  0.00    +0.120 C 
BRANCH  16  18
ATOM     18  C   UNL     1      12.319   9.213  21.407  0.00  0.00    -0.033 A 
ATOM     24  C   UNL     1      13.436   9.887  21.897  0.00  0.00    +0.007 A 
ATOM     25  C   UNL     1      11.063   9.442  21.971  0.00  0.00    +0.007 A 
ATOM     29  C   UNL     1      13.299  10.789  22.952  0.00  0.00    +0.027 A 
ATOM     30  C   UNL     1      10.926  10.344  23.025  0.00  0.00    +0.027 A 
ATOM     31  C   UNL     1      12.044  11.019  23.516  0.00  0.00    +0.088 A 
BRANCH  31   1
ATOM      1  S   UNL     1      11.872  12.151  24.833  0.00  0.00    -0.006 S 
ATOM      4  O   UNL     1      10.493  12.128  25.299  0.00  0.00    -0.170 OA
ATOM      5  O   UNL     1      12.957  11.910  25.775  0.00  0.00    -0.170 OA
ATOM     36  C   UNL     1      12.141  13.743  24.086  0.00  0.00    +0.200 C 
ENDBRANCH  31   1
ENDBRANCH  16  18
ENDBRANCH   6  16
ENDBRANCH  17  12
TORSDOF 5
ENDMDL
MODEL 2
REMARK VINA RESULT:      -7.7     29.528     32.313
REMARK  Name = 51136839
REMARK  7 active torsions:
REMARK  status: ('A' for Active; 'I' for Inactive)
REMARK    1  A    between atoms: S_1  and  C_31
REMARK    2  A    between atoms: S_1  and  C_36
REMARK    3  A    between atoms: N_6  and  C_16
REMARK    4  A    between atoms: C_12  and  C_17
REMARK    5  A    between atoms: C_16  and  C_18
REMARK    6  A    between atoms: C_23  and  C_27
REMARK    7  A    between atoms: C_32  and  C_35
REMARK                            x       y       z     vdW  Elec       q    Type
REMARK                         _______ _______ _______ _____ _____    ______ ____
ROOT
ATOM      2  O   UNL     1     -13.464  10.319  32.426  0.00  0.00    -0.336 OA
ATOM      8  N   UNL     1     -12.184   8.488  32.258  0.00  0.00    -0.190 NA
ATOM     10  N   UNL     1     -14.160   9.294  33.081  0.00  0.00    -0.056 NA
ATOM     17  C   UNL     1     -12.313   9.759  31.970  0.00  0.00    +0.245 A 
ATOM     23  C   UNL     1     -13.341   8.248  32.940  0.00  0.00    +0.202 A 
ENDROOT
BRANCH  23  27
ATOM      3  O   UNL     1     -15.776   0.461  28.563  0.00  0.00    -0.276 OA
ATOM      7  N   UNL     1     -14.363   3.582  32.286  0.00  0.00    -0.312 N 
ATOM      9  N   UNL     1     -14.739   1.401  30.418  0.00  0.00    -0.299 N 
ATOM     11  N   UNL     1     -14.247   4.418  34.491  0.00  0.00    -0.240 NA
ATOM     19  C   UNL     1     -14.040   2.206  32.672  0.00  0.00    +0.125 C 
ATOM     20  C   UNL     1     -14.951   3.808  30.962  0.00  0.00    +0.125 C 
ATOM     21  C   UNL     1     -13.694   1.364  31.445  0.00  0.00    +0.126 C 
ATOM     22  C   UNL     1     -15.647   2.546  30.457  0.00  0.00    +0.126 C 
ATOM     26  C   UNL     1     -14.154   4.644  33.161  0.00  0.00    +0.122 A 
ATOM     27  C   UNL     1     -13.650   6.948  33.465  0.00  0.00    +0.027 A 
ATOM     28  C   UNL     1     -13.860   5.877  32.603  0.00  0.00    +0.055 A 
ATOM     32  C   UNL     1     -14.898   0.431  29.428  0.00  0.00    +0.213 C 
ATOM     33  C   UNL     1     -13.738   6.755  34.840  0.00  0.00    +0.031 A 
ATOM     34  C   UNL     1     -14.036   5.481  35.298  0.00  0.00    +0.113 A 
ATOM     35  C   UNL     1     -13.914  -0.713  29.454  0.00  0.00    +0.109 C 
ENDBRANCH  23  27
BRANCH  17  12
ATOM      6  N   UNL     1     -11.843  10.970  29.848  0.00  0.00    -0.287 NA
ATOM     12  C   UNL     1     -11.371  10.673  31.215  0.00  0.00    +0.146 C 
ATOM     13  C   UNL     1     -11.218  12.051  31.884  0.00  0.00    +0.030 C 
ATOM     14  C   UNL     1     -11.565  13.061  30.800  0.00  0.00    +0.017 C 
ATOM     15  C   UNL     1     -11.328  12.298  29.512  0.00  0.00    +0.085 C 
BRANCH   6  16
ATOM     16  C   UNL     1     -11.445   9.966  28.872  0.00  0.00    +0.120 C 
BRANCH  16  18
ATOM     18  C   UNL     1     -11.914  10.316  27.483  0.00  0.00    -0.033 A 
ATOM     24  C   UNL     1     -13.278  10.377  27.203  0.00  0.00    +0.007 A 
ATOM     25  C   UNL     1     -10.983  10.581  26.479  0.00  0.00    +0.007 A 
ATOM     29  C   UNL     1     -13.712  10.702  25.918  0.00  0.00    +0.027 A 
ATOM     30  C   UNL     1     -11.416  10.906  25.194  0.00  0.00    +0.027 A 
ATOM     31  C   UNL     1     -12.782  10.967  24.913  0.00  0.00    +0.088 A 
BRANCH  31   1
ATOM      1  S   UNL     1     -13.325  11.377  23.306  0.00  0.00    -0.006 S 
ATOM      4  O   UNL     1     -13.701  12.783  23.278  0.00  0.00    -0.170 OA
ATOM      5  O   UNL     1     -12.341  10.873  22.358  0.00  0.00    -0.170 OA
ATOM     36  C   UNL     1     -14.820  10.436  23.092  0.00  0.00    +0.200 C 
ENDBRANCH  31   1
ENDBRANCH  16  18
ENDBRANCH   6  16
ENDBRANCH  17  12
TORSDOF 5
ENDMDL
MODEL 3
REMARK VINA RESULT:      -7.7      2.809      5.222
REMARK  Name = 51136839
REMARK  7 active torsions:
REMARK  status: ('A' for Active; 'I' for Inactive)
REMARK    1  A    between atoms: S_1  and  C_31
REMARK    2  A    between atoms: S_1  and  C_36
REMARK    3  A    between atoms: N_6  and  C_16
REMARK    4  A    between atoms: C_12  and  C_17
REMARK    5  A    between atoms: C_16  and  C_18
REMARK    6  A    between atoms: C_23  and  C_27
REMARK    7  A    between atoms: C_32  and  C_35
REMARK                            x       y       z     vdW  Elec       q    Type
REMARK                         _______ _______ _______ _____ _____    ______ ____
ROOT
ATOM      2  O   UNL     1      16.790  12.084  22.742  0.00  0.00    -0.336 OA
ATOM      8  N   UNL     1      15.389  10.406  22.252  0.00  0.00    -0.190 NA
ATOM     10  N   UNL     1      17.566  11.095  22.124  0.00  0.00    -0.056 NA
ATOM     17  C   UNL     1      15.521  11.597  22.778  0.00  0.00    +0.245 A 
ATOM     23  C   UNL     1      16.670  10.139  21.864  0.00  0.00    +0.202 A 
ENDROOT
BRANCH  23  27
ATOM      3  O   UNL     1      24.912   6.030  20.923  0.00  0.00    -0.276 OA
ATOM      7  N   UNL     1      19.904   6.730  20.788  0.00  0.00    -0.312 N 
ATOM      9  N   UNL     1      22.612   5.748  21.088  0.00  0.00    -0.299 N 
ATOM     11  N   UNL     1      17.702   6.501  19.969  0.00  0.00    -0.240 NA
ATOM     19  C   UNL     1      20.183   5.291  20.758  0.00  0.00    +0.125 C 
ATOM     20  C   UNL     1      21.039   7.652  20.895  0.00  0.00    +0.125 C 
ATOM     21  C   UNL     1      21.456   4.969  21.539  0.00  0.00    +0.126 C 
ATOM     22  C   UNL     1      22.319   6.995  20.384  0.00  0.00    +0.126 C 
ATOM     26  C   UNL     1      18.603   7.214  20.681  0.00  0.00    +0.122 A 
ATOM     27  C   UNL     1      17.021   8.905  21.220  0.00  0.00    +0.027 A 
ATOM     28  C   UNL     1      18.316   8.409  21.319  0.00  0.00    +0.055 A 
ATOM     32  C   UNL     1      23.939   5.375  21.302  0.00  0.00    +0.213 C 
ATOM     33  C   UNL     1      16.066   8.201  20.495  0.00  0.00    +0.031 A 
ATOM     34  C   UNL     1      16.454   7.014  19.893  0.00  0.00    +0.113 A 
ATOM     35  C   UNL     1      24.154   4.079  22.045  0.00  0.00    +0.109 C 
ENDBRANCH  23  27
BRANCH  17  12
ATOM      6  N   UNL     1      13.103  11.968  23.234  0.00  0.00    -0.287 NA
ATOM     12  C   UNL     1      14.473  12.490  23.408  0.00  0.00    +0.146 C 
ATOM     13  C   UNL     1      14.649  12.628  24.932  0.00  0.00    +0.030 C 
ATOM     14  C   UNL     1      13.307  12.221  25.525  0.00  0.00    +0.017 C 
ATOM     15  C   UNL     1      12.332  12.437  24.385  0.00  0.00    +0.085 C 
BRANCH   6  16
ATOM     16  C   UNL     1      12.495  12.361  21.971  0.00  0.00    +0.120 C 
BRANCH  16  18
ATOM     18  C   UNL     1      12.437  11.214  20.995  0.00  0.00    -0.033 A 
ATOM     24  C   UNL     1      13.117  11.297  19.781  0.00  0.00    +0.007 A 
ATOM     25  C   UNL     1      11.702  10.069  21.307  0.00  0.00    +0.007 A 
ATOM     29  C   UNL     1      13.063  10.235  18.878  0.00  0.00    +0.027 A 
ATOM     30  C   UNL     1      11.649   9.008  20.405  0.00  0.00    +0.027 A 
ATOM     31  C   UNL     1      12.330   9.090  19.190  0.00  0.00    +0.088 A 
BRANCH  31   1
ATOM      1  S   UNL     1      12.266   7.760  18.061  0.00  0.00    -0.006 S 
ATOM      4  O   UNL     1      12.222   6.510  18.806  0.00  0.00    -0.170 OA
ATOM      5  O   UNL     1      11.229   8.054  17.082  0.00  0.00    -0.170 OA
ATOM     36  C   UNL     1      13.836   7.812  17.227  0.00  0.00    +0.200 C 
ENDBRANCH  31   1
ENDBRANCH  16  18
ENDBRANCH   6  16
ENDBRANCH  17  12
TORSDOF 5
ENDMDL
MODEL 4
REMARK VINA RESULT:      -7.6     28.208     31.018
REMARK  Name = 51136839
REMARK  7 active torsions:
REMARK  status: ('A' for Active; 'I' for Inactive)
REMARK    1  A    between atoms: S_1  and  C_31
REMARK    2  A    between atoms: S_1  and  C_36
REMARK    3  A    between atoms: N_6  and  C_16
REMARK    4  A    between atoms: C_12  and  C_17
REMARK    5  A    between atoms: C_16  and  C_18
REMARK    6  A    between atoms: C_23  and  C_27
REMARK    7  A    between atoms: C_32  and  C_35
REMARK                            x       y       z     vdW  Elec       q    Type
REMARK                         _______ _______ _______ _____ _____    ______ ____
ROOT
ATOM      2  O   UNL     1      -3.650 -11.209  17.280  0.00  0.00    -0.336 OA
ATOM      8  N   UNL     1      -5.098 -10.857  15.608  0.00  0.00    -0.190 NA
ATOM     10  N   UNL     1      -2.877 -11.031  16.126  0.00  0.00    -0.056 NA
ATOM     17  C   UNL     1      -4.946 -11.092  16.887  0.00  0.00    +0.245 A 
ATOM     23  C   UNL     1      -3.802 -10.828  15.183  0.00  0.00    +0.202 A 
ENDROOT
BRANCH  23  27
ATOM      3  O   UNL     1      -9.275  -9.302   7.874  0.00  0.00    -0.276 OA
ATOM      7  N   UNL     1      -5.081  -9.693  10.676  0.00  0.00    -0.312 N 
ATOM      9  N   UNL     1      -7.201  -8.934   8.855  0.00  0.00    -0.299 N 
ATOM     11  N   UNL     1      -2.808 -10.140  11.129  0.00  0.00    -0.240 NA
ATOM     19  C   UNL     1      -4.797  -8.848   9.513  0.00  0.00    +0.125 C 
ATOM     20  C   UNL     1      -6.446 -10.203  10.843  0.00  0.00    +0.125 C 
ATOM     21  C   UNL     1      -6.043  -8.069   9.091  0.00  0.00    +0.126 C 
ATOM     22  C   UNL     1      -7.176 -10.244   9.503  0.00  0.00    +0.126 C 
ATOM     26  C   UNL     1      -4.079 -10.037  11.579  0.00  0.00    +0.122 A 
ATOM     27  C   UNL     1      -3.465 -10.596  13.807  0.00  0.00    +0.027 A 
ATOM     28  C   UNL     1      -4.456 -10.251  12.894  0.00  0.00    +0.055 A 
ATOM     32  C   UNL     1      -8.300  -8.574   8.074  0.00  0.00    +0.213 C 
ATOM     33  C   UNL     1      -2.147 -10.713  13.383  0.00  0.00    +0.031 A 
ATOM     34  C   UNL     1      -1.872 -10.477  12.044  0.00  0.00    +0.113 A 
ATOM     35  C   UNL     1      -8.250  -7.202   7.447  0.00  0.00    +0.109 C 
ENDBRANCH  23  27
BRANCH  17  12
ATOM      6  N   UNL     1      -7.336 -10.816  17.522  0.00  0.00    -0.287 NA
ATOM     12  C   UNL     1      -5.995 -11.246  17.967  0.00  0.00    +0.146 C 
ATOM     13  C   UNL     1      -6.181 -12.709  18.410  0.00  0.00    +0.030 C 
ATOM     14  C   UNL     1      -7.667 -12.992  18.236  0.00  0.00    +0.017 C 
ATOM     15  C   UNL     1      -8.299 -11.615  18.279  0.00  0.00    +0.085 C 
BRANCH   6  16
ATOM     16  C   UNL     1      -7.564  -9.387  17.683  0.00  0.00    +0.120 C 
BRANCH  16  18
ATOM     18  C   UNL     1      -8.720  -8.905  16.846  0.00  0.00    -0.033 A 
ATOM     24  C   UNL     1      -9.663  -8.037  17.394  0.00  0.00    +0.007 A 
ATOM     25  C   UNL     1      -8.847  -9.328  15.522  0.00  0.00    +0.007 A 
ATOM     29  C   UNL     1     -10.734  -7.592  16.619  0.00  0.00    +0.027 A 
ATOM     30  C   UNL     1      -9.917  -8.882  14.747  0.00  0.00    +0.027 A 
ATOM     31  C   UNL     1     -10.861  -8.013  15.296  0.00  0.00    +0.088 A 
BRANCH  31   1
ATOM      1  S   UNL     1     -12.199  -7.453  14.325  0.00  0.00    -0.006 S 
ATOM      4  O   UNL     1     -11.970  -7.836  12.938  0.00  0.00    -0.170 OA
ATOM      5  O   UNL     1     -13.432  -7.850  14.990  0.00  0.00    -0.170 OA
ATOM     36  C   UNL     1     -12.085  -5.679  14.398  0.00  0.00    +0.200 C 
ENDBRANCH  31   1
ENDBRANCH  16  18
ENDBRANCH   6  16
ENDBRANCH  17  12
TORSDOF 5
ENDMDL
MODEL 5
REMARK VINA RESULT:      -7.6      4.230     11.418
REMARK  Name = 51136839
REMARK  7 active torsions:
REMARK  status: ('A' for Active; 'I' for Inactive)
REMARK    1  A    between atoms: S_1  and  C_31
REMARK    2  A    between atoms: S_1  and  C_36
REMARK    3  A    between atoms: N_6  and  C_16
REMARK    4  A    between atoms: C_12  and  C_17
REMARK    5  A    between atoms: C_16  and  C_18
REMARK    6  A    between atoms: C_23  and  C_27
REMARK    7  A    between atoms: C_32  and  C_35
REMARK                            x       y       z     vdW  Elec       q    Type
REMARK                         _______ _______ _______ _____ _____    ______ ____
ROOT
ATOM      2  O   UNL     1      21.929   4.057  20.780  0.00  0.00    -0.336 OA
ATOM      8  N   UNL     1      22.446   6.197  21.191  0.00  0.00    -0.190 NA
ATOM     10  N   UNL     1      20.711   4.746  20.847  0.00  0.00    -0.056 NA
ATOM     17  C   UNL     1      22.898   4.985  20.994  0.00  0.00    +0.245 A 
ATOM     23  C   UNL     1      21.099   6.001  21.091  0.00  0.00    +0.202 A 
ENDROOT
BRANCH  23  27
ATOM      3  O   UNL     1      12.020   6.351  19.313  0.00  0.00    -0.276 OA
ATOM      7  N   UNL     1      16.593   7.713  20.993  0.00  0.00    -0.312 N 
ATOM      9  N   UNL     1      13.778   7.162  20.598  0.00  0.00    -0.299 N 
ATOM     11  N   UNL     1      18.353   9.187  21.543  0.00  0.00    -0.240 NA
ATOM     19  C   UNL     1      15.575   8.484  21.712  0.00  0.00    +0.125 C 
ATOM     20  C   UNL     1      16.144   6.715  20.018  0.00  0.00    +0.125 C 
ATOM     21  C   UNL     1      14.291   7.671  21.873  0.00  0.00    +0.126 C 
ATOM     22  C   UNL     1      14.744   7.050  19.508  0.00  0.00    +0.126 C 
ATOM     26  C   UNL     1      17.950   7.943  21.201  0.00  0.00    +0.122 A 
ATOM     27  C   UNL     1      20.167   7.082  21.243  0.00  0.00    +0.027 A 
ATOM     28  C   UNL     1      18.808   6.867  21.041  0.00  0.00    +0.055 A 
ATOM     32  C   UNL     1      12.453   6.779  20.385  0.00  0.00    +0.213 C 
ATOM     33  C   UNL     1      20.620   8.349  21.596  0.00  0.00    +0.031 A 
ATOM     34  C   UNL     1      19.680   9.359  21.732  0.00  0.00    +0.113 A 
ATOM     35  C   UNL     1      11.522   6.918  21.565  0.00  0.00    +0.109 C 
ENDBRANCH  23  27
BRANCH  17  12
ATOM      6  N   UNL     1      24.487   3.189  21.661  0.00  0.00    -0.287 NA
ATOM     12  C   UNL     1      24.328   4.485  20.971  0.00  0.00    +0.146 C 
ATOM     13  C   UNL     1      24.846   4.235  19.543  0.00  0.00    +0.030 C 
ATOM     14  C   UNL     1      25.332   2.792  19.543  0.00  0.00    +0.017 C 
ATOM     15  C   UNL     1      25.604   2.507  21.007  0.00  0.00    +0.085 C 
BRANCH   6  16
ATOM     16  C   UNL     1      24.692   3.323  23.096  0.00  0.00    +0.120 C 
BRANCH  16  18
ATOM     18  C   UNL     1      24.006   2.224  23.866  0.00  0.00    -0.033 A 
ATOM     24  C   UNL     1      22.667   2.360  24.231  0.00  0.00    +0.007 A 
ATOM     25  C   UNL     1      24.711   1.071  24.212  0.00  0.00    +0.007 A 
ATOM     29  C   UNL     1      22.033   1.343  24.943  0.00  0.00    +0.027 A 
ATOM     30  C   UNL     1      24.076   0.054  24.924  0.00  0.00    +0.027 A 
ATOM     31  C   UNL     1      22.736   0.189  25.289  0.00  0.00    +0.088 A 
BRANCH  31   1
ATOM      1  S   UNL     1      21.940  -1.085  26.178  0.00  0.00    -0.006 S 
ATOM      4  O   UNL     1      22.509  -2.365  25.781  0.00  0.00    -0.170 OA
ATOM      5  O   UNL     1      21.923  -0.707  27.584  0.00  0.00    -0.170 OA
ATOM     36  C   UNL     1      20.263  -1.057  25.584  0.00  0.00    +0.200 C 
ENDBRANCH  31   1
ENDBRANCH  16  18
ENDBRANCH   6  16
ENDBRANCH  17  12
TORSDOF 5
ENDMDL
MODEL 6
REMARK VINA RESULT:      -7.5     27.916     31.763
REMARK  Name = 51136839
REMARK  7 active torsions:
REMARK  status: ('A' for Active; 'I' for Inactive)
REMARK    1  A    between atoms: S_1  and  C_31
REMARK    2  A    between atoms: S_1  and  C_36
REMARK    3  A    between atoms: N_6  and  C_16
REMARK    4  A    between atoms: C_12  and  C_17
REMARK    5  A    between atoms: C_16  and  C_18
REMARK    6  A    between atoms: C_23  and  C_27
REMARK    7  A    between atoms: C_32  and  C_35
REMARK                            x       y       z     vdW  Elec       q    Type
REMARK                         _______ _______ _______ _____ _____    ______ ____
ROOT
ATOM      2  O   UNL     1      -4.007 -10.939  18.191  0.00  0.00    -0.336 OA
ATOM      8  N   UNL     1      -5.662 -10.960  16.682  0.00  0.00    -0.190 NA
ATOM     10  N   UNL     1      -5.186 -10.678  18.901  0.00  0.00    -0.056 NA
ATOM     17  C   UNL     1      -4.377 -11.092  16.892  0.00  0.00    +0.245 A 
ATOM     23  C   UNL     1      -6.117 -10.707  17.943  0.00  0.00    +0.202 A 
ENDROOT
BRANCH  23  27
ATOM      3  O   UNL     1     -12.148  -4.989  13.862  0.00  0.00    -0.276 OA
ATOM      7  N   UNL     1     -10.341  -8.666  16.830  0.00  0.00    -0.312 N 
ATOM      9  N   UNL     1     -11.838  -6.987  15.006  0.00  0.00    -0.299 N 
ATOM     11  N   UNL     1     -10.222 -10.057  18.734  0.00  0.00    -0.240 NA
ATOM     19  C   UNL     1     -11.774  -8.886  16.622  0.00  0.00    +0.125 C 
ATOM     20  C   UNL     1      -9.710  -7.529  16.151  0.00  0.00    +0.125 C 
ATOM     21  C   UNL     1     -12.206  -8.386  15.243  0.00  0.00    +0.126 C 
ATOM     22  C   UNL     1     -10.745  -6.457  15.818  0.00  0.00    +0.126 C 
ATOM     26  C   UNL     1      -9.601  -9.487  17.676  0.00  0.00    +0.122 A 
ATOM     27  C   UNL     1      -7.510 -10.485  18.212  0.00  0.00    +0.027 A 
ATOM     28  C   UNL     1      -8.262  -9.668  17.374  0.00  0.00    +0.055 A 
ATOM     32  C   UNL     1     -12.455  -6.166  14.063  0.00  0.00    +0.213 C 
ATOM     33  C   UNL     1      -8.113 -11.088  19.310  0.00  0.00    +0.031 A 
ATOM     34  C   UNL     1      -9.460 -10.844  19.525  0.00  0.00    +0.113 A 
ATOM     35  C   UNL     1     -13.570  -6.794  13.261  0.00  0.00    +0.109 C 
ENDBRANCH  23  27
BRANCH  17  12
ATOM      6  N   UNL     1      -3.545 -10.845  14.560  0.00  0.00    -0.287 NA
ATOM     12  C   UNL     1      -3.268 -11.388  15.905  0.00  0.00    +0.146 C 
ATOM     13  C   UNL     1      -1.925 -10.754  16.314  0.00  0.00    +0.030 C 
ATOM     14  C   UNL     1      -1.496  -9.922  15.113  0.00  0.00    +0.017 C 
ATOM     15  C   UNL     1      -2.244 -10.553  13.956  0.00  0.00    +0.085 C 
BRANCH   6  16
ATOM     16  C   UNL     1      -4.344 -11.739  13.734  0.00  0.00    +0.120 C 
BRANCH  16  18
ATOM     18  C   UNL     1      -5.107 -10.989  12.673  0.00  0.00    -0.033 A 
ATOM     24  C   UNL     1      -4.799 -11.180  11.327  0.00  0.00    +0.007 A 
ATOM     25  C   UNL     1      -6.121 -10.102  13.038  0.00  0.00    +0.007 A 
ATOM     29  C   UNL     1      -5.505 -10.486  10.344  0.00  0.00    +0.027 A 
ATOM     30  C   UNL     1      -6.827  -9.409  12.055  0.00  0.00    +0.027 A 
ATOM     31  C   UNL     1      -6.520  -9.601  10.708  0.00  0.00    +0.088 A 
BRANCH  31   1
ATOM      1  S   UNL     1      -7.405  -8.734   9.479  0.00  0.00    -0.006 S 
ATOM      4  O   UNL     1      -8.740  -8.435   9.979  0.00  0.00    -0.170 OA
ATOM      5  O   UNL     1      -6.557  -7.654   8.993  0.00  0.00    -0.170 OA
ATOM     36  C   UNL     1      -7.598  -9.912   8.160  0.00  0.00    +0.200 C 
ENDBRANCH  31   1
ENDBRANCH  16  18
ENDBRANCH   6  16
ENDBRANCH  17  12
TORSDOF 5
ENDMDL
MODEL 7
REMARK VINA RESULT:      -7.5      5.488      8.605
REMARK  Name = 51136839
REMARK  7 active torsions:
REMARK  status: ('A' for Active; 'I' for Inactive)
REMARK    1  A    between atoms: S_1  and  C_31
REMARK    2  A    between atoms: S_1  and  C_36
REMARK    3  A    between atoms: N_6  and  C_16
REMARK    4  A    between atoms: C_12  and  C_17
REMARK    5  A    between atoms: C_16  and  C_18
REMARK    6  A    between atoms: C_23  and  C_27
REMARK    7  A    between atoms: C_32  and  C_35
REMARK                            x       y       z     vdW  Elec       q    Type
REMARK                         _______ _______ _______ _____ _____    ______ ____
ROOT
ATOM      2  O   UNL     1      13.610   8.271  15.974  0.00  0.00    -0.336 OA
ATOM      8  N   UNL     1      13.819  10.015  17.365  0.00  0.00    -0.190 NA
ATOM     10  N   UNL     1      14.258   9.276  15.245  0.00  0.00    -0.056 NA
ATOM     17  C   UNL     1      13.387   8.789  17.211  0.00  0.00    +0.245 A 
ATOM     23  C   UNL     1      14.346  10.271  16.133  0.00  0.00    +0.202 A 
ENDROOT
BRANCH  23  27
ATOM      3  O   UNL     1      22.791  12.194  12.860  0.00  0.00    -0.276 OA
ATOM      7  N   UNL     1      17.988  12.850  14.308  0.00  0.00    -0.312 N 
ATOM      9  N   UNL     1      20.564  12.845  12.985  0.00  0.00    -0.299 N 
ATOM     11  N   UNL     1      16.130  13.994  15.208  0.00  0.00    -0.240 NA
ATOM     19  C   UNL     1      18.366  13.944  13.409  0.00  0.00    +0.125 C 
ATOM     20  C   UNL     1      18.977  11.801  14.575  0.00  0.00    +0.125 C 
ATOM     21  C   UNL     1      19.386  13.469  12.375  0.00  0.00    +0.126 C 
ATOM     22  C   UNL     1      20.393  12.321  14.338  0.00  0.00    +0.126 C 
ATOM     26  C   UNL     1      16.739  12.822  14.923  0.00  0.00    +0.122 A 
ATOM     27  C   UNL     1      14.952  11.534  15.820  0.00  0.00    +0.027 A 
ATOM     28  C   UNL     1      16.199  11.578  15.204  0.00  0.00    +0.055 A 
ATOM     32  C   UNL     1      21.799  12.718  12.349  0.00  0.00    +0.213 C 
ATOM     33  C   UNL     1      14.294  12.719  16.130  0.00  0.00    +0.031 A 
ATOM     34  C   UNL     1      14.921  13.913  15.806  0.00  0.00    +0.113 A 
ATOM     35  C   UNL     1      21.888  13.278  10.950  0.00  0.00    +0.109 C 
ENDBRANCH  23  27
BRANCH  17  12
ATOM      6  N   UNL     1      13.454   7.717  19.456  0.00  0.00    -0.287 NA
ATOM     12  C   UNL     1      12.687   7.886  18.205  0.00  0.00    +0.146 C 
ATOM     13  C   UNL     1      11.323   8.441  18.654  0.00  0.00    +0.030 C 
ATOM     14  C   UNL     1      11.395   8.491  20.174  0.00  0.00    +0.017 C 
ATOM     15  C   UNL     1      12.472   7.480  20.514  0.00  0.00    +0.085 C 
BRANCH   6  16
ATOM     16  C   UNL     1      14.446   6.653  19.382  0.00  0.00    +0.120 C 
BRANCH  16  18
ATOM     18  C   UNL     1      15.771   7.082  19.956  0.00  0.00    -0.033 A 
ATOM     24  C   UNL     1      15.926   8.370  20.466  0.00  0.00    +0.007 A 
ATOM     25  C   UNL     1      16.844   6.190  19.977  0.00  0.00    +0.007 A 
ATOM     29  C   UNL     1      17.153   8.767  20.997  0.00  0.00    +0.027 A 
ATOM     30  C   UNL     1      18.071   6.587  20.508  0.00  0.00    +0.027 A 
ATOM     31  C   UNL     1      18.225   7.876  21.019  0.00  0.00    +0.088 A 
BRANCH  31   1
ATOM      1  S   UNL     1      19.760   8.372  21.687  0.00  0.00    -0.006 S 
ATOM      4  O   UNL     1      19.986   9.773  21.360  0.00  0.00    -0.170 OA
ATOM      5  O   UNL     1      19.806   7.937  23.075  0.00  0.00    -0.170 OA
ATOM     36  C   UNL     1      20.963   7.428  20.778  0.00  0.00    +0.200 C 
ENDBRANCH  31   1
ENDBRANCH  16  18
ENDBRANCH   6  16
ENDBRANCH  17  12
TORSDOF 5
ENDMDL
MODEL 8
REMARK VINA RESULT:      -7.5     27.874     31.210
REMARK  Name = 51136839
REMARK  7 active torsions:
REMARK  status: ('A' for Active; 'I' for Inactive)
REMARK    1  A    between atoms: S_1  and  C_31
REMARK    2  A    between atoms: S_1  and  C_36
REMARK    3  A    between atoms: N_6  and  C_16
REMARK    4  A    between atoms: C_12  and  C_17
REMARK    5  A    between atoms: C_16  and  C_18
REMARK    6  A    between atoms: C_23  and  C_27
REMARK    7  A    between atoms: C_32  and  C_35
REMARK                            x       y       z     vdW  Elec       q    Type
REMARK                         _______ _______ _______ _____ _____    ______ ____
ROOT
ATOM      2  O   UNL     1      -1.645 -10.712  14.578  0.00  0.00    -0.336 OA
ATOM      8  N   UNL     1      -3.860 -11.044  14.564  0.00  0.00    -0.190 NA
ATOM     10  N   UNL     1      -2.051 -10.698  15.919  0.00  0.00    -0.056 NA
ATOM     17  C   UNL     1      -2.773 -10.920  13.848  0.00  0.00    +0.245 A 
ATOM     23  C   UNL     1      -3.368 -10.900  15.829  0.00  0.00    +0.202 A 
ENDROOT
BRANCH  23  27
ATOM      3  O   UNL     1     -12.041  -7.881  17.006  0.00  0.00    -0.276 OA
ATOM      7  N   UNL     1      -7.660 -10.239  17.923  0.00  0.00    -0.312 N 
ATOM      9  N   UNL     1     -10.425  -9.431  17.627  0.00  0.00    -0.299 N 
ATOM     11  N   UNL     1      -5.883 -11.087  19.225  0.00  0.00    -0.240 NA
ATOM     19  C   UNL     1      -8.704 -10.837  18.759  0.00  0.00    +0.125 C 
ATOM     20  C   UNL     1      -8.044  -9.172  16.995  0.00  0.00    +0.125 C 
ATOM     21  C   UNL     1     -10.060 -10.784  18.055  0.00  0.00    +0.126 C 
ATOM     22  C   UNL     1      -9.325  -8.484  17.463  0.00  0.00    +0.126 C 
ATOM     26  C   UNL     1      -6.332 -10.644  18.030  0.00  0.00    +0.122 A 
ATOM     27  C   UNL     1      -4.221 -10.963  16.981  0.00  0.00    +0.027 A 
ATOM     28  C   UNL     1      -5.550 -10.563  16.889  0.00  0.00    +0.055 A 
ATOM     32  C   UNL     1     -11.732  -9.020  17.366  0.00  0.00    +0.213 C 
ATOM     33  C   UNL     1      -3.722 -11.424  18.194  0.00  0.00    +0.031 A 
ATOM     34  C   UNL     1      -4.587 -11.467  19.277  0.00  0.00    +0.113 A 
ATOM     35  C   UNL     1     -12.808 -10.062  17.552  0.00  0.00    +0.109 C 
ENDBRANCH  23  27
BRANCH  17  12
ATOM      6  N   UNL     1      -3.805 -10.530  11.617  0.00  0.00    -0.287 NA
ATOM     12  C   UNL     1      -2.600 -10.979  12.344  0.00  0.00    +0.146 C 
ATOM     13  C   UNL     1      -1.474 -10.059  11.839  0.00  0.00    +0.030 C 
ATOM     14  C   UNL     1      -2.126  -9.171  10.789  0.00  0.00    +0.017 C 
ATOM     15  C   UNL     1      -3.338  -9.968  10.350  0.00  0.00    +0.085 C 
BRANCH   6  16
ATOM     16  C   UNL     1      -4.784 -11.590  11.418  0.00  0.00    +0.120 C 
BRANCH  16  18
ATOM     18  C   UNL     1      -6.153 -11.186  11.898  0.00  0.00    -0.033 A 
ATOM     24  C   UNL     1      -6.354  -9.922  12.449  0.00  0.00    +0.007 A 
ATOM     25  C   UNL     1      -7.222 -12.078  11.790  0.00  0.00    +0.007 A 
ATOM     29  C   UNL     1      -7.622  -9.548  12.893  0.00  0.00    +0.027 A 
ATOM     30  C   UNL     1      -8.489 -11.704  12.234  0.00  0.00    +0.027 A 
ATOM     31  C   UNL     1      -8.690 -10.438  12.785  0.00  0.00    +0.088 A 
BRANCH  31   1
ATOM      1  S   UNL     1     -10.278  -9.969  13.338  0.00  0.00    -0.006 S 
ATOM      4  O   UNL     1     -10.159  -8.767  14.153  0.00  0.00    -0.170 OA
ATOM      5  O   UNL     1     -11.173  -9.977  12.189  0.00  0.00    -0.170 OA
ATOM     36  C   UNL     1     -10.774 -11.286  14.427  0.00  0.00    +0.200 C 
ENDBRANCH  31   1
ENDBRANCH  16  18
ENDBRANCH   6  16
ENDBRANCH  17  12
TORSDOF 5
ENDMDL
MODEL 9
REMARK VINA RESULT:      -7.3      4.441     11.952
REMARK  Name = 51136839
REMARK  7 active torsions:
REMARK  status: ('A' for Active; 'I' for Inactive)
REMARK    1  A    between atoms: S_1  and  C_31
REMARK    2  A    between atoms: S_1  and  C_36
REMARK    3  A    between atoms: N_6  and  C_16
REMARK    4  A    between atoms: C_12  and  C_17
REMARK    5  A    between atoms: C_16  and  C_18
REMARK    6  A    between atoms: C_23  and  C_27
REMARK    7  A    between atoms: C_32  and  C_35
REMARK                            x       y       z     vdW  Elec       q    Type
REMARK                         _______ _______ _______ _____ _____    ______ ____
ROOT
ATOM      2  O   UNL     1      21.398   5.388  23.237  0.00  0.00    -0.336 OA
ATOM      8  N   UNL     1      21.518   6.696  21.422  0.00  0.00    -0.190 NA
ATOM     10  N   UNL     1      20.248   6.189  23.256  0.00  0.00    -0.056 NA
ATOM     17  C   UNL     1      22.090   5.752  22.125  0.00  0.00    +0.245 A 
ATOM     23  C   UNL     1      20.391   6.932  22.155  0.00  0.00    +0.202 A 
ENDROOT
BRANCH  23  27
ATOM      3  O   UNL     1      11.348   6.075  20.368  0.00  0.00    -0.276 OA
ATOM      7  N   UNL     1      15.846   8.231  21.211  0.00  0.00    -0.312 N 
ATOM      9  N   UNL     1      13.055   7.464  21.112  0.00  0.00    -0.299 N 
ATOM     11  N   UNL     1      17.554   9.846  20.991  0.00  0.00    -0.240 NA
ATOM     19  C   UNL     1      14.792   9.219  21.460  0.00  0.00    +0.125 C 
ATOM     20  C   UNL     1      15.444   6.872  20.837  0.00  0.00    +0.125 C 
ATOM     21  C   UNL     1      13.527   8.542  21.985  0.00  0.00    +0.126 C 
ATOM     22  C   UNL     1      14.048   6.872  20.219  0.00  0.00    +0.126 C 
ATOM     26  C   UNL     1      17.192   8.578  21.290  0.00  0.00    +0.122 A 
ATOM     27  C   UNL     1      19.428   7.920  21.759  0.00  0.00    +0.027 A 
ATOM     28  C   UNL     1      18.080   7.588  21.676  0.00  0.00    +0.055 A 
ATOM     32  C   UNL     1      11.746   6.982  21.102  0.00  0.00    +0.213 C 
ATOM     33  C   UNL     1      19.840   9.213  21.457  0.00  0.00    +0.031 A 
ATOM     34  C   UNL     1      18.872  10.131  21.081  0.00  0.00    +0.113 A 
ATOM     35  C   UNL     1      10.786   7.643  22.061  0.00  0.00    +0.109 C 
ENDBRANCH  23  27
BRANCH  17  12
ATOM      6  N   UNL     1      23.344   4.176  20.663  0.00  0.00    -0.287 NA
ATOM     12  C   UNL     1      23.393   5.022  21.873  0.00  0.00    +0.146 C 
ATOM     13  C   UNL     1      24.574   5.980  21.633  0.00  0.00    +0.030 C 
ATOM     14  C   UNL     1      25.164   5.557  20.295  0.00  0.00    +0.017 C 
ATOM     15  C   UNL     1      24.711   4.119  20.144  0.00  0.00    +0.085 C 
BRANCH   6  16
ATOM     16  C   UNL     1      22.797   2.849  20.912  0.00  0.00    +0.120 C 
BRANCH  16  18
ATOM     18  C   UNL     1      23.671   2.047  21.841  0.00  0.00    -0.033 A 
ATOM     24  C   UNL     1      24.615   1.164  21.320  0.00  0.00    +0.007 A 
ATOM     25  C   UNL     1      23.535   2.189  23.222  0.00  0.00    +0.007 A 
ATOM     29  C   UNL     1      25.424   0.421  22.180  0.00  0.00    +0.027 A 
ATOM     30  C   UNL     1      24.344   1.447  24.082  0.00  0.00    +0.027 A 
ATOM     31  C   UNL     1      25.289   0.563  23.561  0.00  0.00    +0.088 A 
BRANCH  31   1
ATOM      1  S   UNL     1      26.303  -0.364  24.637  0.00  0.00    -0.006 S 
ATOM      4  O   UNL     1      25.657  -1.639  24.915  0.00  0.00    -0.170 OA
ATOM      5  O   UNL     1      27.659  -0.341  24.106  0.00  0.00    -0.170 OA
ATOM     36  C   UNL     1      26.297   0.561  26.157  0.00  0.00    +0.200 C 
ENDBRANCH  31   1
ENDBRANCH  16  18
ENDBRANCH   6  16
ENDBRANCH  17  12
TORSDOF 5
ENDMDL
MODEL 10
REMARK VINA RESULT:      -7.3     15.338     17.748
REMARK  Name = 51136839
REMARK  7 active torsions:
REMARK  status: ('A' for Active; 'I' for Inactive)
REMARK    1  A    between atoms: S_1  and  C_31
REMARK    2  A    between atoms: S_1  and  C_36
REMARK    3  A    between atoms: N_6  and  C_16
REMARK    4  A    between atoms: C_12  and  C_17
REMARK    5  A    between atoms: C_16  and  C_18
REMARK    6  A    between atoms: C_23  and  C_27
REMARK    7  A    between atoms: C_32  and  C_35
REMARK                            x       y       z     vdW  Elec       q    Type
REMARK                         _______ _______ _______ _____ _____    ______ ____
ROOT
ATOM      2  O   UNL     1       9.183   8.826   7.834  0.00  0.00    -0.336 OA
ATOM      8  N   UNL     1      11.216   8.127   7.206  0.00  0.00    -0.190 NA
ATOM     10  N   UNL     1      10.015   9.953   7.880  0.00  0.00    -0.056 NA
ATOM     17  C   UNL     1       9.970   7.795   7.429  0.00  0.00    +0.245 A 
ATOM     23  C   UNL     1      11.196   9.460   7.496  0.00  0.00    +0.202 A 
ENDROOT
BRANCH  23  27
ATOM      3  O   UNL     1      19.648   7.342   4.368  0.00  0.00    -0.276 OA
ATOM      7  N   UNL     1      15.751  10.094   6.050  0.00  0.00    -0.312 N 
ATOM      9  N   UNL     1      18.051   9.003   4.671  0.00  0.00    -0.299 N 
ATOM     11  N   UNL     1      14.670  11.855   7.192  0.00  0.00    -0.240 NA
ATOM     19  C   UNL     1      16.686  10.977   5.347  0.00  0.00    +0.125 C 
ATOM     20  C   UNL     1      16.056   8.661   6.098  0.00  0.00    +0.125 C 
ATOM     21  C   UNL     1      17.392  10.230   4.216  0.00  0.00    +0.126 C 
ATOM     22  C   UNL     1      17.553   8.421   5.915  0.00  0.00    +0.126 C 
ATOM     26  C   UNL     1      14.621  10.602   6.686  0.00  0.00    +0.122 A 
ATOM     27  C   UNL     1      12.375  10.272   7.394  0.00  0.00    +0.027 A 
ATOM     28  C   UNL     1      13.510   9.779   6.760  0.00  0.00    +0.055 A 
ATOM     32  C   UNL     1      19.092   8.374   3.987  0.00  0.00    +0.213 C 
ATOM     33  C   UNL     1      12.386  11.556   7.928  0.00  0.00    +0.031 A 
ATOM     34  C   UNL     1      13.549  12.301   7.802  0.00  0.00    +0.113 A 
ATOM     35  C   UNL     1      19.541   9.035   2.706  0.00  0.00    +0.109 C 
ENDBRANCH  23  27
BRANCH  17  12
ATOM      6  N   UNL     1       9.987   5.558   6.338  0.00  0.00    -0.287 NA
ATOM     12  C   UNL     1       9.298   6.445   7.297  0.00  0.00    +0.146 C 
ATOM     13  C   UNL     1       9.285   5.656   8.620  0.00  0.00    +0.030 C 
ATOM     14  C   UNL     1       9.933   4.317   8.291  0.00  0.00    +0.017 C 
ATOM     15  C   UNL     1       9.744   4.189   6.792  0.00  0.00    +0.085 C 
BRANCH   6  16
ATOM     16  C   UNL     1       9.562   5.761   4.960  0.00  0.00    +0.120 C 
BRANCH  16  18
ATOM     18  C   UNL     1      10.638   5.376   3.979  0.00  0.00    -0.033 A 
ATOM     24  C   UNL     1      10.566   4.155   3.310  0.00  0.00    +0.007 A 
ATOM     25  C   UNL     1      11.706   6.242   3.739  0.00  0.00    +0.007 A 
ATOM     29  C   UNL     1      11.562   3.798   2.401  0.00  0.00    +0.027 A 
ATOM     30  C   UNL     1      12.701   5.885   2.830  0.00  0.00    +0.027 A 
ATOM     31  C   UNL     1      12.630   4.664   2.161  0.00  0.00    +0.088 A 
BRANCH  31   1
ATOM      1  S   UNL     1      13.875   4.218   1.021  0.00  0.00    -0.006 S 
ATOM      4  O   UNL     1      14.439   5.429   0.441  0.00  0.00    -0.170 OA
ATOM      5  O   UNL     1      14.750   3.251   1.669  0.00  0.00    -0.170 OA
ATOM     36  C   UNL     1      13.001   3.378  -0.282  0.00  0.00    +0.200 C 
ENDBRANCH  31   1
ENDBRANCH  16  18
ENDBRANCH   6  16
ENDBRANCH  17  12
TORSDOF 5
ENDMDL
