REMARK  Name = 51136833
REMARK  5 active torsions:
REMARK  status: ('A' for Active; 'I' for Inactive)
REMARK    1  A    between atoms: N_3  and  C_15
REMARK    2  A    between atoms: C_11  and  C_16
REMARK    3  A    between atoms: C_15  and  C_19
REMARK    4  A    between atoms: C_23  and  C_24
REMARK    5  A    between atoms: C_26  and  C_31
REMARK                            x       y       z     vdW  Elec       q    Type
REMARK                         _______ _______ _______ _____ _____    ______ ____
ROOT
ATOM      1  O   UNL     1      -3.845   1.772  -0.211  0.00  0.00    -0.336 OA
ATOM      6  N   UNL     1      -2.075   0.620   0.536  0.00  0.00    -0.190 NA
ATOM      8  N   UNL     1      -2.731   2.600  -0.404  0.00  0.00    -0.056 NA
ATOM     16  C   UNL     1      -3.371   0.627   0.347  0.00  0.00    +0.245 A 
ATOM     23  C   UNL     1      -1.727   1.851   0.061  0.00  0.00    +0.202 A 
ENDROOT
BRANCH  23  24
ATOM      2  O   UNL     1       6.121  -2.870   1.417  0.00  0.00    -0.276 OA
ATOM      4  N   UNL     1       3.004   0.939   0.249  0.00  0.00    -0.312 N 
ATOM      5  N   UNL     1       5.105  -1.047   0.395  0.00  0.00    -0.299 N 
ATOM     10  N   UNL     1       2.289   3.182   0.072  0.00  0.00    -0.240 NA
ATOM     17  C   UNL     1       2.820  -0.307   0.999  0.00  0.00    +0.125 C 
ATOM     18  C   UNL     1       4.310   1.191  -0.363  0.00  0.00    +0.125 C 
ATOM     20  C   UNL     1       4.163  -0.843   1.492  0.00  0.00    +0.126 C 
ATOM     21  C   UNL     1       4.998  -0.122  -0.736  0.00  0.00    +0.126 C 
ATOM     22  C   UNL     1       1.973   1.871   0.156  0.00  0.00    +0.122 A 
ATOM     24  C   UNL     1      -0.364   2.303   0.066  0.00  0.00    +0.027 A 
ATOM     25  C   UNL     1       0.676   1.384   0.157  0.00  0.00    +0.055 A 
ATOM     26  C   UNL     1       6.029  -2.090   0.466  0.00  0.00    +0.213 C 
ATOM     27  C   UNL     1      -0.079   3.660  -0.022  0.00  0.00    +0.031 A 
ATOM     30  C   UNL     1       1.252   4.045  -0.015  0.00  0.00    +0.113 A 
ATOM     31  C   UNL     1       6.961  -2.237  -0.712  0.00  0.00    +0.109 C 
ENDBRANCH  23  24
BRANCH  16  11
ATOM      3  N   UNL     1      -3.815  -1.804   0.633  0.00  0.00    -0.284 NA
ATOM     11  C   UNL     1      -4.393  -0.446   0.657  0.00  0.00    +0.146 C 
ATOM     12  C   UNL     1      -4.997  -0.302   2.066  0.00  0.00    +0.030 C 
ATOM     13  C   UNL     1      -4.765  -1.647   2.738  0.00  0.00    +0.017 C 
ATOM     14  C   UNL     1      -4.600  -2.604   1.574  0.00  0.00    +0.085 C 
BRANCH   3  15
ATOM     15  C   UNL     1      -3.788  -2.394  -0.699  0.00  0.00    +0.159 C 
BRANCH  15  19
ATOM      7  N   UNL     1      -2.837  -1.242  -2.710  0.00  0.00    -0.347 N 
ATOM      9  N   UNL     1      -1.357  -1.962  -1.219  0.00  0.00    -0.239 NA
ATOM     19  C   UNL     1      -2.634  -1.878  -1.517  0.00  0.00    +0.121 A 
ATOM     28  C   UNL     1      -1.610  -0.898  -3.204  0.00  0.00    +0.104 A 
ATOM     29  C   UNL     1      -0.713  -1.352  -2.267  0.00  0.00    +0.130 A 
ATOM     32  H   UNL     1      -3.729  -1.056  -3.148  0.00  0.00    +0.167 HD
ENDBRANCH  15  19
ENDBRANCH   3  15
ENDBRANCH  16  11
TORSDOF 4
