MODEL 1
REMARK VINA RESULT:      -6.0      0.000      0.000
REMARK  Name = 75368706
REMARK  7 active torsions:
REMARK  status: ('A' for Active; 'I' for Inactive)
REMARK    1  A    between atoms: O_2  and  C_16
REMARK    2  A    between atoms: O_2  and  C_25
REMARK    3  A    between atoms: N_4  and  C_13
REMARK    4  A    between atoms: N_5  and  C_14
REMARK    5  A    between atoms: N_6  and  C_22
REMARK    6  A    between atoms: C_13  and  C_15
REMARK    7  A    between atoms: C_14  and  C_16
REMARK                            x       y       z     vdW  Elec       q    Type
REMARK                         _______ _______ _______ _____ _____    ______ ____
ROOT
ATOM      1  O   UNL     1     -17.655   3.666  21.864  0.00  0.00    -0.252 OA
ATOM      3  N   UNL     1     -16.897   2.985  23.981  0.00  0.00    -0.278 N 
ATOM      4  N   UNL     1     -16.984   2.341  26.717  0.00  0.00    -0.295 NA
ATOM      5  N   UNL     1     -15.639   4.435  22.817  0.00  0.00    -0.281 N 
ATOM      7  C   UNL     1     -15.701   3.149  24.779  0.00  0.00    +0.109 C 
ATOM      8  C   UNL     1     -16.067   3.397  26.242  0.00  0.00    +0.109 C 
ATOM      9  C   UNL     1     -14.967   4.301  24.097  0.00  0.00    +0.133 C 
ATOM     10  C   UNL     1     -17.934   2.081  24.435  0.00  0.00    +0.125 C 
ATOM     11  C   UNL     1     -18.226   2.323  25.918  0.00  0.00    +0.104 C 
ATOM     12  C   UNL     1     -16.834   3.688  22.771  0.00  0.00    +0.305 C 
ENDROOT
BRANCH   4  13
ATOM     13  C   UNL     1     -17.293   2.534  28.134  0.00  0.00    +0.121 C 
BRANCH  13  15
ATOM      6  N   UNL     1     -14.574   0.847  29.951  0.00  0.00    -0.349 N 
ATOM     15  C   UNL     1     -16.159   2.092  29.020  0.00  0.00    -0.008 A 
ATOM     17  C   UNL     1     -15.517   2.869  30.025  0.00  0.00    +0.004 A 
ATOM     18  C   UNL     1     -15.557   0.855  28.999  0.00  0.00    +0.091 A 
ATOM     19  C   UNL     1     -14.527   2.064  30.593  0.00  0.00    +0.049 A 
ATOM     20  C   UNL     1     -15.683   4.182  30.506  0.00  0.00    +0.010 A 
ATOM     21  C   UNL     1     -13.690   2.511  31.624  0.00  0.00    +0.026 A 
ATOM     22  C   UNL     1     -13.717  -0.284  30.230  0.00  0.00    +0.149 C 
ATOM     23  C   UNL     1     -14.855   4.642  31.537  0.00  0.00    +0.001 A 
ATOM     24  C   UNL     1     -13.875   3.817  32.085  0.00  0.00    +0.002 A 
ENDBRANCH  13  15
ENDBRANCH   4  13
BRANCH   5  14
ATOM     14  C   UNL     1     -15.179   5.357  21.802  0.00  0.00    +0.137 C 
BRANCH  14  16
ATOM     16  C   UNL     1     -13.674   5.546  21.861  0.00  0.00    +0.178 C 
BRANCH  16   2
ATOM      2  O   UNL     1     -13.340   6.834  21.363  0.00  0.00    -0.381 OA
ATOM     25  C   UNL     1     -12.008   6.873  20.869  0.00  0.00    +0.194 C 
ENDBRANCH  16   2
ENDBRANCH  14  16
ENDBRANCH   5  14
TORSDOF 5
ENDMDL
MODEL 2
REMARK VINA RESULT:      -5.9     30.657     36.639
REMARK  Name = 75368706
REMARK  7 active torsions:
REMARK  status: ('A' for Active; 'I' for Inactive)
REMARK    1  A    between atoms: O_2  and  C_16
REMARK    2  A    between atoms: O_2  and  C_25
REMARK    3  A    between atoms: N_4  and  C_13
REMARK    4  A    between atoms: N_5  and  C_14
REMARK    5  A    between atoms: N_6  and  C_22
REMARK    6  A    between atoms: C_13  and  C_15
REMARK    7  A    between atoms: C_14  and  C_16
REMARK                            x       y       z     vdW  Elec       q    Type
REMARK                         _______ _______ _______ _____ _____    ______ ____
ROOT
ATOM      1  O   UNL     1       8.421   8.180   5.380  0.00  0.00    -0.252 OA
ATOM      3  N   UNL     1       9.849   6.807   4.118  0.00  0.00    -0.278 N 
ATOM      4  N   UNL     1      10.765   5.256   1.959  0.00  0.00    -0.295 NA
ATOM      5  N   UNL     1       9.574   6.338   6.296  0.00  0.00    -0.281 N 
ATOM      7  C   UNL     1      10.773   5.723   4.375  0.00  0.00    +0.109 C 
ATOM      8  C   UNL     1      10.642   4.646   3.298  0.00  0.00    +0.109 C 
ATOM      9  C   UNL     1      10.411   5.267   5.786  0.00  0.00    +0.133 C 
ATOM     10  C   UNL     1       9.781   7.382   2.790  0.00  0.00    +0.125 C 
ATOM     11  C   UNL     1       9.712   6.269   1.741  0.00  0.00    +0.104 C 
ATOM     12  C   UNL     1       9.187   7.232   5.277  0.00  0.00    +0.305 C 
ENDROOT
BRANCH   4  13
ATOM     13  C   UNL     1      10.702   4.226   0.922  0.00  0.00    +0.121 C 
BRANCH  13  15
ATOM      6  N   UNL     1      13.005   4.664  -1.915  0.00  0.00    -0.349 N 
ATOM     15  C   UNL     1      11.848   4.336  -0.048  0.00  0.00    -0.008 A 
ATOM     17  C   UNL     1      13.224   4.116   0.237  0.00  0.00    +0.004 A 
ATOM     18  C   UNL     1      11.745   4.671  -1.379  0.00  0.00    +0.091 A 
ATOM     19  C   UNL     1      13.928   4.328  -0.950  0.00  0.00    +0.049 A 
ATOM     20  C   UNL     1      13.941   3.755   1.396  0.00  0.00    +0.010 A 
ATOM     21  C   UNL     1      15.319   4.197  -1.037  0.00  0.00    +0.026 A 
ATOM     22  C   UNL     1      13.306   4.967  -3.296  0.00  0.00    +0.149 C 
ATOM     23  C   UNL     1      15.332   3.621   1.324  0.00  0.00    +0.001 A 
ATOM     24  C   UNL     1      16.009   3.839   0.125  0.00  0.00    +0.002 A 
ENDBRANCH  13  15
ENDBRANCH   4  13
BRANCH   5  14
ATOM     14  C   UNL     1       9.097   6.355   7.661  0.00  0.00    +0.137 C 
BRANCH  14  16
ATOM     16  C   UNL     1      10.062   5.652   8.598  0.00  0.00    +0.178 C 
BRANCH  16   2
ATOM      2  O   UNL     1       9.473   4.445   9.065  0.00  0.00    -0.381 OA
ATOM     25  C   UNL     1       8.818   4.632  10.311  0.00  0.00    +0.194 C 
ENDBRANCH  16   2
ENDBRANCH  14  16
ENDBRANCH   5  14
TORSDOF 5
ENDMDL
MODEL 3
REMARK VINA RESULT:      -5.8     16.015     17.497
REMARK  Name = 75368706
REMARK  7 active torsions:
REMARK  status: ('A' for Active; 'I' for Inactive)
REMARK    1  A    between atoms: O_2  and  C_16
REMARK    2  A    between atoms: O_2  and  C_25
REMARK    3  A    between atoms: N_4  and  C_13
REMARK    4  A    between atoms: N_5  and  C_14
REMARK    5  A    between atoms: N_6  and  C_22
REMARK    6  A    between atoms: C_13  and  C_15
REMARK    7  A    between atoms: C_14  and  C_16
REMARK                            x       y       z     vdW  Elec       q    Type
REMARK                         _______ _______ _______ _____ _____    ______ ____
ROOT
ATOM      1  O   UNL     1     -14.130  -8.410  14.180  0.00  0.00    -0.252 OA
ATOM      3  N   UNL     1     -11.873  -8.268  14.815  0.00  0.00    -0.278 N 
ATOM      4  N   UNL     1      -9.517  -8.781  16.262  0.00  0.00    -0.295 NA
ATOM      5  N   UNL     1     -12.971  -6.364  14.357  0.00  0.00    -0.281 N 
ATOM      7  C   UNL     1     -10.861  -7.236  14.896  0.00  0.00    +0.109 C 
ATOM      8  C   UNL     1     -10.035  -7.401  16.172  0.00  0.00    +0.109 C 
ATOM      9  C   UNL     1     -11.660  -5.938  14.812  0.00  0.00    +0.133 C 
ATOM     10  C   UNL     1     -11.498  -9.649  15.038  0.00  0.00    +0.125 C 
ATOM     11  C   UNL     1     -10.623  -9.759  16.289  0.00  0.00    +0.104 C 
ATOM     12  C   UNL     1     -13.119  -7.764  14.417  0.00  0.00    +0.305 C 
ENDROOT
BRANCH   4  13
ATOM     13  C   UNL     1      -8.675  -8.933  17.448  0.00  0.00    +0.121 C 
BRANCH  13  15
ATOM      6  N   UNL     1      -5.587 -10.320  16.005  0.00  0.00    -0.349 N 
ATOM     15  C   UNL     1      -7.363  -9.598  17.124  0.00  0.00    -0.008 A 
ATOM     17  C   UNL     1      -6.529 -10.311  18.029  0.00  0.00    +0.004 A 
ATOM     18  C   UNL     1      -6.758  -9.621  15.888  0.00  0.00    +0.091 A 
ATOM     19  C   UNL     1      -5.421 -10.754  17.302  0.00  0.00    +0.049 A 
ATOM     20  C   UNL     1      -6.609 -10.623  19.400  0.00  0.00    +0.010 A 
ATOM     21  C   UNL     1      -4.385 -11.496  17.881  0.00  0.00    +0.026 A 
ATOM     22  C   UNL     1      -4.668 -10.561  14.915  0.00  0.00    +0.149 C 
ATOM     23  C   UNL     1      -5.580 -11.365  19.993  0.00  0.00    +0.001 A 
ATOM     24  C   UNL     1      -4.487 -11.794  19.243  0.00  0.00    +0.002 A 
ENDBRANCH  13  15
ENDBRANCH   4  13
BRANCH   5  14
ATOM     14  C   UNL     1     -14.017  -5.417  14.039  0.00  0.00    +0.137 C 
BRANCH  14  16
ATOM     16  C   UNL     1     -13.480  -4.238  13.248  0.00  0.00    +0.178 C 
BRANCH  16   2
ATOM      2  O   UNL     1     -14.465  -3.214  13.198  0.00  0.00    -0.381 OA
ATOM     25  C   UNL     1     -14.999  -3.066  11.890  0.00  0.00    +0.194 C 
ENDBRANCH  16   2
ENDBRANCH  14  16
ENDBRANCH   5  14
TORSDOF 5
ENDMDL
MODEL 4
REMARK VINA RESULT:      -5.6     20.317     22.731
REMARK  Name = 75368706
REMARK  7 active torsions:
REMARK  status: ('A' for Active; 'I' for Inactive)
REMARK    1  A    between atoms: O_2  and  C_16
REMARK    2  A    between atoms: O_2  and  C_25
REMARK    3  A    between atoms: N_4  and  C_13
REMARK    4  A    between atoms: N_5  and  C_14
REMARK    5  A    between atoms: N_6  and  C_22
REMARK    6  A    between atoms: C_13  and  C_15
REMARK    7  A    between atoms: C_14  and  C_16
REMARK                            x       y       z     vdW  Elec       q    Type
REMARK                         _______ _______ _______ _____ _____    ______ ____
ROOT
ATOM      1  O   UNL     1      -5.860 -10.403  18.777  0.00  0.00    -0.252 OA
ATOM      3  N   UNL     1      -5.336 -11.000  16.567  0.00  0.00    -0.278 N 
ATOM      4  N   UNL     1      -3.790 -11.390  14.251  0.00  0.00    -0.295 NA
ATOM      5  N   UNL     1      -7.224  -9.843  16.937  0.00  0.00    -0.281 N 
ATOM      7  C   UNL     1      -5.982 -10.936  15.273  0.00  0.00    +0.109 C 
ATOM      8  C   UNL     1      -4.979 -10.516  14.198  0.00  0.00    +0.109 C 
ATOM      9  C   UNL     1      -7.135  -9.959  15.492  0.00  0.00    +0.133 C 
ATOM     10  C   UNL     1      -4.079 -11.709  16.698  0.00  0.00    +0.125 C 
ATOM     11  C   UNL     1      -3.129 -11.303  15.569  0.00  0.00    +0.104 C 
ATOM     12  C   UNL     1      -6.109 -10.418  17.580  0.00  0.00    +0.305 C 
ENDROOT
BRANCH   4  13
ATOM     13  C   UNL     1      -2.850 -11.035  13.187  0.00  0.00    +0.121 C 
BRANCH  13  15
ATOM      6  N   UNL     1      -3.863 -12.873  10.164  0.00  0.00    -0.349 N 
ATOM     15  C   UNL     1      -3.315 -11.526  11.841  0.00  0.00    -0.008 A 
ATOM     17  C   UNL     1      -3.748 -10.723  10.750  0.00  0.00    +0.004 A 
ATOM     18  C   UNL     1      -3.398 -12.844  11.451  0.00  0.00    +0.091 A 
ATOM     19  C   UNL     1      -4.086 -11.593   9.710  0.00  0.00    +0.049 A 
ATOM     20  C   UNL     1      -3.885  -9.336  10.546  0.00  0.00    +0.010 A 
ATOM     21  C   UNL     1      -4.557 -11.142   8.471  0.00  0.00    +0.026 A 
ATOM     22  C   UNL     1      -4.084 -14.084   9.404  0.00  0.00    +0.149 C 
ATOM     23  C   UNL     1      -4.355  -8.870   9.311  0.00  0.00    +0.001 A 
ATOM     24  C   UNL     1      -4.684  -9.761   8.292  0.00  0.00    +0.002 A 
ENDBRANCH  13  15
ENDBRANCH   4  13
BRANCH   5  14
ATOM     14  C   UNL     1      -8.273  -9.084  17.581  0.00  0.00    +0.137 C 
BRANCH  14  16
ATOM     16  C   UNL     1      -9.427  -8.811  16.634  0.00  0.00    +0.178 C 
BRANCH  16   2
ATOM      2  O   UNL     1      -9.937  -7.507  16.873  0.00  0.00    -0.381 OA
ATOM     25  C   UNL     1     -10.207  -6.821  15.659  0.00  0.00    +0.194 C 
ENDBRANCH  16   2
ENDBRANCH  14  16
ENDBRANCH   5  14
TORSDOF 5
ENDMDL
MODEL 5
REMARK VINA RESULT:      -5.6     30.697     36.871
REMARK  Name = 75368706
REMARK  7 active torsions:
REMARK  status: ('A' for Active; 'I' for Inactive)
REMARK    1  A    between atoms: O_2  and  C_16
REMARK    2  A    between atoms: O_2  and  C_25
REMARK    3  A    between atoms: N_4  and  C_13
REMARK    4  A    between atoms: N_5  and  C_14
REMARK    5  A    between atoms: N_6  and  C_22
REMARK    6  A    between atoms: C_13  and  C_15
REMARK    7  A    between atoms: C_14  and  C_16
REMARK                            x       y       z     vdW  Elec       q    Type
REMARK                         _______ _______ _______ _____ _____    ______ ____
ROOT
ATOM      1  O   UNL     1      13.101   7.588   5.774  0.00  0.00    -0.252 OA
ATOM      3  N   UNL     1      12.050   6.437   4.016  0.00  0.00    -0.278 N 
ATOM      4  N   UNL     1      10.940   5.979   1.474  0.00  0.00    -0.295 NA
ATOM      5  N   UNL     1      11.209   6.214   6.086  0.00  0.00    -0.281 N 
ATOM      7  C   UNL     1      10.998   5.452   3.877  0.00  0.00    +0.109 C 
ATOM      8  C   UNL     1      10.109   5.790   2.680  0.00  0.00    +0.109 C 
ATOM      9  C   UNL     1      10.292   5.483   5.230  0.00  0.00    +0.133 C 
ATOM     10  C   UNL     1      12.831   6.810   2.855  0.00  0.00    +0.125 C 
ATOM     11  C   UNL     1      11.905   7.080   1.666  0.00  0.00    +0.104 C 
ATOM     12  C   UNL     1      12.233   6.839   5.346  0.00  0.00    +0.305 C 
ENDROOT
BRANCH   4  13
ATOM     13  C   UNL     1      10.094   6.243   0.309  0.00  0.00    +0.121 C 
BRANCH  13  15
ATOM      6  N   UNL     1      11.100   3.494  -1.921  0.00  0.00    -0.349 N 
ATOM     15  C   UNL     1      10.304   5.223  -0.778  0.00  0.00    -0.008 A 
ATOM     17  C   UNL     1       9.598   5.142  -2.011  0.00  0.00    +0.004 A 
ATOM     18  C   UNL     1      11.220   4.196  -0.752  0.00  0.00    +0.091 A 
ATOM     19  C   UNL     1      10.117   4.049  -2.709  0.00  0.00    +0.049 A 
ATOM     20  C   UNL     1       8.564   5.895  -2.602  0.00  0.00    +0.010 A 
ATOM     21  C   UNL     1       9.651   3.670  -3.973  0.00  0.00    +0.026 A 
ATOM     22  C   UNL     1      11.898   2.337  -2.263  0.00  0.00    +0.149 C 
ATOM     23  C   UNL     1       8.089   5.528  -3.866  0.00  0.00    +0.001 A 
ATOM     24  C   UNL     1       8.625   4.432  -4.540  0.00  0.00    +0.002 A 
ENDBRANCH  13  15
ENDBRANCH   4  13
BRANCH   5  14
ATOM     14  C   UNL     1      10.969   6.380   7.503  0.00  0.00    +0.137 C 
BRANCH  14  16
ATOM     16  C   UNL     1      10.031   5.313   8.038  0.00  0.00    +0.178 C 
BRANCH  16   2
ATOM      2  O   UNL     1      10.270   5.126   9.426  0.00  0.00    -0.381 OA
ATOM     25  C   UNL     1       9.142   4.561  10.079  0.00  0.00    +0.194 C 
ENDBRANCH  16   2
ENDBRANCH  14  16
ENDBRANCH   5  14
TORSDOF 5
ENDMDL
MODEL 6
REMARK VINA RESULT:      -5.5     30.458     36.558
REMARK  Name = 75368706
REMARK  7 active torsions:
REMARK  status: ('A' for Active; 'I' for Inactive)
REMARK    1  A    between atoms: O_2  and  C_16
REMARK    2  A    between atoms: O_2  and  C_25
REMARK    3  A    between atoms: N_4  and  C_13
REMARK    4  A    between atoms: N_5  and  C_14
REMARK    5  A    between atoms: N_6  and  C_22
REMARK    6  A    between atoms: C_13  and  C_15
REMARK    7  A    between atoms: C_14  and  C_16
REMARK                            x       y       z     vdW  Elec       q    Type
REMARK                         _______ _______ _______ _____ _____    ______ ____
ROOT
ATOM      1  O   UNL     1       8.882   8.157   6.136  0.00  0.00    -0.252 OA
ATOM      3  N   UNL     1       9.943   6.952   4.422  0.00  0.00    -0.278 N 
ATOM      4  N   UNL     1      10.387   5.862   1.868  0.00  0.00    -0.295 NA
ATOM      5  N   UNL     1       9.803   6.010   6.455  0.00  0.00    -0.281 N 
ATOM      7  C   UNL     1      10.699   5.723   4.305  0.00  0.00    +0.109 C 
ATOM      8  C   UNL     1      10.293   4.967   3.040  0.00  0.00    +0.109 C 
ATOM      9  C   UNL     1      10.403   4.991   5.612  0.00  0.00    +0.133 C 
ATOM     10  C   UNL     1       9.843   7.835   3.278  0.00  0.00    +0.125 C 
ATOM     11  C   UNL     1       9.496   7.029   2.024  0.00  0.00    +0.104 C 
ATOM     12  C   UNL     1       9.471   7.168   5.723  0.00  0.00    +0.305 C 
ENDROOT
BRANCH   4  13
ATOM     13  C   UNL     1      10.060   5.132   0.643  0.00  0.00    +0.121 C 
BRANCH  13  15
ATOM      6  N   UNL     1      13.417   4.242  -0.573  0.00  0.00    -0.349 N 
ATOM     15  C   UNL     1      11.296   4.694  -0.096  0.00  0.00    -0.008 A 
ATOM     17  C   UNL     1      11.354   4.184  -1.423  0.00  0.00    +0.004 A 
ATOM     18  C   UNL     1      12.580   4.717   0.400  0.00  0.00    +0.091 A 
ATOM     19  C   UNL     1      12.695   3.909  -1.698  0.00  0.00    +0.049 A 
ATOM     20  C   UNL     1      10.391   3.930  -2.420  0.00  0.00    +0.010 A 
ATOM     21  C   UNL     1      13.124   3.388  -2.925  0.00  0.00    +0.026 A 
ATOM     22  C   UNL     1      14.850   4.114  -0.426  0.00  0.00    +0.149 C 
ATOM     23  C   UNL     1      10.805   3.410  -3.652  0.00  0.00    +0.001 A 
ATOM     24  C   UNL     1      12.150   3.144  -3.898  0.00  0.00    +0.002 A 
ENDBRANCH  13  15
ENDBRANCH   4  13
BRANCH   5  14
ATOM     14  C   UNL     1       9.466   5.759   7.839  0.00  0.00    +0.137 C 
BRANCH  14  16
ATOM     16  C   UNL     1       9.867   4.359   8.266  0.00  0.00    +0.178 C 
BRANCH  16   2
ATOM      2  O   UNL     1       9.992   4.314   9.681  0.00  0.00    -0.381 OA
ATOM     25  C   UNL     1       8.781   4.684  10.324  0.00  0.00    +0.194 C 
ENDBRANCH  16   2
ENDBRANCH  14  16
ENDBRANCH   5  14
TORSDOF 5
ENDMDL
MODEL 7
REMARK VINA RESULT:      -5.4      4.409      9.825
REMARK  Name = 75368706
REMARK  7 active torsions:
REMARK  status: ('A' for Active; 'I' for Inactive)
REMARK    1  A    between atoms: O_2  and  C_16
REMARK    2  A    between atoms: O_2  and  C_25
REMARK    3  A    between atoms: N_4  and  C_13
REMARK    4  A    between atoms: N_5  and  C_14
REMARK    5  A    between atoms: N_6  and  C_22
REMARK    6  A    between atoms: C_13  and  C_15
REMARK    7  A    between atoms: C_14  and  C_16
REMARK                            x       y       z     vdW  Elec       q    Type
REMARK                         _______ _______ _______ _____ _____    ______ ____
ROOT
ATOM      1  O   UNL     1     -18.595   4.590  22.164  0.00  0.00    -0.252 OA
ATOM      3  N   UNL     1     -16.457   5.515  22.465  0.00  0.00    -0.278 N 
ATOM      4  N   UNL     1     -13.908   6.500  21.804  0.00  0.00    -0.295 NA
ATOM      5  N   UNL     1     -17.127   3.904  23.878  0.00  0.00    -0.281 N 
ATOM      7  C   UNL     1     -15.396   5.427  23.445  0.00  0.00    +0.109 C 
ATOM      8  C   UNL     1     -14.035   5.373  22.751  0.00  0.00    +0.109 C 
ATOM      9  C   UNL     1     -15.753   4.183  24.255  0.00  0.00    +0.133 C 
ATOM     10  C   UNL     1     -16.359   6.491  21.398  0.00  0.00    +0.125 C 
ATOM     11  C   UNL     1     -14.963   6.443  20.773  0.00  0.00    +0.104 C 
ATOM     12  C   UNL     1     -17.530   4.664  22.761  0.00  0.00    +0.305 C 
ENDROOT
BRANCH   4  13
ATOM     13  C   UNL     1     -12.585   6.492  21.179  0.00  0.00    +0.121 C 
BRANCH  13  15
ATOM      6  N   UNL     1     -11.984  10.040  20.409  0.00  0.00    -0.349 N 
ATOM     15  C   UNL     1     -12.220   7.843  20.623  0.00  0.00    -0.008 A 
ATOM     17  C   UNL     1     -11.562   8.101  19.388  0.00  0.00    +0.004 A 
ATOM     18  C   UNL     1     -12.466   9.055  21.228  0.00  0.00    +0.091 A 
ATOM     19  C   UNL     1     -11.427   9.487  19.278  0.00  0.00    +0.049 A 
ATOM     20  C   UNL     1     -11.068   7.287  18.350  0.00  0.00    +0.010 A 
ATOM     21  C   UNL     1     -10.819  10.101  18.177  0.00  0.00    +0.026 A 
ATOM     22  C   UNL     1     -12.058  11.454  20.704  0.00  0.00    +0.149 C 
ATOM     23  C   UNL     1     -10.458   7.888  17.242  0.00  0.00    +0.001 A 
ATOM     24  C   UNL     1     -10.336   9.273  17.160  0.00  0.00    +0.002 A 
ENDBRANCH  13  15
ENDBRANCH   4  13
BRANCH   5  14
ATOM     14  C   UNL     1     -17.896   2.852  24.506  0.00  0.00    +0.137 C 
BRANCH  14  16
ATOM     16  C   UNL     1     -17.007   1.712  24.970  0.00  0.00    +0.178 C 
BRANCH  16   2
ATOM      2  O   UNL     1     -17.353   0.527  24.266  0.00  0.00    -0.381 OA
ATOM     25  C   UNL     1     -18.329   0.781  23.265  0.00  0.00    +0.194 C 
ENDBRANCH  16   2
ENDBRANCH  14  16
ENDBRANCH   5  14
TORSDOF 5
ENDMDL
MODEL 8
REMARK VINA RESULT:      -5.4     19.637     21.499
REMARK  Name = 75368706
REMARK  7 active torsions:
REMARK  status: ('A' for Active; 'I' for Inactive)
REMARK    1  A    between atoms: O_2  and  C_16
REMARK    2  A    between atoms: O_2  and  C_25
REMARK    3  A    between atoms: N_4  and  C_13
REMARK    4  A    between atoms: N_5  and  C_14
REMARK    5  A    between atoms: N_6  and  C_22
REMARK    6  A    between atoms: C_13  and  C_15
REMARK    7  A    between atoms: C_14  and  C_16
REMARK                            x       y       z     vdW  Elec       q    Type
REMARK                         _______ _______ _______ _____ _____    ______ ____
ROOT
ATOM      1  O   UNL     1      -8.657 -11.066  19.961  0.00  0.00    -0.252 OA
ATOM      3  N   UNL     1      -7.095 -11.300  18.222  0.00  0.00    -0.278 N 
ATOM      4  N   UNL     1      -4.596 -11.478  16.945  0.00  0.00    -0.295 NA
ATOM      5  N   UNL     1      -8.858  -9.947  17.895  0.00  0.00    -0.281 N 
ATOM      7  C   UNL     1      -6.982 -10.883  16.840  0.00  0.00    +0.109 C 
ATOM      8  C   UNL     1      -5.554 -10.430  16.537  0.00  0.00    +0.109 C 
ATOM      9  C   UNL     1      -8.043  -9.794  16.702  0.00  0.00    +0.133 C 
ATOM     10  C   UNL     1      -6.114 -12.214  18.770  0.00  0.00    +0.125 C 
ATOM     11  C   UNL     1      -4.704 -11.756  18.392  0.00  0.00    +0.104 C 
ATOM     12  C   UNL     1      -8.255 -10.808  18.835  0.00  0.00    +0.305 C 
ENDROOT
BRANCH   4  13
ATOM     13  C   UNL     1      -3.230 -11.080  16.604  0.00  0.00    +0.121 C 
BRANCH  13  15
ATOM      6  N   UNL     1      -2.286 -10.951  13.049  0.00  0.00    -0.349 N 
ATOM     15  C   UNL     1      -2.930 -11.301  15.145  0.00  0.00    -0.008 A 
ATOM     17  C   UNL     1      -3.126 -12.505  14.413  0.00  0.00    +0.004 A 
ATOM     18  C   UNL     1      -2.413 -10.364  14.279  0.00  0.00    +0.091 A 
ATOM     19  C   UNL     1      -2.714 -12.259  13.102  0.00  0.00    +0.049 A 
ATOM     20  C   UNL     1      -3.614 -13.785  14.742  0.00  0.00    +0.010 A 
ATOM     21  C   UNL     1      -2.767 -13.233  12.098  0.00  0.00    +0.026 A 
ATOM     22  C   UNL     1      -1.775 -10.281  11.874  0.00  0.00    +0.149 C 
ATOM     23  C   UNL     1      -3.673 -14.770  13.748  0.00  0.00    +0.001 A 
ATOM     24  C   UNL     1      -3.256 -14.495  12.447  0.00  0.00    +0.002 A 
ENDBRANCH  13  15
ENDBRANCH   4  13
BRANCH   5  14
ATOM     14  C   UNL     1     -10.057  -9.169  18.109  0.00  0.00    +0.137 C 
BRANCH  14  16
ATOM     16  C   UNL     1     -10.610  -8.624  16.804  0.00  0.00    +0.178 C 
BRANCH  16   2
ATOM      2  O   UNL     1     -10.712  -7.209  16.888  0.00  0.00    -0.381 OA
ATOM     25  C   UNL     1     -10.327  -6.586  15.671  0.00  0.00    +0.194 C 
ENDBRANCH  16   2
ENDBRANCH  14  16
ENDBRANCH   5  14
TORSDOF 5
ENDMDL
MODEL 9
REMARK VINA RESULT:      -5.4     32.132     38.148
REMARK  Name = 75368706
REMARK  7 active torsions:
REMARK  status: ('A' for Active; 'I' for Inactive)
REMARK    1  A    between atoms: O_2  and  C_16
REMARK    2  A    between atoms: O_2  and  C_25
REMARK    3  A    between atoms: N_4  and  C_13
REMARK    4  A    between atoms: N_5  and  C_14
REMARK    5  A    between atoms: N_6  and  C_22
REMARK    6  A    between atoms: C_13  and  C_15
REMARK    7  A    between atoms: C_14  and  C_16
REMARK                            x       y       z     vdW  Elec       q    Type
REMARK                         _______ _______ _______ _____ _____    ______ ____
ROOT
ATOM      1  O   UNL     1       9.375   5.139   5.076  0.00  0.00    -0.252 OA
ATOM      3  N   UNL     1      10.937   5.340   3.333  0.00  0.00    -0.278 N 
ATOM      4  N   UNL     1      12.815   4.562   1.389  0.00  0.00    -0.295 NA
ATOM      5  N   UNL     1      11.054   6.794   5.039  0.00  0.00    -0.281 N 
ATOM      7  C   UNL     1      11.971   6.275   2.943  0.00  0.00    +0.109 C 
ATOM      8  C   UNL     1      13.205   5.524   2.440  0.00  0.00    +0.109 C 
ATOM      9  C   UNL     1      12.197   7.110   4.201  0.00  0.00    +0.133 C 
ATOM     10  C   UNL     1      10.580   4.262   2.434  0.00  0.00    +0.125 C 
ATOM     11  C   UNL     1      11.845   3.578   1.909  0.00  0.00    +0.104 C 
ATOM     12  C   UNL     1      10.331   5.689   4.547  0.00  0.00    +0.305 C 
ENDROOT
BRANCH   4  13
ATOM     13  C   UNL     1      13.996   3.882   0.858  0.00  0.00    +0.121 C 
BRANCH  13  15
ATOM      6  N   UNL     1      14.934   4.787  -2.583  0.00  0.00    -0.349 N 
ATOM     15  C   UNL     1      14.149   4.098  -0.624  0.00  0.00    -0.008 A 
ATOM     17  C   UNL     1      13.303   3.586  -1.646  0.00  0.00    +0.004 A 
ATOM     18  C   UNL     1      15.143   4.832  -1.231  0.00  0.00    +0.091 A 
ATOM     19  C   UNL     1      13.817   4.033  -2.866  0.00  0.00    +0.049 A 
ATOM     20  C   UNL     1      12.145   2.783  -1.652  0.00  0.00    +0.010 A 
ATOM     21  C   UNL     1      13.229   3.715  -4.095  0.00  0.00    +0.026 A 
ATOM     22  C   UNL     1      15.775   5.442  -3.560  0.00  0.00    +0.149 C 
ATOM     23  C   UNL     1      11.545   2.458  -2.874  0.00  0.00    +0.001 A 
ATOM     24  C   UNL     1      12.081   2.917  -4.076  0.00  0.00    +0.002 A 
ENDBRANCH  13  15
ENDBRANCH   4  13
BRANCH   5  14
ATOM     14  C   UNL     1      10.820   7.464   6.299  0.00  0.00    +0.137 C 
BRANCH  14  16
ATOM     16  C   UNL     1      11.269   6.615   7.475  0.00  0.00    +0.178 C 
BRANCH  16   2
ATOM      2  O   UNL     1      10.130   6.166   8.196  0.00  0.00    -0.381 OA
ATOM     25  C   UNL     1       9.038   7.065   8.059  0.00  0.00    +0.194 C 
ENDBRANCH  16   2
ENDBRANCH  14  16
ENDBRANCH   5  14
TORSDOF 5
ENDMDL
MODEL 10
REMARK VINA RESULT:      -5.4     21.094     24.063
REMARK  Name = 75368706
REMARK  7 active torsions:
REMARK  status: ('A' for Active; 'I' for Inactive)
REMARK    1  A    between atoms: O_2  and  C_16
REMARK    2  A    between atoms: O_2  and  C_25
REMARK    3  A    between atoms: N_4  and  C_13
REMARK    4  A    between atoms: N_5  and  C_14
REMARK    5  A    between atoms: N_6  and  C_22
REMARK    6  A    between atoms: C_13  and  C_15
REMARK    7  A    between atoms: C_14  and  C_16
REMARK                            x       y       z     vdW  Elec       q    Type
REMARK                         _______ _______ _______ _____ _____    ______ ____
ROOT
ATOM      1  O   UNL     1      -2.469 -10.954  15.644  0.00  0.00    -0.252 OA
ATOM      3  N   UNL     1      -3.472 -10.837  13.523  0.00  0.00    -0.278 N 
ATOM      4  N   UNL     1      -3.792 -10.200  10.803  0.00  0.00    -0.295 NA
ATOM      5  N   UNL     1      -4.743 -10.415  15.325  0.00  0.00    -0.281 N 
ATOM      7  C   UNL     1      -4.809 -10.670  12.994  0.00  0.00    +0.109 C 
ATOM      8  C   UNL     1      -4.790  -9.733  11.786  0.00  0.00    +0.109 C 
ATOM      9  C   UNL     1      -5.611 -10.160  14.189  0.00  0.00    +0.133 C 
ATOM     10  C   UNL     1      -2.385 -11.149  12.618  0.00  0.00    +0.125 C 
ATOM     11  C   UNL     1      -2.440 -10.229  11.397  0.00  0.00    +0.104 C 
ATOM     12  C   UNL     1      -3.438 -10.764  14.922  0.00  0.00    +0.305 C 
ENDROOT
BRANCH   4  13
ATOM     13  C   UNL     1      -3.808  -9.344   9.616  0.00  0.00    +0.121 C 
BRANCH  13  15
ATOM      6  N   UNL     1      -5.918 -10.888   7.026  0.00  0.00    -0.349 N 
ATOM     15  C   UNL     1      -4.861  -9.774   8.630  0.00  0.00    -0.008 A 
ATOM     17  C   UNL     1      -6.139  -9.177   8.441  0.00  0.00    +0.004 A 
ATOM     18  C   UNL     1      -4.755 -10.823   7.746  0.00  0.00    +0.091 A 
ATOM     19  C   UNL     1      -6.781  -9.895   7.430  0.00  0.00    +0.049 A 
ATOM     20  C   UNL     1      -6.813  -8.092   9.036  0.00  0.00    +0.010 A 
ATOM     21  C   UNL     1      -8.070  -9.580   6.982  0.00  0.00    +0.026 A 
ATOM     22  C   UNL     1      -6.185 -11.866   5.994  0.00  0.00    +0.149 C 
ATOM     23  C   UNL     1      -8.102  -7.765   8.598  0.00  0.00    +0.001 A 
ATOM     24  C   UNL     1      -8.718  -8.499   7.587  0.00  0.00    +0.002 A 
ENDBRANCH  13  15
ENDBRANCH   4  13
BRANCH   5  14
ATOM     14  C   UNL     1      -5.171 -10.174  16.686  0.00  0.00    +0.137 C 
BRANCH  14  16
ATOM     16  C   UNL     1      -5.632 -11.454  17.360  0.00  0.00    +0.178 C 
BRANCH  16   2
ATOM      2  O   UNL     1      -5.297 -11.409  18.740  0.00  0.00    -0.381 OA
ATOM     25  C   UNL     1      -3.991 -11.916  18.976  0.00  0.00    +0.194 C 
ENDBRANCH  16   2
ENDBRANCH  14  16
ENDBRANCH   5  14
TORSDOF 5
ENDMDL
