MODEL 1
REMARK VINA RESULT:      -7.9      0.000      0.000
REMARK  Name = 75367175
REMARK  4 active torsions:
REMARK  status: ('A' for Active; 'I' for Inactive)
REMARK    1  A    between atoms: N_4  and  C_10
REMARK    2  A    between atoms: C_7  and  C_12
REMARK    3  A    between atoms: C_10  and  C_13
REMARK    4  A    between atoms: C_14  and  C_18
REMARK                            x       y       z     vdW  Elec       q    Type
REMARK                         _______ _______ _______ _____ _____    ______ ____
ROOT
ATOM      3  O   UNL     1      16.316   7.081  21.533  0.00  0.00    -0.377 OA
ATOM      4  N   UNL     1      14.132   7.482  19.724  0.00  0.00    -0.285 NA
ATOM      7  C   UNL     1      13.906   7.309  21.182  0.00  0.00    +0.149 C 
ATOM      8  C   UNL     1      15.387   6.823  19.321  0.00  0.00    +0.113 C 
ATOM      9  C   UNL     1      15.146   7.775  21.968  0.00  0.00    +0.186 C 
ATOM     11  C   UNL     1      16.557   7.331  20.151  0.00  0.00    +0.175 C 
ENDROOT
BRANCH   7  12
ATOM      5  N   UNL     1      12.733   9.384  22.000  0.00  0.00    -0.341 N 
ATOM      6  N   UNL     1      11.491   7.545  21.922  0.00  0.00    -0.238 NA
ATOM     12  C   UNL     1      12.684   8.051  21.702  0.00  0.00    +0.127 A 
ATOM     14  C   UNL     1      11.493   9.751  22.439  0.00  0.00    +0.066 A 
ATOM     15  C   UNL     1      10.744   8.601  22.382  0.00  0.00    +0.139 A 
ATOM     27  H   UNL     1      13.543   9.983  21.901  0.00  0.00    +0.167 HD
BRANCH  14  18
ATOM      2  F   UNL     1      10.315  12.927  25.873  0.00  0.00    -0.205 F 
ATOM     18  C   UNL     1      11.163  11.091  22.849  0.00  0.00    +0.003 A 
ATOM     21  C   UNL     1      10.894  11.366  24.189  0.00  0.00    +0.048 A 
ATOM     22  C   UNL     1      11.114  12.117  21.903  0.00  0.00    +0.010 A 
ATOM     24  C   UNL     1      10.575  12.665  24.586  0.00  0.00    +0.124 A 
ATOM     25  C   UNL     1      10.796  13.416  22.300  0.00  0.00    +0.003 A 
ATOM     26  C   UNL     1      10.526  13.689  23.640  0.00  0.00    +0.038 A 
ENDBRANCH  14  18
ENDBRANCH   7  12
BRANCH   4  10
ATOM     10  C   UNL     1      13.026   6.942  18.925  0.00  0.00    +0.120 C 
BRANCH  10  13
ATOM      1  F   UNL     1      11.730  10.304  14.593  0.00  0.00    -0.205 F 
ATOM     13  C   UNL     1      12.679   7.841  17.768  0.00  0.00    -0.033 A 
ATOM     16  C   UNL     1      11.346   8.143  17.495  0.00  0.00    +0.008 A 
ATOM     17  C   UNL     1      13.693   8.370  16.968  0.00  0.00    +0.008 A 
ATOM     19  C   UNL     1      11.025   8.976  16.424  0.00  0.00    +0.038 A 
ATOM     20  C   UNL     1      13.372   9.202  15.896  0.00  0.00    +0.038 A 
ATOM     23  C   UNL     1      12.038   9.506  15.623  0.00  0.00    +0.123 A 
ENDBRANCH  10  13
ENDBRANCH   4  10
TORSDOF 4
ENDMDL
MODEL 2
REMARK VINA RESULT:      -6.9      2.701      4.198
REMARK  Name = 75367175
REMARK  4 active torsions:
REMARK  status: ('A' for Active; 'I' for Inactive)
REMARK    1  A    between atoms: N_4  and  C_10
REMARK    2  A    between atoms: C_7  and  C_12
REMARK    3  A    between atoms: C_10  and  C_13
REMARK    4  A    between atoms: C_14  and  C_18
REMARK                            x       y       z     vdW  Elec       q    Type
REMARK                         _______ _______ _______ _____ _____    ______ ____
ROOT
ATOM      3  O   UNL     1      14.062   9.972  16.843  0.00  0.00    -0.377 OA
ATOM      4  N   UNL     1      13.431   7.840  18.648  0.00  0.00    -0.285 NA
ATOM      7  C   UNL     1      13.459   9.253  19.102  0.00  0.00    +0.149 C 
ATOM      8  C   UNL     1      14.318   7.660  17.485  0.00  0.00    +0.113 C 
ATOM      9  C   UNL     1      13.152  10.195  17.921  0.00  0.00    +0.186 C 
ATOM     11  C   UNL     1      13.955   8.631  16.371  0.00  0.00    +0.175 C 
ENDROOT
BRANCH   7  12
ATOM      5  N   UNL     1      12.370  10.806  20.762  0.00  0.00    -0.341 N 
ATOM      6  N   UNL     1      11.680   8.696  20.824  0.00  0.00    -0.238 NA
ATOM     12  C   UNL     1      12.487   9.550  20.235  0.00  0.00    +0.127 A 
ATOM     14  C   UNL     1      11.428  10.748  21.750  0.00  0.00    +0.066 A 
ATOM     15  C   UNL     1      11.017   9.437  21.770  0.00  0.00    +0.139 A 
ATOM     27  H   UNL     1      12.883  11.624  20.462  0.00  0.00    +0.167 HD
BRANCH  14  18
ATOM      2  F   UNL     1      10.392  12.759  26.011  0.00  0.00    -0.205 F 
ATOM     18  C   UNL     1      11.036  11.888  22.538  0.00  0.00    +0.003 A 
ATOM     21  C   UNL     1      10.902  11.769  23.921  0.00  0.00    +0.048 A 
ATOM     22  C   UNL     1      10.792  13.113  21.916  0.00  0.00    +0.010 A 
ATOM     24  C   UNL     1      10.523  12.875  24.683  0.00  0.00    +0.124 A 
ATOM     25  C   UNL     1      10.413  14.219  22.677  0.00  0.00    +0.003 A 
ATOM     26  C   UNL     1      10.279  14.099  24.060  0.00  0.00    +0.038 A 
ENDBRANCH  14  18
ENDBRANCH   7  12
BRANCH   4  10
ATOM     10  C   UNL     1      13.833   6.910  19.709  0.00  0.00    +0.120 C 
BRANCH  10  13
ATOM      1  F   UNL     1      19.344   7.258  20.831  0.00  0.00    -0.205 F 
ATOM     13  C   UNL     1      15.305   7.003  20.008  0.00  0.00    -0.033 A 
ATOM     16  C   UNL     1      16.208   6.181  19.334  0.00  0.00    +0.008 A 
ATOM     17  C   UNL     1      15.767   7.911  20.962  0.00  0.00    +0.008 A 
ATOM     19  C   UNL     1      17.572   6.268  19.610  0.00  0.00    +0.038 A 
ATOM     20  C   UNL     1      17.131   7.998  21.240  0.00  0.00    +0.038 A 
ATOM     23  C   UNL     1      18.034   7.176  20.564  0.00  0.00    +0.123 A 
ENDBRANCH  10  13
ENDBRANCH   4  10
TORSDOF 4
ENDMDL
MODEL 3
REMARK VINA RESULT:      -6.8      1.791      2.338
REMARK  Name = 75367175
REMARK  4 active torsions:
REMARK  status: ('A' for Active; 'I' for Inactive)
REMARK    1  A    between atoms: N_4  and  C_10
REMARK    2  A    between atoms: C_7  and  C_12
REMARK    3  A    between atoms: C_10  and  C_13
REMARK    4  A    between atoms: C_14  and  C_18
REMARK                            x       y       z     vdW  Elec       q    Type
REMARK                         _______ _______ _______ _____ _____    ______ ____
ROOT
ATOM      3  O   UNL     1      18.281   7.183  21.451  0.00  0.00    -0.377 OA
ATOM      4  N   UNL     1      15.725   7.409  20.181  0.00  0.00    -0.285 NA
ATOM      7  C   UNL     1      16.013   8.097  21.465  0.00  0.00    +0.149 C 
ATOM      8  C   UNL     1      16.580   6.218  20.037  0.00  0.00    +0.113 C 
ATOM      9  C   UNL     1      17.523   8.385  21.584  0.00  0.00    +0.186 C 
ATOM     11  C   UNL     1      18.051   6.587  20.176  0.00  0.00    +0.175 C 
ENDROOT
BRANCH   7  12
ATOM      5  N   UNL     1      14.409   9.591  22.708  0.00  0.00    -0.341 N 
ATOM      6  N   UNL     1      15.283  10.449  20.856  0.00  0.00    -0.238 NA
ATOM     12  C   UNL     1      15.247   9.399  21.646  0.00  0.00    +0.127 A 
ATOM     14  C   UNL     1      13.876  10.843  22.589  0.00  0.00    +0.066 A 
ATOM     15  C   UNL     1      14.429  11.353  21.439  0.00  0.00    +0.139 A 
ATOM     27  H   UNL     1      14.230   8.924  23.449  0.00  0.00    +0.167 HD
BRANCH  14  18
ATOM      2  F   UNL     1      12.935  13.385  26.579  0.00  0.00    -0.205 F 
ATOM     18  C   UNL     1      12.940  11.398  23.531  0.00  0.00    +0.003 A 
ATOM     21  C   UNL     1      13.400  12.138  24.620  0.00  0.00    +0.048 A 
ATOM     22  C   UNL     1      11.570  11.197  23.353  0.00  0.00    +0.010 A 
ATOM     24  C   UNL     1      12.492  12.676  25.532  0.00  0.00    +0.124 A 
ATOM     25  C   UNL     1      10.662  11.736  24.265  0.00  0.00    +0.003 A 
ATOM     26  C   UNL     1      11.123  12.475  25.354  0.00  0.00    +0.038 A 
ENDBRANCH  14  18
ENDBRANCH   7  12
BRANCH   4  10
ATOM     10  C   UNL     1      14.317   7.007  20.073  0.00  0.00    +0.120 C 
BRANCH  10  13
ATOM      1  F   UNL     1      11.728   9.567  15.773  0.00  0.00    -0.205 F 
ATOM     13  C   UNL     1      13.625   7.692  18.925  0.00  0.00    -0.033 A 
ATOM     16  C   UNL     1      12.240   7.852  18.941  0.00  0.00    +0.008 A 
ATOM     17  C   UNL     1      14.370   8.165  17.844  0.00  0.00    +0.008 A 
ATOM     19  C   UNL     1      11.599   8.487  17.877  0.00  0.00    +0.038 A 
ATOM     20  C   UNL     1      13.730   8.799  16.780  0.00  0.00    +0.038 A 
ATOM     23  C   UNL     1      12.344   8.960  16.796  0.00  0.00    +0.123 A 
ENDBRANCH  10  13
ENDBRANCH   4  10
TORSDOF 4
ENDMDL
MODEL 4
REMARK VINA RESULT:      -6.8     26.552     27.894
REMARK  Name = 75367175
REMARK  4 active torsions:
REMARK  status: ('A' for Active; 'I' for Inactive)
REMARK    1  A    between atoms: N_4  and  C_10
REMARK    2  A    between atoms: C_7  and  C_12
REMARK    3  A    between atoms: C_10  and  C_13
REMARK    4  A    between atoms: C_14  and  C_18
REMARK                            x       y       z     vdW  Elec       q    Type
REMARK                         _______ _______ _______ _____ _____    ______ ____
ROOT
ATOM      3  O   UNL     1      -1.664 -16.140  13.179  0.00  0.00    -0.377 OA
ATOM      4  N   UNL     1      -3.123 -13.836  12.305  0.00  0.00    -0.285 NA
ATOM      7  C   UNL     1      -3.066 -14.216  13.739  0.00  0.00    +0.149 C 
ATOM      8  C   UNL     1      -2.931 -15.024  11.454  0.00  0.00    +0.113 C 
ATOM      9  C   UNL     1      -1.769 -14.997  14.028  0.00  0.00    +0.186 C 
ATOM     11  C   UNL     1      -1.636 -15.741  11.810  0.00  0.00    +0.175 C 
ENDROOT
BRANCH   7  12
ATOM      5  N   UNL     1      -4.134 -12.942  15.633  0.00  0.00    -0.341 N 
ATOM      6  N   UNL     1      -2.341 -11.995  14.728  0.00  0.00    -0.238 NA
ATOM     12  C   UNL     1      -3.150 -13.030  14.689  0.00  0.00    +0.127 A 
ATOM     14  C   UNL     1      -3.941 -11.776  16.318  0.00  0.00    +0.066 A 
ATOM     15  C   UNL     1      -2.830 -11.209  15.742  0.00  0.00    +0.139 A 
ATOM     27  H   UNL     1      -4.863 -13.626  15.794  0.00  0.00    +0.167 HD
BRANCH  14  18
ATOM      2  F   UNL     1      -7.765  -9.312  17.923  0.00  0.00    -0.205 F 
ATOM     18  C   UNL     1      -4.791 -11.341  17.395  0.00  0.00    +0.003 A 
ATOM     21  C   UNL     1      -5.889 -10.521  17.132  0.00  0.00    +0.048 A 
ATOM     22  C   UNL     1      -4.517 -11.741  18.704  0.00  0.00    +0.010 A 
ATOM     24  C   UNL     1      -6.712 -10.100  18.176  0.00  0.00    +0.124 A 
ATOM     25  C   UNL     1      -5.341 -11.320  19.748  0.00  0.00    +0.003 A 
ATOM     26  C   UNL     1      -6.438 -10.500  19.484  0.00  0.00    +0.038 A 
ENDBRANCH  14  18
ENDBRANCH   7  12
BRANCH   4  10
ATOM     10  C   UNL     1      -4.394 -13.193  11.953  0.00  0.00    +0.120 C 
BRANCH  10  13
ATOM      1  F   UNL     1      -3.615  -8.546   8.864  0.00  0.00    -0.205 F 
ATOM     13  C   UNL     1      -4.185 -11.952  11.128  0.00  0.00    -0.033 A 
ATOM     16  C   UNL     1      -3.186 -11.043  11.474  0.00  0.00    +0.008 A 
ATOM     17  C   UNL     1      -4.993 -11.710  10.015  0.00  0.00    +0.008 A 
ATOM     19  C   UNL     1      -2.992  -9.893  10.709  0.00  0.00    +0.038 A 
ATOM     20  C   UNL     1      -4.800 -10.560   9.250  0.00  0.00    +0.038 A 
ATOM     23  C   UNL     1      -3.800  -9.651   9.597  0.00  0.00    +0.123 A 
ENDBRANCH  10  13
ENDBRANCH   4  10
TORSDOF 4
ENDMDL
MODEL 5
REMARK VINA RESULT:      -6.6     26.536     28.720
REMARK  Name = 75367175
REMARK  4 active torsions:
REMARK  status: ('A' for Active; 'I' for Inactive)
REMARK    1  A    between atoms: N_4  and  C_10
REMARK    2  A    between atoms: C_7  and  C_12
REMARK    3  A    between atoms: C_10  and  C_13
REMARK    4  A    between atoms: C_14  and  C_18
REMARK                            x       y       z     vdW  Elec       q    Type
REMARK                         _______ _______ _______ _____ _____    ______ ____
ROOT
ATOM      3  O   UNL     1     -10.619  -8.720  14.949  0.00  0.00    -0.377 OA
ATOM      4  N   UNL     1      -9.051 -10.296  16.754  0.00  0.00    -0.285 NA
ATOM      7  C   UNL     1      -9.057 -10.570  15.294  0.00  0.00    +0.149 C 
ATOM      8  C   UNL     1     -10.311  -9.645  17.156  0.00  0.00    +0.113 C 
ATOM      9  C   UNL     1      -9.379  -9.280  14.515  0.00  0.00    +0.186 C 
ATOM     11  C   UNL     1     -10.558  -8.388  16.334  0.00  0.00    +0.175 C 
ENDROOT
BRANCH   7  12
ATOM      5  N   UNL     1      -6.548 -10.556  15.062  0.00  0.00    -0.341 N 
ATOM      6  N   UNL     1      -7.599 -12.218  14.031  0.00  0.00    -0.238 NA
ATOM     12  C   UNL     1      -7.747 -11.146  14.776  0.00  0.00    +0.127 A 
ATOM     14  C   UNL     1      -5.573 -11.300  14.460  0.00  0.00    +0.066 A 
ATOM     15  C   UNL     1      -6.245 -12.320  13.831  0.00  0.00    +0.139 A 
ATOM     27  H   UNL     1      -6.416  -9.726  15.625  0.00  0.00    +0.167 HD
BRANCH  14  18
ATOM      2  F   UNL     1      -1.516 -10.785  17.019  0.00  0.00    -0.205 F 
ATOM     18  C   UNL     1      -4.171 -10.981  14.539  0.00  0.00    +0.003 A 
ATOM     21  C   UNL     1      -3.509 -11.039  15.765  0.00  0.00    +0.048 A 
ATOM     22  C   UNL     1      -3.474 -10.615  13.387  0.00  0.00    +0.010 A 
ATOM     24  C   UNL     1      -2.151 -10.730  15.841  0.00  0.00    +0.124 A 
ATOM     25  C   UNL     1      -2.116 -10.306  13.462  0.00  0.00    +0.003 A 
ATOM     26  C   UNL     1      -1.455 -10.364  14.689  0.00  0.00    +0.038 A 
ENDBRANCH  14  18
ENDBRANCH   7  12
BRANCH   4  10
ATOM     10  C   UNL     1      -8.866 -11.518  17.545  0.00  0.00    +0.120 C 
BRANCH  10  13
ATOM      1  F   UNL     1      -3.632 -11.922  19.592  0.00  0.00    -0.205 F 
ATOM     13  C   UNL     1      -7.468 -11.626  18.091  0.00  0.00    -0.033 A 
ATOM     16  C   UNL     1      -6.718 -12.780  17.866  0.00  0.00    +0.008 A 
ATOM     17  C   UNL     1      -6.922 -10.571  18.824  0.00  0.00    +0.008 A 
ATOM     19  C   UNL     1      -5.422 -12.880  18.372  0.00  0.00    +0.038 A 
ATOM     20  C   UNL     1      -5.626 -10.671  19.330  0.00  0.00    +0.038 A 
ATOM     23  C   UNL     1      -4.876 -11.825  19.105  0.00  0.00    +0.123 A 
ENDBRANCH  10  13
ENDBRANCH   4  10
TORSDOF 4
ENDMDL
MODEL 6
REMARK VINA RESULT:      -6.5     13.966     18.130
REMARK  Name = 75367175
REMARK  4 active torsions:
REMARK  status: ('A' for Active; 'I' for Inactive)
REMARK    1  A    between atoms: N_4  and  C_10
REMARK    2  A    between atoms: C_7  and  C_12
REMARK    3  A    between atoms: C_10  and  C_13
REMARK    4  A    between atoms: C_14  and  C_18
REMARK                            x       y       z     vdW  Elec       q    Type
REMARK                         _______ _______ _______ _____ _____    ______ ____
ROOT
ATOM      3  O   UNL     1      10.877  11.539   4.391  0.00  0.00    -0.377 OA
ATOM      4  N   UNL     1       9.757   9.103   5.396  0.00  0.00    -0.285 NA
ATOM      7  C   UNL     1       9.868   9.358   3.938  0.00  0.00    +0.149 C 
ATOM      8  C   UNL     1       9.677  10.377   6.132  0.00  0.00    +0.113 C 
ATOM      9  C   UNL     1      11.035  10.324   3.657  0.00  0.00    +0.186 C 
ATOM     11  C   UNL     1      10.858  11.274   5.792  0.00  0.00    +0.175 C 
ENDROOT
BRANCH   7  12
ATOM      5  N   UNL     1      11.267   7.449   3.070  0.00  0.00    -0.341 N 
ATOM      6  N   UNL     1       9.160   7.492   2.370  0.00  0.00    -0.238 NA
ATOM     12  C   UNL     1      10.063   8.095   3.110  0.00  0.00    +0.127 A 
ATOM     14  C   UNL     1      11.123   6.365   2.251  0.00  0.00    +0.066 A 
ATOM     15  C   UNL     1       9.815   6.413   1.831  0.00  0.00    +0.139 A 
ATOM     27  H   UNL     1      12.104   7.725   3.568  0.00  0.00    +0.167 HD
BRANCH  14  18
ATOM      2  F   UNL     1      15.713   5.484   1.059  0.00  0.00    -0.205 F 
ATOM     18  C   UNL     1      12.189   5.442   1.964  0.00  0.00    +0.003 A 
ATOM     21  C   UNL     1      13.460   5.920   1.645  0.00  0.00    +0.048 A 
ATOM     22  C   UNL     1      11.951   4.068   2.006  0.00  0.00    +0.010 A 
ATOM     24  C   UNL     1      14.493   5.024   1.367  0.00  0.00    +0.124 A 
ATOM     25  C   UNL     1      12.984   3.172   1.729  0.00  0.00    +0.003 A 
ATOM     26  C   UNL     1      14.254   3.651   1.410  0.00  0.00    +0.038 A 
ENDBRANCH  14  18
ENDBRANCH   7  12
BRANCH   4  10
ATOM     10  C   UNL     1       8.587   8.281   5.727  0.00  0.00    +0.120 C 
BRANCH  10  13
ATOM      1  F   UNL     1       9.990   3.754   8.773  0.00  0.00    -0.205 F 
ATOM     13  C   UNL     1       8.962   7.071   6.540  0.00  0.00    -0.033 A 
ATOM     16  C   UNL     1       9.365   5.898   5.902  0.00  0.00    +0.008 A 
ATOM     17  C   UNL     1       8.907   7.123   7.934  0.00  0.00    +0.008 A 
ATOM     19  C   UNL     1       9.713   4.778   6.656  0.00  0.00    +0.038 A 
ATOM     20  C   UNL     1       9.255   6.003   8.688  0.00  0.00    +0.038 A 
ATOM     23  C   UNL     1       9.658   4.830   8.049  0.00  0.00    +0.123 A 
ENDBRANCH  10  13
ENDBRANCH   4  10
TORSDOF 4
ENDMDL
MODEL 7
REMARK VINA RESULT:      -6.5     26.449     28.256
REMARK  Name = 75367175
REMARK  4 active torsions:
REMARK  status: ('A' for Active; 'I' for Inactive)
REMARK    1  A    between atoms: N_4  and  C_10
REMARK    2  A    between atoms: C_7  and  C_12
REMARK    3  A    between atoms: C_10  and  C_13
REMARK    4  A    between atoms: C_14  and  C_18
REMARK                            x       y       z     vdW  Elec       q    Type
REMARK                         _______ _______ _______ _____ _____    ______ ____
ROOT
ATOM      3  O   UNL     1      -3.968 -15.701  15.074  0.00  0.00    -0.377 OA
ATOM      4  N   UNL     1      -4.521 -13.044  15.989  0.00  0.00    -0.285 NA
ATOM      7  C   UNL     1      -3.387 -13.325  15.073  0.00  0.00    +0.149 C 
ATOM      8  C   UNL     1      -4.842 -14.242  16.786  0.00  0.00    +0.113 C 
ATOM      9  C   UNL     1      -3.684 -14.582  14.233  0.00  0.00    +0.186 C 
ATOM     11  C   UNL     1      -5.111 -15.437  15.883  0.00  0.00    +0.175 C 
ENDROOT
BRANCH   7  12
ATOM      5  N   UNL     1      -3.973 -11.708  13.231  0.00  0.00    -0.341 N 
ATOM      6  N   UNL     1      -1.928 -11.506  14.072  0.00  0.00    -0.238 NA
ATOM     12  C   UNL     1      -3.059 -12.171  14.136  0.00  0.00    +0.127 A 
ATOM     14  C   UNL     1      -3.386 -10.682  12.546  0.00  0.00    +0.066 A 
ATOM     15  C   UNL     1      -2.125 -10.576  13.082  0.00  0.00    +0.139 A 
ATOM     27  H   UNL     1      -4.913 -12.060  13.105  0.00  0.00    +0.167 HD
BRANCH  14  18
ATOM      2  F   UNL     1      -7.331  -8.567  10.747  0.00  0.00    -0.205 F 
ATOM     18  C   UNL     1      -4.049  -9.945  11.502  0.00  0.00    +0.003 A 
ATOM     21  C   UNL     1      -5.396  -9.606  11.633  0.00  0.00    +0.048 A 
ATOM     22  C   UNL     1      -3.343  -9.568  10.359  0.00  0.00    +0.010 A 
ATOM     24  C   UNL     1      -6.037  -8.891  10.621  0.00  0.00    +0.124 A 
ATOM     25  C   UNL     1      -3.984  -8.853   9.347  0.00  0.00    +0.003 A 
ATOM     26  C   UNL     1      -5.331  -8.515   9.479  0.00  0.00    +0.038 A 
ENDBRANCH  14  18
ENDBRANCH   7  12
BRANCH   4  10
ATOM     10  C   UNL     1      -4.237 -11.925  16.895  0.00  0.00    +0.120 C 
BRANCH  10  13
ATOM      1  F   UNL     1      -8.725  -8.586  17.575  0.00  0.00    -0.205 F 
ATOM     13  C   UNL     1      -5.436 -11.033  17.077  0.00  0.00    -0.033 A 
ATOM     16  C   UNL     1      -6.059 -10.946  18.322  0.00  0.00    +0.008 A 
ATOM     17  C   UNL     1      -5.924 -10.292  15.999  0.00  0.00    +0.008 A 
ATOM     19  C   UNL     1      -7.169 -10.119  18.491  0.00  0.00    +0.038 A 
ATOM     20  C   UNL     1      -7.035  -9.466  16.168  0.00  0.00    +0.038 A 
ATOM     23  C   UNL     1      -7.658  -9.379  17.413  0.00  0.00    +0.123 A 
ENDBRANCH  10  13
ENDBRANCH   4  10
TORSDOF 4
ENDMDL
MODEL 8
REMARK VINA RESULT:      -6.5     27.489     29.418
REMARK  Name = 75367175
REMARK  4 active torsions:
REMARK  status: ('A' for Active; 'I' for Inactive)
REMARK    1  A    between atoms: N_4  and  C_10
REMARK    2  A    between atoms: C_7  and  C_12
REMARK    3  A    between atoms: C_10  and  C_13
REMARK    4  A    between atoms: C_14  and  C_18
REMARK                            x       y       z     vdW  Elec       q    Type
REMARK                         _______ _______ _______ _____ _____    ______ ____
ROOT
ATOM      3  O   UNL     1     -10.113 -14.481  19.602  0.00  0.00    -0.377 OA
ATOM      4  N   UNL     1     -10.196 -11.692  18.959  0.00  0.00    -0.285 NA
ATOM      7  C   UNL     1      -9.025 -12.292  19.648  0.00  0.00    +0.149 C 
ATOM      8  C   UNL     1     -11.410 -12.479  19.238  0.00  0.00    +0.113 C 
ATOM      9  C   UNL     1      -8.906 -13.785  19.288  0.00  0.00    +0.186 C 
ATOM     11  C   UNL     1     -11.206 -13.941  18.864  0.00  0.00    +0.175 C 
ENDROOT
BRANCH   7  12
ATOM      5  N   UNL     1      -7.122 -11.720  18.097  0.00  0.00    -0.341 N 
ATOM      6  N   UNL     1      -6.999 -10.843  20.133  0.00  0.00    -0.238 NA
ATOM     12  C   UNL     1      -7.708 -11.600  19.326  0.00  0.00    +0.127 A 
ATOM     14  C   UNL     1      -5.966 -10.994  18.122  0.00  0.00    +0.066 A 
ATOM     15  C   UNL     1      -5.911 -10.462  19.387  0.00  0.00    +0.139 A 
ATOM     27  H   UNL     1      -7.491 -12.246  17.314  0.00  0.00    +0.167 HD
BRANCH  14  18
ATOM      2  F   UNL     1      -1.513 -11.041  16.266  0.00  0.00    -0.205 F 
ATOM     18  C   UNL     1      -5.074 -10.886  16.997  0.00  0.00    +0.003 A 
ATOM     21  C   UNL     1      -3.698 -11.019  17.180  0.00  0.00    +0.048 A 
ATOM     22  C   UNL     1      -5.589 -10.649  15.721  0.00  0.00    +0.010 A 
ATOM     24  C   UNL     1      -2.835 -10.914  16.088  0.00  0.00    +0.124 A 
ATOM     25  C   UNL     1      -4.726 -10.545  14.629  0.00  0.00    +0.003 A 
ATOM     26  C   UNL     1      -3.350 -10.678  14.814  0.00  0.00    +0.038 A 
ENDBRANCH  14  18
ENDBRANCH   7  12
BRANCH   4  10
ATOM     10  C   UNL     1     -10.422 -10.299  19.361  0.00  0.00    +0.120 C 
BRANCH  10  13
ATOM      1  F   UNL     1     -10.893  -6.879  14.909  0.00  0.00    -0.205 F 
ATOM     13  C   UNL     1     -10.548  -9.385  18.172  0.00  0.00    -0.033 A 
ATOM     16  C   UNL     1     -11.807  -8.959  17.750  0.00  0.00    +0.008 A 
ATOM     17  C   UNL     1      -9.405  -8.965  17.491  0.00  0.00    +0.008 A 
ATOM     19  C   UNL     1     -11.924  -8.111  16.649  0.00  0.00    +0.038 A 
ATOM     20  C   UNL     1      -9.521  -8.118  16.389  0.00  0.00    +0.038 A 
ATOM     23  C   UNL     1     -10.780  -7.691  15.968  0.00  0.00    +0.123 A 
ENDBRANCH  10  13
ENDBRANCH   4  10
TORSDOF 4
ENDMDL
MODEL 9
REMARK VINA RESULT:      -6.5     16.212     19.915
REMARK  Name = 75367175
REMARK  4 active torsions:
REMARK  status: ('A' for Active; 'I' for Inactive)
REMARK    1  A    between atoms: N_4  and  C_10
REMARK    2  A    between atoms: C_7  and  C_12
REMARK    3  A    between atoms: C_10  and  C_13
REMARK    4  A    between atoms: C_14  and  C_18
REMARK                            x       y       z     vdW  Elec       q    Type
REMARK                         _______ _______ _______ _____ _____    ______ ____
ROOT
ATOM      3  O   UNL     1      15.921   6.625   0.987  0.00  0.00    -0.377 OA
ATOM      4  N   UNL     1      14.041   4.908  -0.323  0.00  0.00    -0.285 NA
ATOM      7  C   UNL     1      14.202   4.893   1.154  0.00  0.00    +0.149 C 
ATOM      8  C   UNL     1      15.286   5.361  -0.968  0.00  0.00    +0.113 C 
ATOM      9  C   UNL     1      14.705   6.265   1.644  0.00  0.00    +0.186 C 
ATOM     11  C   UNL     1      15.718   6.714  -0.421  0.00  0.00    +0.175 C 
ENDROOT
BRANCH   7  12
ATOM      5  N   UNL     1      12.274   5.459   2.675  0.00  0.00    -0.341 N 
ATOM      6  N   UNL     1      12.317   3.374   1.912  0.00  0.00    -0.238 NA
ATOM     12  C   UNL     1      12.927   4.538   1.903  0.00  0.00    +0.127 A 
ATOM     14  C   UNL     1      11.179   4.843   3.210  0.00  0.00    +0.066 A 
ATOM     15  C   UNL     1      11.226   3.557   2.725  0.00  0.00    +0.139 A 
ATOM     27  H   UNL     1      12.554   6.422   2.811  0.00  0.00    +0.167 HD
BRANCH  14  18
ATOM      2  F   UNL     1       9.101   5.341   7.534  0.00  0.00    -0.205 F 
ATOM     18  C   UNL     1      10.247   5.504   4.085  0.00  0.00    +0.003 A 
ATOM     21  C   UNL     1      10.123   5.094   5.413  0.00  0.00    +0.048 A 
ATOM     22  C   UNL     1       9.468   6.557   3.604  0.00  0.00    +0.010 A 
ATOM     24  C   UNL     1       9.220   5.737   6.260  0.00  0.00    +0.124 A 
ATOM     25  C   UNL     1       8.564   7.199   4.452  0.00  0.00    +0.003 A 
ATOM     26  C   UNL     1       8.441   6.789   5.779  0.00  0.00    +0.038 A 
ENDBRANCH  14  18
ENDBRANCH   7  12
BRANCH   4  10
ATOM     10  C   UNL     1      13.677   3.588  -0.852  0.00  0.00    +0.120 C 
BRANCH  10  13
ATOM      1  F   UNL     1       8.854   3.754  -3.760  0.00  0.00    -0.205 F 
ATOM     13  C   UNL     1      12.388   3.632  -1.629  0.00  0.00    -0.033 A 
ATOM     16  C   UNL     1      12.012   2.546  -2.418  0.00  0.00    +0.008 A 
ATOM     17  C   UNL     1      11.570   4.760  -1.559  0.00  0.00    +0.008 A 
ATOM     19  C   UNL     1      10.818   2.586  -3.137  0.00  0.00    +0.038 A 
ATOM     20  C   UNL     1      10.376   4.802  -2.278  0.00  0.00    +0.038 A 
ATOM     23  C   UNL     1       9.999   3.714  -3.068  0.00  0.00    +0.123 A 
ENDBRANCH  10  13
ENDBRANCH   4  10
TORSDOF 4
ENDMDL
MODEL 10
REMARK VINA RESULT:      -6.5     14.381     17.218
REMARK  Name = 75367175
REMARK  4 active torsions:
REMARK  status: ('A' for Active; 'I' for Inactive)
REMARK    1  A    between atoms: N_4  and  C_10
REMARK    2  A    between atoms: C_7  and  C_12
REMARK    3  A    between atoms: C_10  and  C_13
REMARK    4  A    between atoms: C_14  and  C_18
REMARK                            x       y       z     vdW  Elec       q    Type
REMARK                         _______ _______ _______ _____ _____    ______ ____
ROOT
ATOM      3  O   UNL     1      20.268  -3.344  31.541  0.00  0.00    -0.377 OA
ATOM      4  N   UNL     1      17.514  -3.798  30.903  0.00  0.00    -0.285 NA
ATOM      7  C   UNL     1      18.462  -3.261  29.894  0.00  0.00    +0.149 C 
ATOM      8  C   UNL     1      17.969  -3.458  32.263  0.00  0.00    +0.113 C 
ATOM      9  C   UNL     1      19.896  -3.724  30.216  0.00  0.00    +0.186 C 
ATOM     11  C   UNL     1      19.393  -3.941  32.495  0.00  0.00    +0.175 C 
ENDROOT
BRANCH   7  12
ATOM      5  N   UNL     1      17.860  -2.720  27.507  0.00  0.00    -0.341 N 
ATOM      6  N   UNL     1      18.043  -4.881  27.987  0.00  0.00    -0.238 NA
ATOM     12  C   UNL     1      18.124  -3.659  28.465  0.00  0.00    +0.127 A 
ATOM     14  C   UNL     1      17.594  -3.385  26.344  0.00  0.00    +0.066 A 
ATOM     15  C   UNL     1      17.713  -4.716  26.664  0.00  0.00    +0.139 A 
ATOM     27  H   UNL     1      17.872  -1.717  27.643  0.00  0.00    +0.167 HD
BRANCH  14  18
ATOM      2  F   UNL     1      14.815  -2.917  22.429  0.00  0.00    -0.205 F 
ATOM     18  C   UNL     1      17.268  -2.721  25.109  0.00  0.00    +0.003 A 
ATOM     21  C   UNL     1      16.177  -3.149  24.352  0.00  0.00    +0.048 A 
ATOM     22  C   UNL     1      18.043  -1.647  24.671  0.00  0.00    +0.010 A 
ATOM     24  C   UNL     1      15.862  -2.504  23.156  0.00  0.00    +0.124 A 
ATOM     25  C   UNL     1      17.728  -1.002  23.474  0.00  0.00    +0.003 A 
ATOM     26  C   UNL     1      16.638  -1.431  22.718  0.00  0.00    +0.038 A 
ENDBRANCH  14  18
ENDBRANCH   7  12
BRANCH   4  10
ATOM     10  C   UNL     1      16.152  -3.289  30.708  0.00  0.00    +0.120 C 
BRANCH  10  13
ATOM      1  F   UNL     1      12.281  -7.329  31.372  0.00  0.00    -0.205 F 
ATOM     13  C   UNL     1      15.118  -4.369  30.886  0.00  0.00    -0.033 A 
ATOM     16  C   UNL     1      15.098  -5.464  30.023  0.00  0.00    +0.008 A 
ATOM     17  C   UNL     1      14.179  -4.273  31.914  0.00  0.00    +0.008 A 
ATOM     19  C   UNL     1      14.141  -6.464  30.187  0.00  0.00    +0.038 A 
ATOM     20  C   UNL     1      13.221  -5.273  32.079  0.00  0.00    +0.038 A 
ATOM     23  C   UNL     1      13.202  -6.369  31.215  0.00  0.00    +0.123 A 
ENDBRANCH  10  13
ENDBRANCH   4  10
TORSDOF 4
ENDMDL
