MODEL 1
REMARK VINA RESULT:      -7.2      0.000      0.000
REMARK  Name = 75368456
REMARK  6 active torsions:
REMARK  status: ('A' for Active; 'I' for Inactive)
REMARK    1  A    between atoms: O_6  and  C_26
REMARK    2  A    between atoms: O_6  and  C_31
REMARK    3  A    between atoms: N_8  and  C_16
REMARK    4  A    between atoms: C_16  and  C_18
REMARK    5  A    between atoms: C_17  and  C_19
REMARK    6  A    between atoms: C_29  and  C_30
REMARK                            x       y       z     vdW  Elec       q    Type
REMARK                         _______ _______ _______ _____ _____    ______ ____
ROOT
ATOM      4  O   UNL     1      13.639   7.294   4.559  0.00  0.00    -0.252 OA
ATOM      5  O   UNL     1      15.058   4.405  -1.642  0.00  0.00    -0.270 OA
ATOM      7  N   UNL     1      13.298   6.182   2.518  0.00  0.00    -0.278 N 
ATOM      8  N   UNL     1      11.497   6.883   3.664  0.00  0.00    -0.279 N 
ATOM      9  N   UNL     1      13.671   5.573  -0.168  0.00  0.00    -0.294 N 
ATOM     10  C   UNL     1      12.163   5.674   1.764  0.00  0.00    +0.112 C 
ATOM     11  C   UNL     1      10.960   6.335   2.431  0.00  0.00    +0.133 C 
ATOM     12  C   UNL     1      12.330   5.993   0.282  0.00  0.00    +0.132 C 
ATOM     13  C   UNL     1      14.650   5.889   2.075  0.00  0.00    +0.128 C 
ATOM     14  C   UNL     1      14.784   6.175   0.579  0.00  0.00    +0.127 C 
ATOM     15  C   UNL     1      12.905   6.839   3.691  0.00  0.00    +0.306 C 
ATOM     17  C   UNL     1      13.938   4.720  -1.240  0.00  0.00    +0.247 C 
ENDROOT
BRANCH  17  19
ATOM     19  C   UNL     1      12.800   4.127  -1.954  0.00  0.00    +0.037 A 
ATOM     22  C   UNL     1      12.410   2.817  -1.679  0.00  0.00    +0.013 A 
ATOM     23  C   UNL     1      12.109   4.876  -2.906  0.00  0.00    +0.013 A 
ATOM     27  C   UNL     1      11.329   2.254  -2.358  0.00  0.00    +0.013 A 
ATOM     28  C   UNL     1      11.029   4.313  -3.586  0.00  0.00    +0.013 A 
ATOM     29  C   UNL     1      10.639   3.003  -3.311  0.00  0.00    +0.055 A 
BRANCH  29  30
ATOM      1  F   UNL     1       9.743   2.127  -5.350  0.00  0.00    -0.166 F 
ATOM      2  F   UNL     1       8.372   3.195  -4.052  0.00  0.00    -0.166 F 
ATOM      3  F   UNL     1       9.078   1.217  -3.490  0.00  0.00    -0.166 F 
ATOM     30  C   UNL     1       9.483   2.400  -4.037  0.00  0.00    +0.417 C 
ENDBRANCH  29  30
ENDBRANCH  17  19
BRANCH   8  16
ATOM     16  C   UNL     1      10.651   7.511   4.654  0.00  0.00    +0.144 C 
BRANCH  16  18
ATOM     18  C   UNL     1      10.345   6.590   5.799  0.00  0.00    -0.030 A 
ATOM     20  C   UNL     1      10.336   7.079   7.106  0.00  0.00    +0.009 A 
ATOM     21  C   UNL     1      10.067   5.244   5.556  0.00  0.00    +0.009 A 
ATOM     24  C   UNL     1      10.051   6.222   8.169  0.00  0.00    +0.046 A 
ATOM     25  C   UNL     1       9.782   4.388   6.620  0.00  0.00    +0.046 A 
ATOM     26  C   UNL     1       9.774   4.877   7.926  0.00  0.00    +0.120 A 
BRANCH  26   6
ATOM      6  O   UNL     1       9.494   4.042   8.964  0.00  0.00    -0.495 OA
ATOM     31  C   UNL     1       9.028   4.641  10.172  0.00  0.00    +0.277 C 
ENDBRANCH  26   6
ENDBRANCH  16  18
ENDBRANCH   8  16
TORSDOF 5
ENDMDL
MODEL 2
REMARK VINA RESULT:      -6.9      6.965      9.790
REMARK  Name = 75368456
REMARK  6 active torsions:
REMARK  status: ('A' for Active; 'I' for Inactive)
REMARK    1  A    between atoms: O_6  and  C_26
REMARK    2  A    between atoms: O_6  and  C_31
REMARK    3  A    between atoms: N_8  and  C_16
REMARK    4  A    between atoms: C_16  and  C_18
REMARK    5  A    between atoms: C_17  and  C_19
REMARK    6  A    between atoms: C_29  and  C_30
REMARK                            x       y       z     vdW  Elec       q    Type
REMARK                         _______ _______ _______ _____ _____    ______ ____
ROOT
ATOM      4  O   UNL     1      15.608  11.068   3.445  0.00  0.00    -0.252 OA
ATOM      5  O   UNL     1       9.184   8.432   4.218  0.00  0.00    -0.270 OA
ATOM      7  N   UNL     1      13.833   9.822   4.348  0.00  0.00    -0.278 N 
ATOM      8  N   UNL     1      15.708  10.042   5.565  0.00  0.00    -0.279 N 
ATOM      9  N   UNL     1      11.212   9.230   5.060  0.00  0.00    -0.294 N 
ATOM     10  C   UNL     1      13.610   8.988   5.517  0.00  0.00    +0.112 C 
ATOM     11  C   UNL     1      14.791   9.317   6.427  0.00  0.00    +0.133 C 
ATOM     12  C   UNL     1      12.239   9.280   6.119  0.00  0.00    +0.132 C 
ATOM     13  C   UNL     1      12.819   9.897   3.310  0.00  0.00    +0.128 C 
ATOM     14  C   UNL     1      11.447  10.147   3.936  0.00  0.00    +0.127 C 
ATOM     15  C   UNL     1      15.112  10.392   4.337  0.00  0.00    +0.306 C 
ATOM     17  C   UNL     1      10.062   8.440   5.080  0.00  0.00    +0.247 C 
ENDROOT
BRANCH  17  19
ATOM     19  C   UNL     1       9.869   7.526   6.214  0.00  0.00    +0.037 A 
ATOM     22  C   UNL     1       9.194   7.962   7.354  0.00  0.00    +0.013 A 
ATOM     23  C   UNL     1      10.361   6.223   6.150  0.00  0.00    +0.013 A 
ATOM     27  C   UNL     1       9.011   7.094   8.431  0.00  0.00    +0.013 A 
ATOM     28  C   UNL     1      10.180   5.356   7.227  0.00  0.00    +0.013 A 
ATOM     29  C   UNL     1       9.505   5.791   8.367  0.00  0.00    +0.055 A 
BRANCH  29  30
ATOM      1  F   UNL     1       9.274   3.546   9.160  0.00  0.00    -0.166 F 
ATOM      2  F   UNL     1       8.148   5.078  10.203  0.00  0.00    -0.166 F 
ATOM      3  F   UNL     1      10.305   4.963  10.447  0.00  0.00    -0.166 F 
ATOM     30  C   UNL     1       9.310   4.863   9.518  0.00  0.00    +0.417 C 
ENDBRANCH  29  30
ENDBRANCH  17  19
BRANCH   8  16
ATOM     16  C   UNL     1      17.020  10.451   6.016  0.00  0.00    +0.144 C 
BRANCH  16  18
ATOM     18  C   UNL     1      18.074   9.438   5.677  0.00  0.00    -0.030 A 
ATOM     20  C   UNL     1      18.072   8.821   4.425  0.00  0.00    +0.009 A 
ATOM     21  C   UNL     1      19.056   9.114   6.613  0.00  0.00    +0.009 A 
ATOM     24  C   UNL     1      19.052   7.880   4.111  0.00  0.00    +0.046 A 
ATOM     25  C   UNL     1      20.036   8.173   6.297  0.00  0.00    +0.046 A 
ATOM     26  C   UNL     1      20.034   7.556   5.047  0.00  0.00    +0.120 A 
BRANCH  26   6
ATOM      6  O   UNL     1      20.991   6.638   4.739  0.00  0.00    -0.495 OA
ATOM     31  C   UNL     1      21.724   6.845   3.532  0.00  0.00    +0.277 C 
ENDBRANCH  26   6
ENDBRANCH  16  18
ENDBRANCH   8  16
TORSDOF 5
ENDMDL
MODEL 3
REMARK VINA RESULT:      -6.8     25.436     29.200
REMARK  Name = 75368456
REMARK  6 active torsions:
REMARK  status: ('A' for Active; 'I' for Inactive)
REMARK    1  A    between atoms: O_6  and  C_26
REMARK    2  A    between atoms: O_6  and  C_31
REMARK    3  A    between atoms: N_8  and  C_16
REMARK    4  A    between atoms: C_16  and  C_18
REMARK    5  A    between atoms: C_17  and  C_19
REMARK    6  A    between atoms: C_29  and  C_30
REMARK                            x       y       z     vdW  Elec       q    Type
REMARK                         _______ _______ _______ _____ _____    ______ ____
ROOT
ATOM      4  O   UNL     1      -3.619 -11.926  18.916  0.00  0.00    -0.252 OA
ATOM      5  O   UNL     1     -10.480 -10.828  19.642  0.00  0.00    -0.270 OA
ATOM      7  N   UNL     1      -5.757 -11.024  18.544  0.00  0.00    -0.278 N 
ATOM      8  N   UNL     1      -4.146 -10.606  17.034  0.00  0.00    -0.279 N 
ATOM      9  N   UNL     1      -8.530 -10.982  18.365  0.00  0.00    -0.294 N 
ATOM     10  C   UNL     1      -6.370 -10.106  17.599  0.00  0.00    +0.112 C 
ATOM     11  C   UNL     1      -5.343 -10.003  16.474  0.00  0.00    +0.133 C 
ATOM     12  C   UNL     1      -7.739 -10.627  17.171  0.00  0.00    +0.132 C 
ATOM     13  C   UNL     1      -6.514 -11.493  19.692  0.00  0.00    +0.128 C 
ATOM     14  C   UNL     1      -7.896 -11.970  19.248  0.00  0.00    +0.127 C 
ATOM     15  C   UNL     1      -4.408 -11.265  18.252  0.00  0.00    +0.306 C 
ATOM     17  C   UNL     1      -9.803 -10.499  18.669  0.00  0.00    +0.247 C 
ENDROOT
BRANCH  17  19
ATOM     19  C   UNL     1     -10.398  -9.501  17.769  0.00  0.00    +0.037 A 
ATOM     22  C   UNL     1     -11.566  -9.803  17.068  0.00  0.00    +0.013 A 
ATOM     23  C   UNL     1      -9.796  -8.253  17.616  0.00  0.00    +0.013 A 
ATOM     27  C   UNL     1     -12.131  -8.857  16.214  0.00  0.00    +0.013 A 
ATOM     28  C   UNL     1     -10.359  -7.307  16.761  0.00  0.00    +0.013 A 
ATOM     29  C   UNL     1     -11.527  -7.608  16.060  0.00  0.00    +0.055 A 
BRANCH  29  30
ATOM      1  F   UNL     1     -12.231  -7.020  13.851  0.00  0.00    -0.166 F 
ATOM      2  F   UNL     1     -11.428  -5.427  15.084  0.00  0.00    -0.166 F 
ATOM      3  F   UNL     1     -13.396  -6.244  15.515  0.00  0.00    -0.166 F 
ATOM     30  C   UNL     1     -12.130  -6.597  15.145  0.00  0.00    +0.417 C 
ENDBRANCH  29  30
ENDBRANCH  17  19
BRANCH   8  16
ATOM     16  C   UNL     1      -2.889 -10.616  16.319  0.00  0.00    +0.144 C 
BRANCH  16  18
ATOM     18  C   UNL     1      -3.015 -11.258  14.968  0.00  0.00    -0.030 A 
ATOM     20  C   UNL     1      -2.701 -10.533  13.818  0.00  0.00    +0.009 A 
ATOM     21  C   UNL     1      -3.445 -12.582  14.863  0.00  0.00    +0.009 A 
ATOM     24  C   UNL     1      -2.818 -11.131  12.564  0.00  0.00    +0.046 A 
ATOM     25  C   UNL     1      -3.561 -13.179  13.608  0.00  0.00    +0.046 A 
ATOM     26  C   UNL     1      -3.248 -12.453  12.459  0.00  0.00    +0.120 A 
BRANCH  26   6
ATOM      6  O   UNL     1      -3.360 -13.037  11.234  0.00  0.00    -0.495 OA
ATOM     31  C   UNL     1      -3.772 -12.201  10.152  0.00  0.00    +0.277 C 
ENDBRANCH  26   6
ENDBRANCH  16  18
ENDBRANCH   8  16
TORSDOF 5
ENDMDL
MODEL 4
REMARK VINA RESULT:      -6.7     19.150     21.828
REMARK  Name = 75368456
REMARK  6 active torsions:
REMARK  status: ('A' for Active; 'I' for Inactive)
REMARK    1  A    between atoms: O_6  and  C_26
REMARK    2  A    between atoms: O_6  and  C_31
REMARK    3  A    between atoms: N_8  and  C_16
REMARK    4  A    between atoms: C_16  and  C_18
REMARK    5  A    between atoms: C_17  and  C_19
REMARK    6  A    between atoms: C_29  and  C_30
REMARK                            x       y       z     vdW  Elec       q    Type
REMARK                         _______ _______ _______ _____ _____    ______ ____
ROOT
ATOM      4  O   UNL     1      16.044   9.227  20.538  0.00  0.00    -0.252 OA
ATOM      5  O   UNL     1      22.469   8.026  23.004  0.00  0.00    -0.270 OA
ATOM      7  N   UNL     1      18.020   8.071  21.065  0.00  0.00    -0.278 N 
ATOM      8  N   UNL     1      16.555   7.096  19.668  0.00  0.00    -0.279 N 
ATOM      9  N   UNL     1      20.744   7.691  21.464  0.00  0.00    -0.294 N 
ATOM     10  C   UNL     1      18.573   6.749  20.819  0.00  0.00    +0.112 C 
ATOM     11  C   UNL     1      17.687   6.187  19.710  0.00  0.00    +0.133 C 
ATOM     12  C   UNL     1      20.053   6.855  20.464  0.00  0.00    +0.132 C 
ATOM     13  C   UNL     1      18.703   8.984  21.965  0.00  0.00    +0.128 C 
ATOM     14  C   UNL     1      20.191   9.043  21.620  0.00  0.00    +0.127 C 
ATOM     15  C   UNL     1      16.779   8.253  20.440  0.00  0.00    +0.306 C 
ATOM     17  C   UNL     1      21.867   7.313  22.202  0.00  0.00    +0.247 C 
ENDROOT
BRANCH  17  19
ATOM     19  C   UNL     1      22.383   5.949  22.029  0.00  0.00    +0.037 A 
ATOM     22  C   UNL     1      21.866   4.905  22.796  0.00  0.00    +0.013 A 
ATOM     23  C   UNL     1      23.389   5.697  21.097  0.00  0.00    +0.013 A 
ATOM     27  C   UNL     1      22.355   3.610  22.632  0.00  0.00    +0.013 A 
ATOM     28  C   UNL     1      23.880   4.402  20.933  0.00  0.00    +0.013 A 
ATOM     29  C   UNL     1      23.363   3.359  21.701  0.00  0.00    +0.055 A 
BRANCH  29  30
ATOM      1  F   UNL     1      23.669   1.165  22.604  0.00  0.00    -0.166 F 
ATOM      2  F   UNL     1      25.235   1.921  21.309  0.00  0.00    -0.166 F 
ATOM      3  F   UNL     1      23.322   1.328  20.464  0.00  0.00    -0.166 F 
ATOM     30  C   UNL     1      23.887   1.973  21.526  0.00  0.00    +0.417 C 
ENDBRANCH  29  30
ENDBRANCH  17  19
BRANCH   8  16
ATOM     16  C   UNL     1      15.414   6.858  18.811  0.00  0.00    +0.144 C 
BRANCH  16  18
ATOM     18  C   UNL     1      14.121   7.216  19.483  0.00  0.00    -0.030 A 
ATOM     20  C   UNL     1      13.259   8.141  18.893  0.00  0.00    +0.009 A 
ATOM     21  C   UNL     1      13.779   6.621  20.698  0.00  0.00    +0.009 A 
ATOM     24  C   UNL     1      12.058   8.472  19.518  0.00  0.00    +0.046 A 
ATOM     25  C   UNL     1      12.577   6.952  21.323  0.00  0.00    +0.046 A 
ATOM     26  C   UNL     1      11.716   7.877  20.733  0.00  0.00    +0.120 A 
BRANCH  26   6
ATOM      6  O   UNL     1      10.542   8.199  21.342  0.00  0.00    -0.495 OA
ATOM     31  C   UNL     1      10.598   9.175  22.382  0.00  0.00    +0.277 C 
ENDBRANCH  26   6
ENDBRANCH  16  18
ENDBRANCH   8  16
TORSDOF 5
ENDMDL
MODEL 5
REMARK VINA RESULT:      -6.7     17.120     21.454
REMARK  Name = 75368456
REMARK  6 active torsions:
REMARK  status: ('A' for Active; 'I' for Inactive)
REMARK    1  A    between atoms: O_6  and  C_26
REMARK    2  A    between atoms: O_6  and  C_31
REMARK    3  A    between atoms: N_8  and  C_16
REMARK    4  A    between atoms: C_16  and  C_18
REMARK    5  A    between atoms: C_17  and  C_19
REMARK    6  A    between atoms: C_29  and  C_30
REMARK                            x       y       z     vdW  Elec       q    Type
REMARK                         _______ _______ _______ _____ _____    ______ ____
ROOT
ATOM      4  O   UNL     1      15.197   9.387  21.464  0.00  0.00    -0.252 OA
ATOM      5  O   UNL     1      22.144   8.836  21.964  0.00  0.00    -0.270 OA
ATOM      7  N   UNL     1      17.324   8.398  21.598  0.00  0.00    -0.278 N 
ATOM      8  N   UNL     1      15.580   7.103  21.023  0.00  0.00    -0.279 N 
ATOM      9  N   UNL     1      20.059   8.124  21.186  0.00  0.00    -0.294 N 
ATOM     10  C   UNL     1      17.875   7.055  21.517  0.00  0.00    +0.112 C 
ATOM     11  C   UNL     1      16.737   6.231  20.922  0.00  0.00    +0.133 C 
ATOM     12  C   UNL     1      19.160   7.063  20.694  0.00  0.00    +0.132 C 
ATOM     13  C   UNL     1      18.178   9.509  21.982  0.00  0.00    +0.128 C 
ATOM     14  C   UNL     1      19.477   9.473  21.176  0.00  0.00    +0.127 C 
ATOM     15  C   UNL     1      15.940   8.418  21.377  0.00  0.00    +0.306 C 
ATOM     17  C   UNL     1      21.381   7.944  21.595  0.00  0.00    +0.247 C 
ENDROOT
BRANCH  17  19
ATOM     19  C   UNL     1      21.923   6.579  21.603  0.00  0.00    +0.037 A 
ATOM     22  C   UNL     1      22.594   6.087  20.483  0.00  0.00    +0.013 A 
ATOM     23  C   UNL     1      21.768   5.774  22.731  0.00  0.00    +0.013 A 
ATOM     27  C   UNL     1      23.108   4.791  20.491  0.00  0.00    +0.013 A 
ATOM     28  C   UNL     1      22.281   4.477  22.740  0.00  0.00    +0.013 A 
ATOM     29  C   UNL     1      22.951   3.986  21.620  0.00  0.00    +0.055 A 
BRANCH  29  30
ATOM      1  F   UNL     1      23.050   1.826  20.596  0.00  0.00    -0.166 F 
ATOM      2  F   UNL     1      23.197   1.897  22.759  0.00  0.00    -0.166 F 
ATOM      3  F   UNL     1      24.862   2.574  21.537  0.00  0.00    -0.166 F 
ATOM     30  C   UNL     1      23.501   2.599  21.628  0.00  0.00    +0.417 C 
ENDBRANCH  29  30
ENDBRANCH  17  19
BRANCH   8  16
ATOM     16  C   UNL     1      14.253   6.658  20.660  0.00  0.00    +0.144 C 
BRANCH  16  18
ATOM     18  C   UNL     1      13.771   7.301  19.393  0.00  0.00    -0.030 A 
ATOM     20  C   UNL     1      12.503   7.882  19.342  0.00  0.00    +0.009 A 
ATOM     21  C   UNL     1      14.592   7.320  18.265  0.00  0.00    +0.009 A 
ATOM     24  C   UNL     1      12.057   8.480  18.164  0.00  0.00    +0.046 A 
ATOM     25  C   UNL     1      14.145   7.918  17.087  0.00  0.00    +0.046 A 
ATOM     26  C   UNL     1      12.877   8.498  17.037  0.00  0.00    +0.120 A 
BRANCH  26   6
ATOM      6  O   UNL     1      12.442   9.083  15.887  0.00  0.00    -0.495 OA
ATOM     31  C   UNL     1      11.030   9.167  15.697  0.00  0.00    +0.277 C 
ENDBRANCH  26   6
ENDBRANCH  16  18
ENDBRANCH   8  16
TORSDOF 5
ENDMDL
MODEL 6
REMARK VINA RESULT:      -6.7     25.396     28.756
REMARK  Name = 75368456
REMARK  6 active torsions:
REMARK  status: ('A' for Active; 'I' for Inactive)
REMARK    1  A    between atoms: O_6  and  C_26
REMARK    2  A    between atoms: O_6  and  C_31
REMARK    3  A    between atoms: N_8  and  C_16
REMARK    4  A    between atoms: C_16  and  C_18
REMARK    5  A    between atoms: C_17  and  C_19
REMARK    6  A    between atoms: C_29  and  C_30
REMARK                            x       y       z     vdW  Elec       q    Type
REMARK                         _______ _______ _______ _____ _____    ______ ____
ROOT
ATOM      4  O   UNL     1     -10.300 -11.057  19.906  0.00  0.00    -0.252 OA
ATOM      5  O   UNL     1      -3.445 -11.788  18.778  0.00  0.00    -0.270 OA
ATOM      7  N   UNL     1      -8.270 -11.265  18.743  0.00  0.00    -0.278 N 
ATOM      8  N   UNL     1     -10.096 -10.639  17.594  0.00  0.00    -0.279 N 
ATOM      9  N   UNL     1      -5.556 -10.945  18.238  0.00  0.00    -0.294 N 
ATOM     10  C   UNL     1      -7.830 -11.208  17.358  0.00  0.00    +0.112 C 
ATOM     11  C   UNL     1      -9.014 -10.579  16.628  0.00  0.00    +0.133 C 
ATOM     12  C   UNL     1      -6.524 -10.428  17.252  0.00  0.00    +0.132 C 
ATOM     13  C   UNL     1      -7.338 -11.673  19.781  0.00  0.00    +0.128 C 
ATOM     14  C   UNL     1      -6.022 -10.911  19.631  0.00  0.00    +0.127 C 
ATOM     15  C   UNL     1      -9.639 -10.999  18.877  0.00  0.00    +0.306 C 
ATOM     17  C   UNL     1      -4.267 -11.398  17.951  0.00  0.00    +0.247 C 
ENDROOT
BRANCH  17  19
ATOM     19  C   UNL     1      -3.842 -11.430  16.545  0.00  0.00    +0.037 A 
ATOM     22  C   UNL     1      -2.823 -10.586  16.105  0.00  0.00    +0.013 A 
ATOM     23  C   UNL     1      -4.457 -12.305  15.651  0.00  0.00    +0.013 A 
ATOM     27  C   UNL     1      -2.419 -10.616  14.770  0.00  0.00    +0.013 A 
ATOM     28  C   UNL     1      -4.055 -12.335  14.315  0.00  0.00    +0.013 A 
ATOM     29  C   UNL     1      -3.036 -11.491  13.876  0.00  0.00    +0.055 A 
BRANCH  29  30
ATOM      1  F   UNL     1      -3.567 -11.101  11.576  0.00  0.00    -0.166 F 
ATOM      2  F   UNL     1      -2.249 -12.767  12.011  0.00  0.00    -0.166 F 
ATOM      3  F   UNL     1      -1.521 -10.728  12.209  0.00  0.00    -0.166 F 
ATOM     30  C   UNL     1      -2.605 -11.522  12.448  0.00  0.00    +0.417 C 
ENDBRANCH  29  30
ENDBRANCH  17  19
BRANCH   8  16
ATOM     16  C   UNL     1     -11.444 -10.234  17.259  0.00  0.00    +0.144 C 
BRANCH  16  18
ATOM     18  C   UNL     1     -11.470  -8.940  16.500  0.00  0.00    -0.030 A 
ATOM     20  C   UNL     1     -11.902  -8.917  15.173  0.00  0.00    +0.009 A 
ATOM     21  C   UNL     1     -11.065  -7.758  17.121  0.00  0.00    +0.009 A 
ATOM     24  C   UNL     1     -11.926  -7.714  14.469  0.00  0.00    +0.046 A 
ATOM     25  C   UNL     1     -11.091  -6.555  16.416  0.00  0.00    +0.046 A 
ATOM     26  C   UNL     1     -11.521  -6.533  15.090  0.00  0.00    +0.120 A 
BRANCH  26   6
ATOM      6  O   UNL     1     -11.547  -5.359  14.402  0.00  0.00    -0.495 OA
ATOM     31  C   UNL     1     -12.747  -5.046  13.696  0.00  0.00    +0.277 C 
ENDBRANCH  26   6
ENDBRANCH  16  18
ENDBRANCH   8  16
TORSDOF 5
ENDMDL
MODEL 7
REMARK VINA RESULT:      -6.6     24.019     27.767
REMARK  Name = 75368456
REMARK  6 active torsions:
REMARK  status: ('A' for Active; 'I' for Inactive)
REMARK    1  A    between atoms: O_6  and  C_26
REMARK    2  A    between atoms: O_6  and  C_31
REMARK    3  A    between atoms: N_8  and  C_16
REMARK    4  A    between atoms: C_16  and  C_18
REMARK    5  A    between atoms: C_17  and  C_19
REMARK    6  A    between atoms: C_29  and  C_30
REMARK                            x       y       z     vdW  Elec       q    Type
REMARK                         _______ _______ _______ _____ _____    ______ ____
ROOT
ATOM      4  O   UNL     1      -9.654 -10.591  19.100  0.00  0.00    -0.252 OA
ATOM      5  O   UNL     1      -4.063 -13.028  15.692  0.00  0.00    -0.270 OA
ATOM      7  N   UNL     1      -8.027 -10.825  17.422  0.00  0.00    -0.278 N 
ATOM      8  N   UNL     1      -9.366  -9.021  17.365  0.00  0.00    -0.279 N 
ATOM      9  N   UNL     1      -5.521 -11.315  16.326  0.00  0.00    -0.294 N 
ATOM     10  C   UNL     1      -7.671 -10.143  16.188  0.00  0.00    +0.112 C 
ATOM     11  C   UNL     1      -8.430  -8.821  16.273  0.00  0.00    +0.133 C 
ATOM     12  C   UNL     1      -6.156 -10.005  16.081  0.00  0.00    +0.132 C 
ATOM     13  C   UNL     1      -7.369 -12.071  17.774  0.00  0.00    +0.128 C 
ATOM     14  C   UNL     1      -5.856 -11.926  17.619  0.00  0.00    +0.127 C 
ATOM     15  C   UNL     1      -9.089 -10.199  18.088  0.00  0.00    +0.306 C 
ATOM     17  C   UNL     1      -4.626 -11.957  15.468  0.00  0.00    +0.247 C 
ENDROOT
BRANCH  17  19
ATOM     19  C   UNL     1      -4.326 -11.322  14.178  0.00  0.00    +0.037 A 
ATOM     22  C   UNL     1      -5.329 -11.184  13.219  0.00  0.00    +0.013 A 
ATOM     23  C   UNL     1      -3.039 -10.857  13.912  0.00  0.00    +0.013 A 
ATOM     27  C   UNL     1      -5.045 -10.581  11.994  0.00  0.00    +0.013 A 
ATOM     28  C   UNL     1      -2.753 -10.255  12.687  0.00  0.00    +0.013 A 
ATOM     29  C   UNL     1      -3.756 -10.117  11.728  0.00  0.00    +0.055 A 
BRANCH  29  30
ATOM      1  F   UNL     1      -3.700 -10.278   9.342  0.00  0.00    -0.166 F 
ATOM      2  F   UNL     1      -2.147  -9.093  10.284  0.00  0.00    -0.166 F 
ATOM      3  F   UNL     1      -4.186  -8.342  10.205  0.00  0.00    -0.166 F 
ATOM     30  C   UNL     1      -3.452  -9.473  10.417  0.00  0.00    +0.417 C 
ENDBRANCH  29  30
ENDBRANCH  17  19
BRANCH   8  16
ATOM     16  C   UNL     1     -10.361  -8.030  17.712  0.00  0.00    +0.144 C 
BRANCH  16  18
ATOM     18  C   UNL     1     -11.120  -7.550  16.510  0.00  0.00    -0.030 A 
ATOM     20  C   UNL     1     -11.926  -8.436  15.793  0.00  0.00    +0.009 A 
ATOM     21  C   UNL     1     -11.022  -6.217  16.110  0.00  0.00    +0.009 A 
ATOM     24  C   UNL     1     -12.631  -7.988  14.677  0.00  0.00    +0.046 A 
ATOM     25  C   UNL     1     -11.729  -5.770  14.994  0.00  0.00    +0.046 A 
ATOM     26  C   UNL     1     -12.533  -6.656  14.277  0.00  0.00    +0.120 A 
BRANCH  26   6
ATOM      6  O   UNL     1     -13.224  -6.219  13.188  0.00  0.00    -0.495 OA
ATOM     31  C   UNL     1     -13.267  -4.810  12.969  0.00  0.00    +0.277 C 
ENDBRANCH  26   6
ENDBRANCH  16  18
ENDBRANCH   8  16
TORSDOF 5
ENDMDL
MODEL 8
REMARK VINA RESULT:      -6.6      4.866      9.625
REMARK  Name = 75368456
REMARK  6 active torsions:
REMARK  status: ('A' for Active; 'I' for Inactive)
REMARK    1  A    between atoms: O_6  and  C_26
REMARK    2  A    between atoms: O_6  and  C_31
REMARK    3  A    between atoms: N_8  and  C_16
REMARK    4  A    between atoms: C_16  and  C_18
REMARK    5  A    between atoms: C_17  and  C_19
REMARK    6  A    between atoms: C_29  and  C_30
REMARK                            x       y       z     vdW  Elec       q    Type
REMARK                         _______ _______ _______ _____ _____    ______ ____
ROOT
ATOM      4  O   UNL     1      11.668   6.838  -0.699  0.00  0.00    -0.252 OA
ATOM      5  O   UNL     1      10.318   9.704   5.528  0.00  0.00    -0.270 OA
ATOM      7  N   UNL     1      11.123   6.997   1.581  0.00  0.00    -0.278 N 
ATOM      8  N   UNL     1      11.639   4.975   0.746  0.00  0.00    -0.279 N 
ATOM      9  N   UNL     1      11.176   8.008   4.169  0.00  0.00    -0.294 N 
ATOM     10  C   UNL     1      10.897   6.076   2.683  0.00  0.00    +0.112 C 
ATOM     11  C   UNL     1      11.453   4.751   2.169  0.00  0.00    +0.133 C 
ATOM     12  C   UNL     1      11.562   6.600   3.952  0.00  0.00    +0.132 C 
ATOM     13  C   UNL     1      10.857   8.414   1.756  0.00  0.00    +0.128 C 
ATOM     14  C   UNL     1      11.496   8.910   3.054  0.00  0.00    +0.127 C 
ATOM     15  C   UNL     1      11.494   6.334   0.403  0.00  0.00    +0.306 C 
ATOM     17  C   UNL     1      10.599   8.522   5.331  0.00  0.00    +0.247 C 
ENDROOT
BRANCH  17  19
ATOM     19  C   UNL     1      10.282   7.588   6.419  0.00  0.00    +0.037 A 
ATOM     22  C   UNL     1       8.958   7.406   6.818  0.00  0.00    +0.013 A 
ATOM     23  C   UNL     1      11.305   6.883   7.053  0.00  0.00    +0.013 A 
ATOM     27  C   UNL     1       8.657   6.519   7.852  0.00  0.00    +0.013 A 
ATOM     28  C   UNL     1      11.004   5.996   8.087  0.00  0.00    +0.013 A 
ATOM     29  C   UNL     1       9.680   5.814   8.486  0.00  0.00    +0.055 A 
BRANCH  29  30
ATOM      1  F   UNL     1      10.341   4.771  10.535  0.00  0.00    -0.166 F 
ATOM      2  F   UNL     1       9.145   3.585   9.169  0.00  0.00    -0.166 F 
ATOM      3  F   UNL     1       8.230   5.219  10.273  0.00  0.00    -0.166 F 
ATOM     30  C   UNL     1       9.358   4.866   9.591  0.00  0.00    +0.417 C 
ENDBRANCH  29  30
ENDBRANCH  17  19
BRANCH   8  16
ATOM     16  C   UNL     1      12.058   3.917  -0.147  0.00  0.00    +0.144 C 
BRANCH  16  18
ATOM     18  C   UNL     1      13.480   4.090  -0.596  0.00  0.00    -0.030 A 
ATOM     20  C   UNL     1      13.761   4.363  -1.935  0.00  0.00    +0.009 A 
ATOM     21  C   UNL     1      14.521   3.979   0.327  0.00  0.00    +0.009 A 
ATOM     24  C   UNL     1      15.082   4.524  -2.351  0.00  0.00    +0.046 A 
ATOM     25  C   UNL     1      15.842   4.141  -0.090  0.00  0.00    +0.046 A 
ATOM     26  C   UNL     1      16.122   4.413  -1.428  0.00  0.00    +0.120 A 
BRANCH  26   6
ATOM      6  O   UNL     1      17.412   4.572  -1.835  0.00  0.00    -0.495 OA
ATOM     31  C   UNL     1      17.996   5.861  -1.653  0.00  0.00    +0.277 C 
ENDBRANCH  26   6
ENDBRANCH  16  18
ENDBRANCH   8  16
TORSDOF 5
ENDMDL
MODEL 9
REMARK VINA RESULT:      -6.3     31.121     33.694
REMARK  Name = 75368456
REMARK  6 active torsions:
REMARK  status: ('A' for Active; 'I' for Inactive)
REMARK    1  A    between atoms: O_6  and  C_26
REMARK    2  A    between atoms: O_6  and  C_31
REMARK    3  A    between atoms: N_8  and  C_16
REMARK    4  A    between atoms: C_16  and  C_18
REMARK    5  A    between atoms: C_17  and  C_19
REMARK    6  A    between atoms: C_29  and  C_30
REMARK                            x       y       z     vdW  Elec       q    Type
REMARK                         _______ _______ _______ _____ _____    ______ ____
ROOT
ATOM      4  O   UNL     1      11.359  -4.758  34.747  0.00  0.00    -0.252 OA
ATOM      5  O   UNL     1       5.434  -8.034  33.022  0.00  0.00    -0.270 OA
ATOM      7  N   UNL     1       9.917  -6.318  33.744  0.00  0.00    -0.278 N 
ATOM      8  N   UNL     1      12.128  -6.714  33.676  0.00  0.00    -0.279 N 
ATOM      9  N   UNL     1       7.719  -8.003  33.512  0.00  0.00    -0.294 N 
ATOM     10  C   UNL     1      10.050  -7.513  32.927  0.00  0.00    +0.112 C 
ATOM     11  C   UNL     1      11.523  -7.887  33.069  0.00  0.00    +0.133 C 
ATOM     12  C   UNL     1       9.070  -8.584  33.396  0.00  0.00    +0.132 C 
ATOM     13  C   UNL     1       8.602  -5.748  33.981  0.00  0.00    +0.128 C 
ATOM     14  C   UNL     1       7.625  -6.843  34.408  0.00  0.00    +0.127 C 
ATOM     15  C   UNL     1      11.159  -5.797  34.130  0.00  0.00    +0.306 C 
ATOM     17  C   UNL     1       6.568  -8.493  32.891  0.00  0.00    +0.247 C 
ENDROOT
BRANCH  17  19
ATOM     19  C   UNL     1       6.704  -9.646  31.991  0.00  0.00    +0.037 A 
ATOM     22  C   UNL     1       6.993  -9.447  30.642  0.00  0.00    +0.013 A 
ATOM     23  C   UNL     1       6.544 -10.939  32.487  0.00  0.00    +0.013 A 
ATOM     27  C   UNL     1       7.122 -10.541  29.787  0.00  0.00    +0.013 A 
ATOM     28  C   UNL     1       6.671 -12.034  31.632  0.00  0.00    +0.013 A 
ATOM     29  C   UNL     1       6.960 -11.835  30.283  0.00  0.00    +0.055 A 
BRANCH  29  30
ATOM      1  F   UNL     1       7.545 -12.677  28.121  0.00  0.00    -0.166 F 
ATOM      2  F   UNL     1       5.925 -13.677  29.160  0.00  0.00    -0.166 F 
ATOM      3  F   UNL     1       7.974 -13.939  29.839  0.00  0.00    -0.166 F 
ATOM     30  C   UNL     1       7.097 -13.006  29.368  0.00  0.00    +0.417 C 
ENDBRANCH  29  30
ENDBRANCH  17  19
BRANCH   8  16
ATOM     16  C   UNL     1      13.554  -6.611  33.888  0.00  0.00    +0.144 C 
BRANCH  16  18
ATOM     18  C   UNL     1      14.202  -5.668  32.916  0.00  0.00    -0.030 A 
ATOM     20  C   UNL     1      14.283  -6.005  31.564  0.00  0.00    +0.009 A 
ATOM     21  C   UNL     1      14.722  -4.453  33.364  0.00  0.00    +0.009 A 
ATOM     24  C   UNL     1      14.884  -5.128  30.663  0.00  0.00    +0.046 A 
ATOM     25  C   UNL     1      15.322  -3.577  32.461  0.00  0.00    +0.046 A 
ATOM     26  C   UNL     1      15.403  -3.914  31.110  0.00  0.00    +0.120 A 
BRANCH  26   6
ATOM      6  O   UNL     1      15.989  -3.058  30.229  0.00  0.00    -0.495 OA
ATOM     31  C   UNL     1      16.619  -1.898  30.772  0.00  0.00    +0.277 C 
ENDBRANCH  26   6
ENDBRANCH  16  18
ENDBRANCH   8  16
TORSDOF 5
ENDMDL
MODEL 10
REMARK VINA RESULT:      -6.2      6.888      9.986
REMARK  Name = 75368456
REMARK  6 active torsions:
REMARK  status: ('A' for Active; 'I' for Inactive)
REMARK    1  A    between atoms: O_6  and  C_26
REMARK    2  A    between atoms: O_6  and  C_31
REMARK    3  A    between atoms: N_8  and  C_16
REMARK    4  A    between atoms: C_16  and  C_18
REMARK    5  A    between atoms: C_17  and  C_19
REMARK    6  A    between atoms: C_29  and  C_30
REMARK                            x       y       z     vdW  Elec       q    Type
REMARK                         _______ _______ _______ _____ _____    ______ ____
ROOT
ATOM      4  O   UNL     1       3.634   8.543  -3.800  0.00  0.00    -0.252 OA
ATOM      5  O   UNL     1       9.484   8.635   0.017  0.00  0.00    -0.270 OA
ATOM      7  N   UNL     1       5.682   7.836  -2.890  0.00  0.00    -0.278 N 
ATOM      8  N   UNL     1       4.841   6.697  -4.635  0.00  0.00    -0.279 N 
ATOM      9  N   UNL     1       8.265   8.069  -1.894  0.00  0.00    -0.294 N 
ATOM     10  C   UNL     1       6.591   6.716  -3.070  0.00  0.00    +0.112 C 
ATOM     11  C   UNL     1       6.131   6.082  -4.380  0.00  0.00    +0.133 C 
ATOM     12  C   UNL     1       8.036   7.205  -3.068  0.00  0.00    +0.132 C 
ATOM     13  C   UNL     1       5.905   8.783  -1.812  0.00  0.00    +0.128 C 
ATOM     14  C   UNL     1       7.367   9.228  -1.801  0.00  0.00    +0.127 C 
ATOM     15  C   UNL     1       4.596   7.785  -3.775  0.00  0.00    +0.306 C 
ATOM     17  C   UNL     1       9.266   7.891  -0.937  0.00  0.00    +0.247 C 
ENDROOT
BRANCH  17  19
ATOM     19  C   UNL     1      10.135   6.713  -1.056  0.00  0.00    +0.037 A 
ATOM     22  C   UNL     1      11.258   6.755  -1.882  0.00  0.00    +0.013 A 
ATOM     23  C   UNL     1       9.838   5.552  -0.343  0.00  0.00    +0.013 A 
ATOM     27  C   UNL     1      12.084   5.636  -1.995  0.00  0.00    +0.013 A 
ATOM     28  C   UNL     1      10.662   4.433  -0.456  0.00  0.00    +0.013 A 
ATOM     29  C   UNL     1      11.785   4.475  -1.282  0.00  0.00    +0.055 A 
BRANCH  29  30
ATOM      1  F   UNL     1      13.083   2.781  -0.202  0.00  0.00    -0.166 F 
ATOM      2  F   UNL     1      13.813   3.513  -2.108  0.00  0.00    -0.166 F 
ATOM      3  F   UNL     1      12.055   2.237  -2.039  0.00  0.00    -0.166 F 
ATOM     30  C   UNL     1      12.667   3.279  -1.404  0.00  0.00    +0.417 C 
ENDBRANCH  29  30
ENDBRANCH  17  19
BRANCH   8  16
ATOM     16  C   UNL     1       4.005   6.290  -5.744  0.00  0.00    +0.144 C 
BRANCH  16  18
ATOM     18  C   UNL     1       2.972   5.284  -5.329  0.00  0.00    -0.030 A 
ATOM     20  C   UNL     1       1.763   5.710  -4.778  0.00  0.00    +0.009 A 
ATOM     21  C   UNL     1       3.220   3.921  -5.497  0.00  0.00    +0.009 A 
ATOM     24  C   UNL     1       0.803   4.773  -4.395  0.00  0.00    +0.046 A 
ATOM     25  C   UNL     1       2.259   2.985  -5.114  0.00  0.00    +0.046 A 
ATOM     26  C   UNL     1       1.051   3.411  -4.562  0.00  0.00    +0.120 A 
BRANCH  26   6
ATOM      6  O   UNL     1       0.114   2.498  -4.189  0.00  0.00    -0.495 OA
ATOM     31  C   UNL     1       0.309   1.152  -4.622  0.00  0.00    +0.277 C 
ENDBRANCH  26   6
ENDBRANCH  16  18
ENDBRANCH   8  16
TORSDOF 5
ENDMDL
