MODEL 1
REMARK VINA RESULT:      -6.8      0.000      0.000
REMARK  Name = 28960083
REMARK  7 active torsions:
REMARK  status: ('A' for Active; 'I' for Inactive)
REMARK    1  A    between atoms: O_2  and  C_23
REMARK    2  A    between atoms: N_6  and  C_16
REMARK    3  A    between atoms: N_8  and  C_25
REMARK    4  A    between atoms: C_10  and  C_14
REMARK    5  A    between atoms: C_11  and  C_17
REMARK    6  A    between atoms: C_14  and  C_16
REMARK    7  A    between atoms: C_17  and  C_23
REMARK                            x       y       z     vdW  Elec       q    Type
REMARK                         _______ _______ _______ _____ _____    ______ ____
ROOT
ATOM      3  O   UNL     1      -3.243 -11.104  17.785  0.00  0.00    -0.252 OA
ATOM      5  N   UNL     1      -5.283 -12.134  18.128  0.00  0.00    -0.285 N 
ATOM      8  N   UNL     1      -4.056 -12.542  16.156  0.00  0.00    -0.269 N 
ATOM     10  C   UNL     1      -7.716 -12.305  17.677  0.00  0.00    +0.011 C 
ATOM     11  C   UNL     1      -7.979 -11.560  19.013  0.00  0.00    +0.006 C 
ATOM     12  C   UNL     1      -6.374 -13.051  17.761  0.00  0.00    +0.113 C 
ATOM     13  C   UNL     1      -6.785 -10.678  19.422  0.00  0.00    +0.023 C 
ATOM     15  C   UNL     1      -5.477 -11.470  19.418  0.00  0.00    +0.109 C 
ATOM     22  C   UNL     1      -4.115 -11.878  17.381  0.00  0.00    +0.306 C 
ATOM     35  H   UNL     1      -4.533 -13.431  16.065  0.00  0.00    +0.156 HD
ENDROOT
BRANCH   8  25
ATOM      1  F   UNL     1      -1.509 -10.853  11.529  0.00  0.00    -0.205 F 
ATOM     25  C   UNL     1      -3.405 -12.110  14.974  0.00  0.00    +0.035 A 
ATOM     28  C   UNL     1      -3.607 -10.814  14.501  0.00  0.00    +0.026 A 
ATOM     29  C   UNL     1      -2.564 -12.982  14.284  0.00  0.00    +0.026 A 
ATOM     32  C   UNL     1      -2.965 -10.389  13.337  0.00  0.00    +0.040 A 
ATOM     33  C   UNL     1      -1.923 -12.558  13.119  0.00  0.00    +0.040 A 
ATOM     34  C   UNL     1      -2.123 -11.261  12.646  0.00  0.00    +0.124 A 
ENDBRANCH   8  25
BRANCH  10  14
ATOM     14  C   UNL     1      -7.750 -11.400  16.440  0.00  0.00    +0.020 C 
BRANCH  14  16
ATOM     16  C   UNL     1      -8.775 -11.897  15.431  0.00  0.00    +0.085 C 
BRANCH  16   6
ATOM      6  N   UNL     1      -8.289 -11.663  14.072  0.00  0.00    -0.299 NA
ATOM      7  N   UNL     1      -6.535 -10.622  12.072  0.00  0.00    -0.313 N 
ATOM      9  N   UNL     1      -5.439 -11.002  10.008  0.00  0.00    -0.240 NA
ATOM     18  C   UNL     1      -6.941 -12.218  13.904  0.00  0.00    +0.103 C 
ATOM     19  C   UNL     1      -8.280 -10.227  13.766  0.00  0.00    +0.103 C 
ATOM     20  C   UNL     1      -6.443 -12.030  12.469  0.00  0.00    +0.122 C 
ATOM     21  C   UNL     1      -7.827  -9.973  12.327  0.00  0.00    +0.122 C 
ATOM     24  C   UNL     1      -5.761 -10.149  11.006  0.00  0.00    +0.121 A 
ATOM     26  C   UNL     1      -5.371  -8.819  11.047  0.00  0.00    +0.043 A 
ATOM     27  C   UNL     1      -4.602  -8.335   9.995  0.00  0.00    +0.005 A 
ATOM     30  C   UNL     1      -4.691 -10.494   9.004  0.00  0.00    +0.113 A 
ATOM     31  C   UNL     1      -4.251  -9.182   8.950  0.00  0.00    +0.020 A 
ENDBRANCH  16   6
ENDBRANCH  14  16
ENDBRANCH  10  14
BRANCH  11  17
ATOM     17  C   UNL     1      -9.271 -10.744  18.999  0.00  0.00    +0.124 C 
BRANCH  17  23
ATOM      4  O   UNL     1     -10.606 -12.191  20.438  0.00  0.00    -0.251 OA
ATOM     23  C   UNL     1     -10.157 -11.087  20.166  0.00  0.00    +0.305 C 
BRANCH  23   2
ATOM      2  O   UNL     1     -10.397  -9.972  20.902  0.00  0.00    -0.481 OA
ATOM     36  H   UNL     1      -9.572  -9.475  21.091  0.00  0.00    +0.295 HD
ENDBRANCH  23   2
ENDBRANCH  17  23
ENDBRANCH  11  17
TORSDOF 7
ENDMDL
MODEL 2
REMARK VINA RESULT:      -6.8      2.933      5.754
REMARK  Name = 28960083
REMARK  7 active torsions:
REMARK  status: ('A' for Active; 'I' for Inactive)
REMARK    1  A    between atoms: O_2  and  C_23
REMARK    2  A    between atoms: N_6  and  C_16
REMARK    3  A    between atoms: N_8  and  C_25
REMARK    4  A    between atoms: C_10  and  C_14
REMARK    5  A    between atoms: C_11  and  C_17
REMARK    6  A    between atoms: C_14  and  C_16
REMARK    7  A    between atoms: C_17  and  C_23
REMARK                            x       y       z     vdW  Elec       q    Type
REMARK                         _______ _______ _______ _____ _____    ______ ____
ROOT
ATOM      3  O   UNL     1      -1.442 -10.284  12.208  0.00  0.00    -0.252 OA
ATOM      5  N   UNL     1      -2.390 -11.601  13.853  0.00  0.00    -0.285 N 
ATOM      8  N   UNL     1      -3.172 -11.718  11.631  0.00  0.00    -0.269 N 
ATOM     10  C   UNL     1      -4.237 -12.075  15.439  0.00  0.00    +0.011 C 
ATOM     11  C   UNL     1      -3.374 -11.456  16.571  0.00  0.00    +0.006 C 
ATOM     12  C   UNL     1      -3.317 -12.634  14.341  0.00  0.00    +0.113 C 
ATOM     13  C   UNL     1      -2.350 -10.446  16.023  0.00  0.00    +0.023 C 
ATOM     15  C   UNL     1      -1.518 -11.049  14.891  0.00  0.00    +0.109 C 
ATOM     22  C   UNL     1      -2.268 -11.144  12.524  0.00  0.00    +0.306 C 
ATOM     35  H   UNL     1      -3.505 -12.657  11.817  0.00  0.00    +0.156 HD
ENDROOT
BRANCH   8  25
ATOM      1  F   UNL     1      -5.309  -9.419   7.059  0.00  0.00    -0.205 F 
ATOM     25  C   UNL     1      -3.718 -11.130  10.463  0.00  0.00    +0.035 A 
ATOM     28  C   UNL     1      -3.824  -9.743  10.364  0.00  0.00    +0.026 A 
ATOM     29  C   UNL     1      -4.150 -11.940   9.413  0.00  0.00    +0.026 A 
ATOM     32  C   UNL     1      -4.361  -9.165   9.214  0.00  0.00    +0.040 A 
ATOM     33  C   UNL     1      -4.688 -11.362   8.263  0.00  0.00    +0.040 A 
ATOM     34  C   UNL     1      -4.793  -9.975   8.163  0.00  0.00    +0.124 A 
ENDBRANCH   8  25
BRANCH  10  14
ATOM     14  C   UNL     1      -5.264 -11.110  14.838  0.00  0.00    +0.020 C 
BRANCH  14  16
ATOM     16  C   UNL     1      -6.367 -11.871  14.115  0.00  0.00    +0.085 C 
BRANCH  16   6
ATOM      6  N   UNL     1      -7.664 -11.259  14.401  0.00  0.00    -0.299 NA
ATOM      7  N   UNL     1      -9.494  -9.110  14.841  0.00  0.00    -0.313 N 
ATOM      9  N   UNL     1     -11.678  -8.269  14.492  0.00  0.00    -0.240 NA
ATOM     18  C   UNL     1      -8.087 -10.403  13.286  0.00  0.00    +0.103 C 
ATOM     19  C   UNL     1      -7.601 -10.472  15.639  0.00  0.00    +0.103 C 
ATOM     20  C   UNL     1      -9.470  -9.802  13.549  0.00  0.00    +0.122 C 
ATOM     21  C   UNL     1      -8.967  -9.874  15.980  0.00  0.00    +0.122 C 
ATOM     24  C   UNL     1     -10.474  -8.145  15.094  0.00  0.00    +0.121 A 
ATOM     26  C   UNL     1     -10.140  -7.112  15.956  0.00  0.00    +0.043 A 
ATOM     27  C   UNL     1     -11.104  -6.145  16.217  0.00  0.00    +0.005 A 
ATOM     30  C   UNL     1     -12.589  -7.310  14.771  0.00  0.00    +0.113 A 
ATOM     31  C   UNL     1     -12.355  -6.238  15.617  0.00  0.00    +0.020 A 
ENDBRANCH  16   6
ENDBRANCH  14  16
ENDBRANCH  10  14
BRANCH  11  17
ATOM     17  C   UNL     1      -4.210 -10.825  17.684  0.00  0.00    +0.124 C 
BRANCH  17  23
ATOM      4  O   UNL     1      -5.381 -12.184  19.335  0.00  0.00    -0.251 OA
ATOM     23  C   UNL     1      -4.341 -11.743  18.869  0.00  0.00    +0.305 C 
BRANCH  23   2
ATOM      2  O   UNL     1      -3.111 -12.026  19.367  0.00  0.00    -0.481 OA
ATOM     36  H   UNL     1      -2.466 -11.311  19.177  0.00  0.00    +0.295 HD
ENDBRANCH  23   2
ENDBRANCH  17  23
ENDBRANCH  11  17
TORSDOF 7
ENDMDL
MODEL 3
REMARK VINA RESULT:      -6.7      2.884      4.612
REMARK  Name = 28960083
REMARK  7 active torsions:
REMARK  status: ('A' for Active; 'I' for Inactive)
REMARK    1  A    between atoms: O_2  and  C_23
REMARK    2  A    between atoms: N_6  and  C_16
REMARK    3  A    between atoms: N_8  and  C_25
REMARK    4  A    between atoms: C_10  and  C_14
REMARK    5  A    between atoms: C_11  and  C_17
REMARK    6  A    between atoms: C_14  and  C_16
REMARK    7  A    between atoms: C_17  and  C_23
REMARK                            x       y       z     vdW  Elec       q    Type
REMARK                         _______ _______ _______ _____ _____    ______ ____
ROOT
ATOM      3  O   UNL     1      -1.457 -10.029  12.150  0.00  0.00    -0.252 OA
ATOM      5  N   UNL     1      -2.267 -11.443  13.789  0.00  0.00    -0.285 N 
ATOM      8  N   UNL     1      -3.030 -11.631  11.566  0.00  0.00    -0.269 N 
ATOM     10  C   UNL     1      -4.056 -12.111  15.370  0.00  0.00    +0.011 C 
ATOM     11  C   UNL     1      -3.264 -11.410  16.506  0.00  0.00    +0.006 C 
ATOM     12  C   UNL     1      -3.082 -12.568  14.272  0.00  0.00    +0.113 C 
ATOM     13  C   UNL     1      -2.348 -10.298  15.964  0.00  0.00    +0.023 C 
ATOM     15  C   UNL     1      -1.457 -10.808  14.831  0.00  0.00    +0.109 C 
ATOM     22  C   UNL     1      -2.191 -10.970  12.462  0.00  0.00    +0.306 C 
ATOM     35  H   UNL     1      -3.264 -12.600  11.747  0.00  0.00    +0.156 HD
ENDROOT
BRANCH   8  25
ATOM      1  F   UNL     1      -5.387  -9.546   6.999  0.00  0.00    -0.205 F 
ATOM     25  C   UNL     1      -3.632 -11.099  10.399  0.00  0.00    +0.035 A 
ATOM     28  C   UNL     1      -4.085 -11.955   9.395  0.00  0.00    +0.026 A 
ATOM     29  C   UNL     1      -3.771  -9.719  10.254  0.00  0.00    +0.026 A 
ATOM     32  C   UNL     1      -4.678 -11.430   8.247  0.00  0.00    +0.040 A 
ATOM     33  C   UNL     1      -4.364  -9.194   9.105  0.00  0.00    +0.040 A 
ATOM     34  C   UNL     1      -4.818 -10.049   8.102  0.00  0.00    +0.124 A 
ENDBRANCH   8  25
BRANCH  10  14
ATOM     14  C   UNL     1      -5.178 -11.255  14.771  0.00  0.00    +0.020 C 
BRANCH  14  16
ATOM     16  C   UNL     1      -6.487 -12.029  14.724  0.00  0.00    +0.085 C 
BRANCH  16   6
ATOM      6  N   UNL     1      -7.230 -11.678  13.515  0.00  0.00    -0.299 NA
ATOM      7  N   UNL     1      -7.671 -10.375  11.011  0.00  0.00    -0.313 N 
ATOM      9  N   UNL     1      -8.562 -10.540   8.824  0.00  0.00    -0.240 NA
ATOM     18  C   UNL     1      -6.494 -12.100  12.317  0.00  0.00    +0.103 C 
ATOM     19  C   UNL     1      -7.479 -10.232  13.464  0.00  0.00    +0.103 C 
ATOM     20  C   UNL     1      -7.287 -11.789  11.045  0.00  0.00    +0.122 C 
ATOM     21  C   UNL     1      -8.305  -9.859  12.231  0.00  0.00    +0.122 C 
ATOM     24  C   UNL     1      -8.008  -9.776   9.792  0.00  0.00    +0.121 A 
ATOM     26  C   UNL     1      -7.746  -8.422   9.657  0.00  0.00    +0.043 A 
ATOM     27  C   UNL     1      -8.076  -7.813   8.451  0.00  0.00    +0.005 A 
ATOM     30  C   UNL     1      -8.868  -9.913   7.666  0.00  0.00    +0.113 A 
ATOM     31  C   UNL     1      -8.647  -8.566   7.432  0.00  0.00    +0.020 A 
ENDBRANCH  16   6
ENDBRANCH  14  16
ENDBRANCH  10  14
BRANCH  11  17
ATOM     17  C   UNL     1      -4.162 -10.873  17.620  0.00  0.00    +0.124 C 
BRANCH  17  23
ATOM      4  O   UNL     1      -5.461 -12.439  18.964  0.00  0.00    -0.251 OA
ATOM     23  C   UNL     1      -4.396 -11.904  18.690  0.00  0.00    +0.305 C 
BRANCH  23   2
ATOM      2  O   UNL     1      -3.230 -12.172  19.332  0.00  0.00    -0.481 OA
ATOM     36  H   UNL     1      -2.541 -12.500  18.715  0.00  0.00    +0.295 HD
ENDBRANCH  23   2
ENDBRANCH  17  23
ENDBRANCH  11  17
TORSDOF 7
ENDMDL
MODEL 4
REMARK VINA RESULT:      -6.7     25.105     29.179
REMARK  Name = 28960083
REMARK  7 active torsions:
REMARK  status: ('A' for Active; 'I' for Inactive)
REMARK    1  A    between atoms: O_2  and  C_23
REMARK    2  A    between atoms: N_6  and  C_16
REMARK    3  A    between atoms: N_8  and  C_25
REMARK    4  A    between atoms: C_10  and  C_14
REMARK    5  A    between atoms: C_11  and  C_17
REMARK    6  A    between atoms: C_14  and  C_16
REMARK    7  A    between atoms: C_17  and  C_23
REMARK                            x       y       z     vdW  Elec       q    Type
REMARK                         _______ _______ _______ _____ _____    ______ ____
ROOT
ATOM      3  O   UNL     1      10.015   4.072   0.957  0.00  0.00    -0.252 OA
ATOM      5  N   UNL     1      12.284   3.659   1.094  0.00  0.00    -0.285 N 
ATOM      8  N   UNL     1      11.053   4.222   3.026  0.00  0.00    -0.269 N 
ATOM     10  C   UNL     1      14.617   4.477   1.294  0.00  0.00    +0.011 C 
ATOM     11  C   UNL     1      14.776   4.288  -0.238  0.00  0.00    +0.006 C 
ATOM     12  C   UNL     1      13.552   3.503   1.824  0.00  0.00    +0.113 C 
ATOM     13  C   UNL     1      13.423   4.364  -0.969  0.00  0.00    +0.023 C 
ATOM     15  C   UNL     1      12.395   3.418  -0.345  0.00  0.00    +0.109 C 
ATOM     22  C   UNL     1      11.030   3.983   1.652  0.00  0.00    +0.306 C 
ATOM     35  H   UNL     1      11.752   3.748   3.586  0.00  0.00    +0.156 HD
ENDROOT
BRANCH   8  25
ATOM      1  F   UNL     1       7.737   7.601   5.913  0.00  0.00    -0.205 F 
ATOM     25  C   UNL     1      10.206   5.085   3.763  0.00  0.00    +0.035 A 
ATOM     28  C   UNL     1       9.802   4.732   5.051  0.00  0.00    +0.026 A 
ATOM     29  C   UNL     1       9.776   6.287   3.202  0.00  0.00    +0.026 A 
ATOM     32  C   UNL     1       8.968   5.583   5.778  0.00  0.00    +0.040 A 
ATOM     33  C   UNL     1       8.941   7.137   3.928  0.00  0.00    +0.040 A 
ATOM     34  C   UNL     1       8.538   6.786   5.215  0.00  0.00    +0.124 A 
ENDBRANCH   8  25
BRANCH  10  14
ATOM     14  C   UNL     1      14.286   5.914   1.714  0.00  0.00    +0.020 C 
BRANCH  14  16
ATOM     16  C   UNL     1      15.261   6.409   2.773  0.00  0.00    +0.085 C 
BRANCH  16   6
ATOM      6  N   UNL     1      14.635   7.461   3.572  0.00  0.00    -0.299 NA
ATOM      7  N   UNL     1      13.040   8.530   5.687  0.00  0.00    -0.313 N 
ATOM      9  N   UNL     1      12.790  10.235   7.309  0.00  0.00    -0.240 NA
ATOM     18  C   UNL     1      15.106   7.402   4.962  0.00  0.00    +0.103 C 
ATOM     19  C   UNL     1      13.173   7.338   3.534  0.00  0.00    +0.103 C 
ATOM     20  C   UNL     1      14.502   8.533   5.796  0.00  0.00    +0.122 C 
ATOM     21  C   UNL     1      12.505   8.467   4.321  0.00  0.00    +0.122 C 
ATOM     24  C   UNL     1      12.269   9.166   6.666  0.00  0.00    +0.121 A 
ATOM     26  C   UNL     1      11.007   8.650   6.914  0.00  0.00    +0.043 A 
ATOM     27  C   UNL     1      10.229   9.272   7.885  0.00  0.00    +0.005 A 
ATOM     30  C   UNL     1      12.004  10.813   8.246  0.00  0.00    +0.113 A 
ATOM     31  C   UNL     1      10.730  10.375   8.567  0.00  0.00    +0.020 A 
ENDBRANCH  16   6
ENDBRANCH  14  16
ENDBRANCH  10  14
BRANCH  11  17
ATOM     17  C   UNL     1      15.779   5.257  -0.861  0.00  0.00    +0.124 C 
BRANCH  17  23
ATOM      4  O   UNL     1      17.165   4.740  -2.799  0.00  0.00    -0.251 OA
ATOM     23  C   UNL     1      16.844   4.532  -1.638  0.00  0.00    +0.305 C 
BRANCH  23   2
ATOM      2  O   UNL     1      17.419   3.585  -0.853  0.00  0.00    -0.481 OA
ATOM     36  H   UNL     1      18.185   3.160  -1.296  0.00  0.00    +0.295 HD
ENDBRANCH  23   2
ENDBRANCH  17  23
ENDBRANCH  11  17
TORSDOF 7
ENDMDL
MODEL 5
REMARK VINA RESULT:      -6.6     29.171     31.098
REMARK  Name = 28960083
REMARK  7 active torsions:
REMARK  status: ('A' for Active; 'I' for Inactive)
REMARK    1  A    between atoms: O_2  and  C_23
REMARK    2  A    between atoms: N_6  and  C_16
REMARK    3  A    between atoms: N_8  and  C_25
REMARK    4  A    between atoms: C_10  and  C_14
REMARK    5  A    between atoms: C_11  and  C_17
REMARK    6  A    between atoms: C_14  and  C_16
REMARK    7  A    between atoms: C_17  and  C_23
REMARK                            x       y       z     vdW  Elec       q    Type
REMARK                         _______ _______ _______ _____ _____    ______ ____
ROOT
ATOM      3  O   UNL     1      12.767   6.619  20.437  0.00  0.00    -0.252 OA
ATOM      5  N   UNL     1      12.214   8.849  20.690  0.00  0.00    -0.285 N 
ATOM      8  N   UNL     1      14.327   8.230  19.844  0.00  0.00    -0.269 N 
ATOM     10  C   UNL     1      12.382  10.984  21.940  0.00  0.00    +0.011 C 
ATOM     11  C   UNL     1      11.005  10.672  22.585  0.00  0.00    +0.006 C 
ATOM     12  C   UNL     1      12.476  10.292  20.570  0.00  0.00    +0.113 C 
ATOM     13  C   UNL     1      10.716   9.161  22.614  0.00  0.00    +0.023 C 
ATOM     15  C   UNL     1      10.893   8.529  21.233  0.00  0.00    +0.109 C 
ATOM     22  C   UNL     1      13.087   7.805  20.317  0.00  0.00    +0.306 C 
ATOM     35  H   UNL     1      14.385   9.130  19.382  0.00  0.00    +0.156 HD
ENDROOT
BRANCH   8  25
ATOM      1  F   UNL     1      19.174   5.564  20.232  0.00  0.00    -0.205 F 
ATOM     25  C   UNL     1      15.565   7.549  19.943  0.00  0.00    +0.035 A 
ATOM     28  C   UNL     1      15.914   6.593  18.988  0.00  0.00    +0.026 A 
ATOM     29  C   UNL     1      16.435   7.834  20.995  0.00  0.00    +0.026 A 
ATOM     32  C   UNL     1      17.134   5.923  19.086  0.00  0.00    +0.040 A 
ATOM     33  C   UNL     1      17.655   7.163  21.094  0.00  0.00    +0.040 A 
ATOM     34  C   UNL     1      18.004   6.209  20.139  0.00  0.00    +0.124 A 
ENDBRANCH   8  25
BRANCH  10  14
ATOM     14  C   UNL     1      13.582  10.605  22.816  0.00  0.00    +0.020 C 
BRANCH  14  16
ATOM     16  C   UNL     1      14.606  11.731  22.851  0.00  0.00    +0.085 C 
BRANCH  16   6
ATOM      6  N   UNL     1      15.842  11.300  22.199  0.00  0.00    -0.299 NA
ATOM      7  N   UNL     1      18.322  11.643  20.823  0.00  0.00    -0.313 N 
ATOM      9  N   UNL     1      20.558  10.911  20.563  0.00  0.00    -0.240 NA
ATOM     18  C   UNL     1      17.011  11.844  22.899  0.00  0.00    +0.103 C 
ATOM     19  C   UNL     1      15.859  11.723  20.793  0.00  0.00    +0.103 C 
ATOM     20  C   UNL     1      18.313  11.355  22.261  0.00  0.00    +0.122 C 
ATOM     21  C   UNL     1      17.122  11.229  20.085  0.00  0.00    +0.122 C 
ATOM     24  C   UNL     1      19.537  11.685  20.131  0.00  0.00    +0.121 A 
ATOM     26  C   UNL     1      19.613  12.530  19.035  0.00  0.00    +0.043 A 
ATOM     27  C   UNL     1      20.815  12.583  18.337  0.00  0.00    +0.005 A 
ATOM     30  C   UNL     1      21.709  10.990  19.859  0.00  0.00    +0.113 A 
ATOM     31  C   UNL     1      21.887  11.801  18.750  0.00  0.00    +0.020 A 
ENDBRANCH  16   6
ENDBRANCH  14  16
ENDBRANCH  10  14
BRANCH  11  17
ATOM     17  C   UNL     1      10.846  11.279  23.979  0.00  0.00    +0.124 C 
BRANCH  17  23
ATOM      4  O   UNL     1      11.648  13.534  24.440  0.00  0.00    -0.251 OA
ATOM     23  C   UNL     1      10.830  12.782  23.931  0.00  0.00    +0.305 C 
BRANCH  23   2
ATOM      2  O   UNL     1       9.751  13.207  23.225  0.00  0.00    -0.481 OA
ATOM     36  H   UNL     1       9.384  12.496  22.657  0.00  0.00    +0.295 HD
ENDBRANCH  23   2
ENDBRANCH  17  23
ENDBRANCH  11  17
TORSDOF 7
ENDMDL
MODEL 6
REMARK VINA RESULT:      -6.5     29.202     31.203
REMARK  Name = 28960083
REMARK  7 active torsions:
REMARK  status: ('A' for Active; 'I' for Inactive)
REMARK    1  A    between atoms: O_2  and  C_23
REMARK    2  A    between atoms: N_6  and  C_16
REMARK    3  A    between atoms: N_8  and  C_25
REMARK    4  A    between atoms: C_10  and  C_14
REMARK    5  A    between atoms: C_11  and  C_17
REMARK    6  A    between atoms: C_14  and  C_16
REMARK    7  A    between atoms: C_17  and  C_23
REMARK                            x       y       z     vdW  Elec       q    Type
REMARK                         _______ _______ _______ _____ _____    ______ ____
ROOT
ATOM      3  O   UNL     1      12.698   7.033  21.660  0.00  0.00    -0.252 OA
ATOM      5  N   UNL     1      12.078   9.220  21.239  0.00  0.00    -0.285 N 
ATOM      8  N   UNL     1      13.944   8.276  20.149  0.00  0.00    -0.269 N 
ATOM     10  C   UNL     1      12.412  11.656  21.559  0.00  0.00    +0.011 C 
ATOM     11  C   UNL     1      11.268  11.638  22.607  0.00  0.00    +0.006 C 
ATOM     12  C   UNL     1      12.203  10.514  20.550  0.00  0.00    +0.113 C 
ATOM     13  C   UNL     1      11.097  10.248  23.246  0.00  0.00    +0.023 C 
ATOM     15  C   UNL     1      10.962   9.156  22.184  0.00  0.00    +0.109 C 
ATOM     22  C   UNL     1      12.896   8.086  21.048  0.00  0.00    +0.306 C 
ATOM     35  H   UNL     1      13.823   8.947  19.399  0.00  0.00    +0.156 HD
ENDROOT
BRANCH   8  25
ATOM      1  F   UNL     1      18.901   5.788  20.183  0.00  0.00    -0.205 F 
ATOM     25  C   UNL     1      15.211   7.640  20.157  0.00  0.00    +0.035 A 
ATOM     28  C   UNL     1      15.553   6.754  19.136  0.00  0.00    +0.026 A 
ATOM     29  C   UNL     1      16.114   7.900  21.188  0.00  0.00    +0.026 A 
ATOM     32  C   UNL     1      16.801   6.129  19.144  0.00  0.00    +0.040 A 
ATOM     33  C   UNL     1      17.361   7.274  21.197  0.00  0.00    +0.040 A 
ATOM     34  C   UNL     1      17.704   6.389  20.176  0.00  0.00    +0.124 A 
ENDBRANCH   8  25
BRANCH  10  14
ATOM     14  C   UNL     1      13.817  11.583  22.167  0.00  0.00    +0.020 C 
BRANCH  14  16
ATOM     16  C   UNL     1      14.587  12.871  21.913  0.00  0.00    +0.085 C 
BRANCH  16   6
ATOM      6  N   UNL     1      16.015  12.580  21.784  0.00  0.00    -0.299 NA
ATOM      7  N   UNL     1      18.351  10.935  21.771  0.00  0.00    -0.313 N 
ATOM      9  N   UNL     1      20.442  10.476  20.761  0.00  0.00    -0.240 NA
ATOM     18  C   UNL     1      16.251  11.632  20.688  0.00  0.00    +0.103 C 
ATOM     19  C   UNL     1      16.546  12.034  23.039  0.00  0.00    +0.103 C 
ATOM     20  C   UNL     1      17.746  11.362  20.505  0.00  0.00    +0.122 C 
ATOM     21  C   UNL     1      18.051  11.779  22.935  0.00  0.00    +0.122 C 
ATOM     24  C   UNL     1      19.563  10.236  21.760  0.00  0.00    +0.121 A 
ATOM     26  C   UNL     1      19.783   9.333  22.788  0.00  0.00    +0.043 A 
ATOM     27  C   UNL     1      20.983   8.631  22.791  0.00  0.00    +0.005 A 
ATOM     30  C   UNL     1      21.597   9.774  20.799  0.00  0.00    +0.113 A 
ATOM     31  C   UNL     1      21.913   8.850  21.781  0.00  0.00    +0.020 A 
ENDBRANCH  16   6
ENDBRANCH  14  16
ENDBRANCH  10  14
BRANCH  11  17
ATOM     17  C   UNL     1      11.425  12.710  23.684  0.00  0.00    +0.124 C 
BRANCH  17  23
ATOM      4  O   UNL     1      12.703  11.601  25.439  0.00  0.00    -0.251 OA
ATOM     23  C   UNL     1      11.663  12.104  25.040  0.00  0.00    +0.305 C 
BRANCH  23   2
ATOM      2  O   UNL     1      10.533  12.194  25.787  0.00  0.00    -0.481 OA
ATOM     36  H   UNL     1      10.431  13.083  26.190  0.00  0.00    +0.295 HD
ENDBRANCH  23   2
ENDBRANCH  17  23
ENDBRANCH  11  17
TORSDOF 7
ENDMDL
MODEL 7
REMARK VINA RESULT:      -6.2      2.776      4.439
REMARK  Name = 28960083
REMARK  7 active torsions:
REMARK  status: ('A' for Active; 'I' for Inactive)
REMARK    1  A    between atoms: O_2  and  C_23
REMARK    2  A    between atoms: N_6  and  C_16
REMARK    3  A    between atoms: N_8  and  C_25
REMARK    4  A    between atoms: C_10  and  C_14
REMARK    5  A    between atoms: C_11  and  C_17
REMARK    6  A    between atoms: C_14  and  C_16
REMARK    7  A    between atoms: C_17  and  C_23
REMARK                            x       y       z     vdW  Elec       q    Type
REMARK                         _______ _______ _______ _____ _____    ______ ____
ROOT
ATOM      3  O   UNL     1      -2.558 -10.404  16.302  0.00  0.00    -0.252 OA
ATOM      5  N   UNL     1      -4.127 -11.914  17.077  0.00  0.00    -0.285 N 
ATOM      8  N   UNL     1      -3.574 -11.835  14.785  0.00  0.00    -0.269 N 
ATOM     10  C   UNL     1      -6.488 -12.614  17.366  0.00  0.00    +0.011 C 
ATOM     11  C   UNL     1      -6.429 -12.081  18.823  0.00  0.00    +0.006 C 
ATOM     12  C   UNL     1      -5.077 -13.025  16.913  0.00  0.00    +0.113 C 
ATOM     13  C   UNL     1      -5.362 -10.983  18.988  0.00  0.00    +0.023 C 
ATOM     15  C   UNL     1      -4.003 -11.439  18.455  0.00  0.00    +0.109 C 
ATOM     22  C   UNL     1      -3.347 -11.321  16.061  0.00  0.00    +0.306 C 
ATOM     35  H   UNL     1      -3.872 -12.800  14.698  0.00  0.00    +0.156 HD
ENDROOT
BRANCH   8  25
ATOM      1  F   UNL     1      -3.099  -9.166   9.947  0.00  0.00    -0.205 F 
ATOM     25  C   UNL     1      -3.452 -11.153  13.549  0.00  0.00    +0.035 A 
ATOM     28  C   UNL     1      -2.202 -11.024  12.944  0.00  0.00    +0.026 A 
ATOM     29  C   UNL     1      -4.583 -10.611  12.938  0.00  0.00    +0.026 A 
ATOM     32  C   UNL     1      -2.083 -10.353  11.727  0.00  0.00    +0.040 A 
ATOM     33  C   UNL     1      -4.464  -9.939  11.721  0.00  0.00    +0.040 A 
ATOM     34  C   UNL     1      -3.214  -9.811  11.115  0.00  0.00    +0.124 A 
ENDBRANCH   8  25
BRANCH  10  14
ATOM     14  C   UNL     1      -7.108 -11.632  16.366  0.00  0.00    +0.020 C 
BRANCH  14  16
ATOM     16  C   UNL     1      -8.041 -12.353  15.404  0.00  0.00    +0.085 C 
BRANCH  16   6
ATOM      6  N   UNL     1      -9.152 -11.476  15.037  0.00  0.00    -0.299 NA
ATOM      7  N   UNL     1     -10.529  -8.988  14.758  0.00  0.00    -0.313 N 
ATOM      9  N   UNL     1     -11.964  -7.660  13.425  0.00  0.00    -0.240 NA
ATOM     18  C   UNL     1      -8.727 -10.499  14.027  0.00  0.00    +0.103 C 
ATOM     19  C   UNL     1      -9.670 -10.777  16.220  0.00  0.00    +0.103 C 
ATOM     20  C   UNL     1      -9.895  -9.612  13.593  0.00  0.00    +0.122 C 
ATOM     21  C   UNL     1     -10.870  -9.899  15.859  0.00  0.00    +0.122 C 
ATOM     24  C   UNL     1     -11.307  -7.837  14.593  0.00  0.00    +0.121 A 
ATOM     26  C   UNL     1     -11.352  -6.945  15.653  0.00  0.00    +0.043 A 
ATOM     27  C   UNL     1     -12.122  -5.796  15.503  0.00  0.00    +0.005 A 
ATOM     30  C   UNL     1     -12.701  -6.531  13.317  0.00  0.00    +0.113 A 
ATOM     31  C   UNL     1     -12.812  -5.578  14.316  0.00  0.00    +0.020 A 
ENDBRANCH  16   6
ENDBRANCH  14  16
ENDBRANCH  10  14
BRANCH  11  17
ATOM     17  C   UNL     1      -7.783 -11.597  19.339  0.00  0.00    +0.124 C 
BRANCH  17  23
ATOM      4  O   UNL     1      -9.855 -12.842  19.016  0.00  0.00    -0.251 OA
ATOM     23  C   UNL     1      -8.747 -12.737  19.523  0.00  0.00    +0.305 C 
BRANCH  23   2
ATOM      2  O   UNL     1      -8.205 -13.666  20.352  0.00  0.00    -0.481 OA
ATOM     36  H   UNL     1      -8.894 -14.163  20.843  0.00  0.00    +0.295 HD
ENDBRANCH  23   2
ENDBRANCH  17  23
ENDBRANCH  11  17
TORSDOF 7
ENDMDL
MODEL 8
REMARK VINA RESULT:      -6.1      3.592      6.434
REMARK  Name = 28960083
REMARK  7 active torsions:
REMARK  status: ('A' for Active; 'I' for Inactive)
REMARK    1  A    between atoms: O_2  and  C_23
REMARK    2  A    between atoms: N_6  and  C_16
REMARK    3  A    between atoms: N_8  and  C_25
REMARK    4  A    between atoms: C_10  and  C_14
REMARK    5  A    between atoms: C_11  and  C_17
REMARK    6  A    between atoms: C_14  and  C_16
REMARK    7  A    between atoms: C_17  and  C_23
REMARK                            x       y       z     vdW  Elec       q    Type
REMARK                         _______ _______ _______ _____ _____    ______ ____
ROOT
ATOM      3  O   UNL     1      -8.264 -11.370  17.677  0.00  0.00    -0.252 OA
ATOM      5  N   UNL     1      -6.067 -10.948  17.098  0.00  0.00    -0.285 N 
ATOM      8  N   UNL     1      -7.706  -9.267  16.873  0.00  0.00    -0.269 N 
ATOM     10  C   UNL     1      -4.307 -10.668  15.375  0.00  0.00    +0.011 C 
ATOM     11  C   UNL     1      -3.848 -12.123  15.658  0.00  0.00    +0.006 C 
ATOM     12  C   UNL     1      -4.971 -10.084  16.633  0.00  0.00    +0.113 C 
ATOM     13  C   UNL     1      -4.990 -12.982  16.232  0.00  0.00    +0.023 C 
ATOM     15  C   UNL     1      -5.647 -12.309  17.437  0.00  0.00    +0.109 C 
ATOM     22  C   UNL     1      -7.418 -10.576  17.258  0.00  0.00    +0.306 C 
ATOM     35  H   UNL     1      -6.975  -8.570  16.948  0.00  0.00    +0.156 HD
ENDROOT
BRANCH   8  25
ATOM      1  F   UNL     1     -12.491  -7.325  14.851  0.00  0.00    -0.205 F 
ATOM     25  C   UNL     1      -8.928  -8.771  16.357  0.00  0.00    +0.035 A 
ATOM     28  C   UNL     1      -9.723  -7.929  17.134  0.00  0.00    +0.026 A 
ATOM     29  C   UNL     1      -9.337  -9.125  15.071  0.00  0.00    +0.026 A 
ATOM     32  C   UNL     1     -10.927  -7.440  16.625  0.00  0.00    +0.040 A 
ATOM     33  C   UNL     1     -10.541  -8.637  14.562  0.00  0.00    +0.040 A 
ATOM     34  C   UNL     1     -11.335  -7.794  15.338  0.00  0.00    +0.124 A 
ENDBRANCH   8  25
BRANCH  10  14
ATOM     14  C   UNL     1      -5.237 -10.531  14.164  0.00  0.00    +0.020 C 
BRANCH  14  16
ATOM     16  C   UNL     1      -4.460 -10.103  12.927  0.00  0.00    +0.085 C 
BRANCH  16   6
ATOM      6  N   UNL     1      -5.354 -10.056  11.770  0.00  0.00    -0.299 NA
ATOM      7  N   UNL     1      -6.629  -8.868   9.507  0.00  0.00    -0.313 N 
ATOM      9  N   UNL     1      -7.419  -9.169   7.296  0.00  0.00    -0.240 NA
ATOM     18  C   UNL     1      -4.594  -9.792  10.543  0.00  0.00    +0.103 C 
ATOM     19  C   UNL     1      -6.381  -9.023  11.954  0.00  0.00    +0.103 C 
ATOM     20  C   UNL     1      -5.510  -9.795   9.317  0.00  0.00    +0.122 C 
ATOM     21  C   UNL     1      -7.356  -9.001  10.776  0.00  0.00    +0.122 C 
ATOM     24  C   UNL     1      -7.330  -8.387   8.395  0.00  0.00    +0.121 A 
ATOM     26  C   UNL     1      -7.891  -7.124   8.497  0.00  0.00    +0.043 A 
ATOM     27  C   UNL     1      -8.591  -6.633   7.400  0.00  0.00    +0.005 A 
ATOM     30  C   UNL     1      -8.107  -8.658   6.251  0.00  0.00    +0.113 A 
ATOM     31  C   UNL     1      -8.705  -7.409   6.252  0.00  0.00    +0.020 A 
ENDBRANCH  16   6
ENDBRANCH  14  16
ENDBRANCH  10  14
BRANCH  11  17
ATOM     17  C   UNL     1      -3.223 -12.802  14.441  0.00  0.00    +0.124 C 
BRANCH  17  23
ATOM      4  O   UNL     1      -1.122 -11.703  15.008  0.00  0.00    -0.251 OA
ATOM     23  C   UNL     1      -1.794 -12.377  14.241  0.00  0.00    +0.305 C 
BRANCH  23   2
ATOM      2  O   UNL     1      -1.334 -12.857  13.057  0.00  0.00    -0.481 OA
ATOM     36  H   UNL     1      -0.396 -13.137  13.116  0.00  0.00    +0.295 HD
ENDBRANCH  23   2
ENDBRANCH  17  23
ENDBRANCH  11  17
TORSDOF 7
ENDMDL
MODEL 9
REMARK VINA RESULT:      -6.1      4.179      8.071
REMARK  Name = 28960083
REMARK  7 active torsions:
REMARK  status: ('A' for Active; 'I' for Inactive)
REMARK    1  A    between atoms: O_2  and  C_23
REMARK    2  A    between atoms: N_6  and  C_16
REMARK    3  A    between atoms: N_8  and  C_25
REMARK    4  A    between atoms: C_10  and  C_14
REMARK    5  A    between atoms: C_11  and  C_17
REMARK    6  A    between atoms: C_14  and  C_16
REMARK    7  A    between atoms: C_17  and  C_23
REMARK                            x       y       z     vdW  Elec       q    Type
REMARK                         _______ _______ _______ _____ _____    ______ ____
ROOT
ATOM      3  O   UNL     1      -7.461 -12.333  20.453  0.00  0.00    -0.252 OA
ATOM      5  N   UNL     1      -6.205 -10.922  19.122  0.00  0.00    -0.285 N 
ATOM      8  N   UNL     1      -8.527 -10.584  19.364  0.00  0.00    -0.269 N 
ATOM     10  C   UNL     1      -5.457 -10.169  16.881  0.00  0.00    +0.011 C 
ATOM     11  C   UNL     1      -4.148 -10.977  17.087  0.00  0.00    +0.006 C 
ATOM     12  C   UNL     1      -6.023  -9.752  18.248  0.00  0.00    +0.113 C 
ATOM     13  C   UNL     1      -4.343 -12.140  18.077  0.00  0.00    +0.023 C 
ATOM     15  C   UNL     1      -4.970 -11.662  19.387  0.00  0.00    +0.109 C 
ATOM     22  C   UNL     1      -7.413 -11.346  19.713  0.00  0.00    +0.306 C 
ATOM     35  H   UNL     1      -8.390  -9.607  19.133  0.00  0.00    +0.156 HD
ENDROOT
BRANCH   8  25
ATOM      1  F   UNL     1     -13.792 -12.286  18.995  0.00  0.00    -0.205 F 
ATOM     25  C   UNL     1      -9.872 -11.018  19.270  0.00  0.00    +0.035 A 
ATOM     28  C   UNL     1     -10.884 -10.297  19.903  0.00  0.00    +0.026 A 
ATOM     29  C   UNL     1     -10.184 -12.168  18.545  0.00  0.00    +0.026 A 
ATOM     32  C   UNL     1     -12.209 -10.725  19.809  0.00  0.00    +0.040 A 
ATOM     33  C   UNL     1     -11.508 -12.597  18.452  0.00  0.00    +0.040 A 
ATOM     34  C   UNL     1     -12.520 -11.875  19.084  0.00  0.00    +0.124 A 
ENDBRANCH   8  25
BRANCH  10  14
ATOM     14  C   UNL     1      -6.523 -10.905  16.061  0.00  0.00    +0.020 C 
BRANCH  14  16
ATOM     16  C   UNL     1      -7.375  -9.923  15.271  0.00  0.00    +0.085 C 
BRANCH  16   6
ATOM      6  N   UNL     1      -8.706  -9.825  15.869  0.00  0.00    -0.299 NA
ATOM      7  N   UNL     1     -11.432  -8.990  16.045  0.00  0.00    -0.313 N 
ATOM      9  N   UNL     1     -13.646  -9.574  16.644  0.00  0.00    -0.240 NA
ATOM     18  C   UNL     1      -9.718 -10.395  14.971  0.00  0.00    +0.103 C 
ATOM     19  C   UNL     1      -9.036  -8.427  16.169  0.00  0.00    +0.103 C 
ATOM     20  C   UNL     1     -11.108 -10.351  15.609  0.00  0.00    +0.122 C 
ATOM     21  C   UNL     1     -10.403  -8.318  16.848  0.00  0.00    +0.122 C 
ATOM     24  C   UNL     1     -12.768  -8.625  16.249  0.00  0.00    +0.121 A 
ATOM     26  C   UNL     1     -13.104  -7.299  16.029  0.00  0.00    +0.043 A 
ATOM     27  C   UNL     1     -14.427  -6.922  16.229  0.00  0.00    +0.005 A 
ATOM     30  C   UNL     1     -14.923  -9.169  16.827  0.00  0.00    +0.113 A 
ATOM     31  C   UNL     1     -15.360  -7.869  16.635  0.00  0.00    +0.020 A 
ENDBRANCH  16   6
ENDBRANCH  14  16
ENDBRANCH  10  14
BRANCH  11  17
ATOM     17  C   UNL     1      -3.542 -11.481  15.777  0.00  0.00    +0.124 C 
BRANCH  17  23
ATOM      4  O   UNL     1      -1.833 -10.300  14.501  0.00  0.00    -0.251 OA
ATOM     23  C   UNL     1      -2.191 -10.872  15.520  0.00  0.00    +0.305 C 
BRANCH  23   2
ATOM      2  O   UNL     1      -1.396 -11.047  16.607  0.00  0.00    -0.481 OA
ATOM     36  H   UNL     1      -0.813 -10.272  16.761  0.00  0.00    +0.295 HD
ENDBRANCH  23   2
ENDBRANCH  17  23
ENDBRANCH  11  17
TORSDOF 7
ENDMDL
MODEL 10
REMARK VINA RESULT:      -6.0      3.533      7.851
REMARK  Name = 28960083
REMARK  7 active torsions:
REMARK  status: ('A' for Active; 'I' for Inactive)
REMARK    1  A    between atoms: O_2  and  C_23
REMARK    2  A    between atoms: N_6  and  C_16
REMARK    3  A    between atoms: N_8  and  C_25
REMARK    4  A    between atoms: C_10  and  C_14
REMARK    5  A    between atoms: C_11  and  C_17
REMARK    6  A    between atoms: C_14  and  C_16
REMARK    7  A    between atoms: C_17  and  C_23
REMARK                            x       y       z     vdW  Elec       q    Type
REMARK                         _______ _______ _______ _____ _____    ______ ____
ROOT
ATOM      3  O   UNL     1      -2.094 -11.743  15.206  0.00  0.00    -0.252 OA
ATOM      5  N   UNL     1      -3.138 -10.927  13.313  0.00  0.00    -0.285 N 
ATOM      8  N   UNL     1      -3.890 -10.297  15.458  0.00  0.00    -0.269 N 
ATOM     10  C   UNL     1      -5.032 -10.955  11.713  0.00  0.00    +0.011 C 
ATOM     11  C   UNL     1      -4.156 -11.795  10.746  0.00  0.00    +0.006 C 
ATOM     12  C   UNL     1      -4.127 -10.095  12.610  0.00  0.00    +0.113 C 
ATOM     13  C   UNL     1      -3.069 -12.585  11.499  0.00  0.00    +0.023 C 
ATOM     15  C   UNL     1      -2.254 -11.678  12.420  0.00  0.00    +0.109 C 
ATOM     22  C   UNL     1      -2.970 -11.031  14.710  0.00  0.00    +0.306 C 
ATOM     35  H   UNL     1      -4.276  -9.451  15.054  0.00  0.00    +0.156 HD
ENDROOT
BRANCH   8  25
ATOM      1  F   UNL     1      -5.825 -11.481  20.518  0.00  0.00    -0.205 F 
ATOM     25  C   UNL     1      -4.384 -10.599  16.750  0.00  0.00    +0.035 A 
ATOM     28  C   UNL     1      -5.557  -9.997  17.207  0.00  0.00    +0.026 A 
ATOM     29  C   UNL     1      -3.698 -11.498  17.566  0.00  0.00    +0.026 A 
ATOM     32  C   UNL     1      -6.044 -10.296  18.480  0.00  0.00    +0.040 A 
ATOM     33  C   UNL     1      -4.184 -11.796  18.840  0.00  0.00    +0.040 A 
ATOM     34  C   UNL     1      -5.357 -11.196  19.296  0.00  0.00    +0.124 A 
ENDBRANCH   8  25
BRANCH  10  14
ATOM     14  C   UNL     1      -5.996 -11.788  12.565  0.00  0.00    +0.020 C 
BRANCH  14  16
ATOM     16  C   UNL     1      -7.341 -11.089  12.705  0.00  0.00    +0.085 C 
BRANCH  16   6
ATOM      6  N   UNL     1      -7.636 -10.853  14.118  0.00  0.00    -0.299 NA
ATOM      7  N   UNL     1      -9.292 -10.621  16.434  0.00  0.00    -0.313 N 
ATOM      9  N   UNL     1      -9.519 -11.032  18.754  0.00  0.00    -0.240 NA
ATOM     18  C   UNL     1      -8.237 -12.047  14.725  0.00  0.00    +0.103 C 
ATOM     19  C   UNL     1      -8.538  -9.706  14.273  0.00  0.00    +0.103 C 
ATOM     20  C   UNL     1      -8.497 -11.834  16.218  0.00  0.00    +0.122 C 
ATOM     21  C   UNL     1      -8.808  -9.415  15.751  0.00  0.00    +0.122 C 
ATOM     24  C   UNL     1     -10.003 -10.460  17.628  0.00  0.00    +0.121 A 
ATOM     26  C   UNL     1     -11.171  -9.716  17.576  0.00  0.00    +0.043 A 
ATOM     27  C   UNL     1     -11.887  -9.547  18.756  0.00  0.00    +0.005 A 
ATOM     30  C   UNL     1     -10.243 -10.846  19.880  0.00  0.00    +0.113 A 
ATOM     31  C   UNL     1     -11.421 -10.119  19.934  0.00  0.00    +0.020 A 
ENDBRANCH  16   6
ENDBRANCH  14  16
ENDBRANCH  10  14
BRANCH  11  17
ATOM     17  C   UNL     1      -4.974 -12.724   9.850  0.00  0.00    +0.124 C 
BRANCH  17  23
ATOM      4  O   UNL     1      -4.790 -11.811   7.597  0.00  0.00    -0.251 OA
ATOM     23  C   UNL     1      -4.508 -12.669   8.421  0.00  0.00    +0.305 C 
BRANCH  23   2
ATOM      2  O   UNL     1      -3.706 -13.732   8.159  0.00  0.00    -0.481 OA
ATOM     36  H   UNL     1      -2.794 -13.454   7.928  0.00  0.00    +0.295 HD
ENDBRANCH  23   2
ENDBRANCH  17  23
ENDBRANCH  11  17
TORSDOF 7
ENDMDL
