MODEL 1
REMARK VINA RESULT:      -7.3      0.000      0.000
REMARK  Name = 11884077
REMARK  8 active torsions:
REMARK  status: ('A' for Active; 'I' for Inactive)
REMARK    1  A    between atoms: S_1  and  N_10
REMARK    2  A    between atoms: S_1  and  C_19
REMARK    3  A    between atoms: O_5  and  C_15
REMARK    4  A    between atoms: O_5  and  C_18
REMARK    5  A    between atoms: O_9  and  C_28
REMARK    6  A    between atoms: O_9  and  C_29
REMARK    7  A    between atoms: N_10  and  C_14
REMARK    8  A    between atoms: N_11  and  C_23
REMARK                            x       y       z     vdW  Elec       q    Type
REMARK                         _______ _______ _______ _____ _____    ______ ____
ROOT
ATOM      3  O   UNL     1      12.812  10.333  20.793  0.00  0.00    -0.369 OA
ATOM      4  O   UNL     1      10.466   8.596  21.764  0.00  0.00    -0.368 OA
ATOM     12  C   UNL     1      11.651   9.072  22.435  0.00  0.00    +0.171 C 
ATOM     13  C   UNL     1      12.775   9.040  21.419  0.00  0.00    +0.191 C 
ATOM     14  C   UNL     1      11.502  10.537  22.764  0.00  0.00    +0.133 C 
ATOM     15  C   UNL     1      12.319   7.967  20.459  0.00  0.00    +0.235 C 
ATOM     16  C   UNL     1      11.906  11.217  21.471  0.00  0.00    +0.183 C 
ATOM     17  C   UNL     1      10.821   8.173  20.439  0.00  0.00    +0.207 C 
ENDROOT
BRANCH  14  10
ATOM     10  N   UNL     1      12.444  10.912  23.845  0.00  0.00    -0.182 NA
ATOM     30  H   UNL     1      13.431  10.996  23.569  0.00  0.00    +0.149 HD
BRANCH  10   1
ATOM      1  S   UNL     1      11.863  11.919  25.098  0.00  0.00    +0.065 S 
ATOM      6  O   UNL     1      12.970  12.336  25.935  0.00  0.00    -0.153 OA
ATOM      7  O   UNL     1      10.672  11.317  25.667  0.00  0.00    -0.153 OA
BRANCH   1  19
ATOM      2  S   UNL     1      12.478  14.452  23.775  0.00  0.00    -0.077 S 
ATOM     19  C   UNL     1      11.250  13.420  24.332  0.00  0.00    +0.142 A 
ATOM     20  C   UNL     1       9.997  13.883  24.115  0.00  0.00    +0.036 A 
ATOM     21  C   UNL     1      10.026  15.148  23.459  0.00  0.00    +0.010 A 
ATOM     22  C   UNL     1      11.313  15.574  23.215  0.00  0.00    +0.047 A 
ENDBRANCH   1  19
ENDBRANCH  10   1
ENDBRANCH  14  10
BRANCH  15   5
ATOM      5  O   UNL     1      12.888   8.081  19.174  0.00  0.00    -0.442 OA
BRANCH   5  18
ATOM      8  O   UNL     1      14.878   8.990  18.511  0.00  0.00    -0.226 OA
ATOM     11  N   UNL     1      14.787   7.027  19.782  0.00  0.00    -0.251 N 
ATOM     18  C   UNL     1      14.265   8.111  19.102  0.00  0.00    +0.405 C 
ATOM     31  H   UNL     1      14.112   6.401  20.213  0.00  0.00    +0.158 HD
BRANCH  11  23
ATOM     23  C   UNL     1      16.146   6.680  19.954  0.00  0.00    +0.037 A 
ATOM     24  C   UNL     1      16.821   7.117  21.082  0.00  0.00    +0.027 A 
ATOM     25  C   UNL     1      16.777   5.909  18.990  0.00  0.00    +0.027 A 
ATOM     26  C   UNL     1      18.163   6.774  21.251  0.00  0.00    +0.047 A 
ATOM     27  C   UNL     1      18.119   5.567  19.159  0.00  0.00    +0.047 A 
ATOM     28  C   UNL     1      18.811   5.999  20.290  0.00  0.00    +0.120 A 
BRANCH  28   9
ATOM      9  O   UNL     1      20.120   5.663  20.456  0.00  0.00    -0.495 OA
ATOM     29  C   UNL     1      20.670   5.822  21.763  0.00  0.00    +0.277 C 
ENDBRANCH  28   9
ENDBRANCH  11  23
ENDBRANCH   5  18
ENDBRANCH  15   5
TORSDOF 7
ENDMDL
MODEL 2
REMARK VINA RESULT:      -7.2      3.019      5.633
REMARK  Name = 11884077
REMARK  8 active torsions:
REMARK  status: ('A' for Active; 'I' for Inactive)
REMARK    1  A    between atoms: S_1  and  N_10
REMARK    2  A    between atoms: S_1  and  C_19
REMARK    3  A    between atoms: O_5  and  C_15
REMARK    4  A    between atoms: O_5  and  C_18
REMARK    5  A    between atoms: O_9  and  C_28
REMARK    6  A    between atoms: O_9  and  C_29
REMARK    7  A    between atoms: N_10  and  C_14
REMARK    8  A    between atoms: N_11  and  C_23
REMARK                            x       y       z     vdW  Elec       q    Type
REMARK                         _______ _______ _______ _____ _____    ______ ____
ROOT
ATOM      3  O   UNL     1      16.246   8.236  21.305  0.00  0.00    -0.369 OA
ATOM      4  O   UNL     1      15.874   6.039  19.184  0.00  0.00    -0.368 OA
ATOM     12  C   UNL     1      15.241   6.259  20.462  0.00  0.00    +0.171 C 
ATOM     13  C   UNL     1      16.306   6.803  21.393  0.00  0.00    +0.191 C 
ATOM     14  C   UNL     1      14.242   7.385  20.355  0.00  0.00    +0.133 C 
ATOM     15  C   UNL     1      17.579   6.258  20.790  0.00  0.00    +0.235 C 
ATOM     16  C   UNL     1      15.107   8.619  20.520  0.00  0.00    +0.183 C 
ATOM     17  C   UNL     1      17.277   6.311  19.309  0.00  0.00    +0.207 C 
ENDROOT
BRANCH  14  10
ATOM     10  N   UNL     1      13.265   7.303  21.466  0.00  0.00    -0.182 NA
ATOM     30  H   UNL     1      13.650   7.432  22.411  0.00  0.00    +0.149 HD
BRANCH  10   1
ATOM      1  S   UNL     1      11.666   7.826  21.163  0.00  0.00    +0.065 S 
ATOM      6  O   UNL     1      10.773   7.244  22.146  0.00  0.00    -0.153 OA
ATOM      7  O   UNL     1      11.399   7.715  19.742  0.00  0.00    -0.153 OA
BRANCH   1  19
ATOM      2  S   UNL     1      10.961  10.013  22.971  0.00  0.00    -0.077 S 
ATOM     19  C   UNL     1      11.619   9.594  21.463  0.00  0.00    +0.142 A 
ATOM     20  C   UNL     1      12.009  10.652  20.715  0.00  0.00    +0.036 A 
ATOM     21  C   UNL     1      11.762  11.879  21.398  0.00  0.00    +0.010 A 
ATOM     22  C   UNL     1      11.194  11.675  22.636  0.00  0.00    +0.047 A 
ENDBRANCH   1  19
ENDBRANCH  10   1
ENDBRANCH  14  10
BRANCH  15   5
ATOM      5  O   UNL     1      18.726   7.005  21.126  0.00  0.00    -0.442 OA
BRANCH   5  18
ATOM      8  O   UNL     1      20.074   6.266  22.818  0.00  0.00    -0.226 OA
ATOM     11  N   UNL     1      20.476   5.688  20.586  0.00  0.00    -0.251 N 
ATOM     18  C   UNL     1      19.804   6.303  21.625  0.00  0.00    +0.405 C 
ATOM     31  H   UNL     1      20.095   5.837  19.655  0.00  0.00    +0.158 HD
BRANCH  11  23
ATOM     23  C   UNL     1      21.630   4.875  20.657  0.00  0.00    +0.037 A 
ATOM     24  C   UNL     1      22.864   5.419  20.338  0.00  0.00    +0.027 A 
ATOM     25  C   UNL     1      21.504   3.549  21.042  0.00  0.00    +0.027 A 
ATOM     26  C   UNL     1      24.002   4.616  20.408  0.00  0.00    +0.047 A 
ATOM     27  C   UNL     1      22.643   2.747  21.112  0.00  0.00    +0.047 A 
ATOM     28  C   UNL     1      23.892   3.281  20.794  0.00  0.00    +0.120 A 
BRANCH  28   9
ATOM      9  O   UNL     1      25.004   2.498  20.863  0.00  0.00    -0.495 OA
ATOM     29  C   UNL     1      24.935   1.345  21.701  0.00  0.00    +0.277 C 
ENDBRANCH  28   9
ENDBRANCH  11  23
ENDBRANCH   5  18
ENDBRANCH  15   5
TORSDOF 7
ENDMDL
MODEL 3
REMARK VINA RESULT:      -6.6     28.138     31.351
REMARK  Name = 11884077
REMARK  8 active torsions:
REMARK  status: ('A' for Active; 'I' for Inactive)
REMARK    1  A    between atoms: S_1  and  N_10
REMARK    2  A    between atoms: S_1  and  C_19
REMARK    3  A    between atoms: O_5  and  C_15
REMARK    4  A    between atoms: O_5  and  C_18
REMARK    5  A    between atoms: O_9  and  C_28
REMARK    6  A    between atoms: O_9  and  C_29
REMARK    7  A    between atoms: N_10  and  C_14
REMARK    8  A    between atoms: N_11  and  C_23
REMARK                            x       y       z     vdW  Elec       q    Type
REMARK                         _______ _______ _______ _____ _____    ______ ____
ROOT
ATOM      3  O   UNL     1     -10.988  -8.350  17.755  0.00  0.00    -0.369 OA
ATOM      4  O   UNL     1      -9.702  -8.913  15.018  0.00  0.00    -0.368 OA
ATOM     12  C   UNL     1      -9.138  -8.489  16.277  0.00  0.00    +0.171 C 
ATOM     13  C   UNL     1     -10.142  -7.549  16.915  0.00  0.00    +0.191 C 
ATOM     14  C   UNL     1      -9.074  -9.656  17.231  0.00  0.00    +0.133 C 
ATOM     15  C   UNL     1     -10.890  -7.008  15.720  0.00  0.00    +0.235 C 
ATOM     16  C   UNL     1     -10.472  -9.688  17.818  0.00  0.00    +0.183 C 
ATOM     17  C   UNL     1     -10.933  -8.208  14.801  0.00  0.00    +0.207 C 
ENDROOT
BRANCH  14  10
ATOM     10  N   UNL     1      -8.086  -9.380  18.302  0.00  0.00    -0.182 NA
ATOM     30  H   UNL     1      -8.360  -8.670  18.993  0.00  0.00    +0.149 HD
BRANCH  10   1
ATOM      1  S   UNL     1      -7.086 -10.669  18.815  0.00  0.00    +0.065 S 
ATOM      6  O   UNL     1      -7.754 -11.930  18.562  0.00  0.00    -0.153 OA
ATOM      7  O   UNL     1      -6.547 -10.349  20.123  0.00  0.00    -0.153 OA
BRANCH   1  19
ATOM      2  S   UNL     1      -4.395 -11.690  18.302  0.00  0.00    -0.077 S 
ATOM     19  C   UNL     1      -5.639 -10.673  17.754  0.00  0.00    +0.142 A 
ATOM     20  C   UNL     1      -5.355 -10.019  16.604  0.00  0.00    +0.036 A 
ATOM     21  C   UNL     1      -4.054 -10.358  16.132  0.00  0.00    +0.010 A 
ATOM     22  C   UNL     1      -3.421 -11.257  16.962  0.00  0.00    +0.047 A 
ENDBRANCH   1  19
ENDBRANCH  10   1
ENDBRANCH  14  10
BRANCH  15   5
ATOM      5  O   UNL     1     -12.180  -6.532  16.032  0.00  0.00    -0.442 OA
BRANCH   5  18
ATOM      8  O   UNL     1     -14.009  -6.849  14.698  0.00  0.00    -0.226 OA
ATOM     11  N   UNL     1     -12.498  -5.103  14.316  0.00  0.00    -0.251 N 
ATOM     18  C   UNL     1     -13.000  -6.211  14.970  0.00  0.00    +0.405 C 
ATOM     31  H   UNL     1     -11.641  -4.709  14.695  0.00  0.00    +0.158 HD
BRANCH  11  23
ATOM     23  C   UNL     1     -13.028  -4.447  13.182  0.00  0.00    +0.037 A 
ATOM     24  C   UNL     1     -12.261  -4.354  12.031  0.00  0.00    +0.027 A 
ATOM     25  C   UNL     1     -14.304  -3.910  13.243  0.00  0.00    +0.027 A 
ATOM     26  C   UNL     1     -12.785  -3.706  10.912  0.00  0.00    +0.047 A 
ATOM     27  C   UNL     1     -14.827  -3.263  12.123  0.00  0.00    +0.047 A 
ATOM     28  C   UNL     1     -14.068  -3.161  10.958  0.00  0.00    +0.120 A 
BRANCH  28   9
ATOM      9  O   UNL     1     -14.579  -2.531   9.865  0.00  0.00    -0.495 OA
ATOM     29  C   UNL     1     -14.932  -3.349   8.750  0.00  0.00    +0.277 C 
ENDBRANCH  28   9
ENDBRANCH  11  23
ENDBRANCH   5  18
ENDBRANCH  15   5
TORSDOF 7
ENDMDL
MODEL 4
REMARK VINA RESULT:      -6.5     27.172     30.143
REMARK  Name = 11884077
REMARK  8 active torsions:
REMARK  status: ('A' for Active; 'I' for Inactive)
REMARK    1  A    between atoms: S_1  and  N_10
REMARK    2  A    between atoms: S_1  and  C_19
REMARK    3  A    between atoms: O_5  and  C_15
REMARK    4  A    between atoms: O_5  and  C_18
REMARK    5  A    between atoms: O_9  and  C_28
REMARK    6  A    between atoms: O_9  and  C_29
REMARK    7  A    between atoms: N_10  and  C_14
REMARK    8  A    between atoms: N_11  and  C_23
REMARK                            x       y       z     vdW  Elec       q    Type
REMARK                         _______ _______ _______ _____ _____    ______ ____
ROOT
ATOM      3  O   UNL     1      -3.202 -10.510  16.727  0.00  0.00    -0.369 OA
ATOM      4  O   UNL     1      -4.542 -12.980  15.477  0.00  0.00    -0.368 OA
ATOM     12  C   UNL     1      -4.381 -11.628  14.998  0.00  0.00    +0.171 C 
ATOM     13  C   UNL     1      -4.523 -10.716  16.200  0.00  0.00    +0.191 C 
ATOM     14  C   UNL     1      -2.959 -11.410  14.542  0.00  0.00    +0.133 C 
ATOM     15  C   UNL     1      -5.377 -11.537  17.136  0.00  0.00    +0.235 C 
ATOM     16  C   UNL     1      -2.236 -11.087  15.836  0.00  0.00    +0.183 C 
ATOM     17  C   UNL     1      -4.881 -12.941  16.870  0.00  0.00    +0.207 C 
ENDROOT
BRANCH  14  10
ATOM     10  N   UNL     1      -2.893 -10.247  13.626  0.00  0.00    -0.182 NA
ATOM     30  H   UNL     1      -2.598  -9.358  14.050  0.00  0.00    +0.149 HD
BRANCH  10   1
ATOM      1  S   UNL     1      -2.487 -10.541  11.991  0.00  0.00    +0.065 S 
ATOM      6  O   UNL     1      -2.600 -11.959  11.713  0.00  0.00    -0.153 OA
ATOM      7  O   UNL     1      -1.281  -9.803  11.670  0.00  0.00    -0.153 OA
BRANCH   1  19
ATOM      2  S   UNL     1      -5.312  -9.890  11.617  0.00  0.00    -0.077 S 
ATOM     19  C   UNL     1      -3.743  -9.754  10.982  0.00  0.00    +0.142 A 
ATOM     20  C   UNL     1      -3.676  -9.074   9.814  0.00  0.00    +0.036 A 
ATOM     21  C   UNL     1      -4.967  -8.634   9.403  0.00  0.00    +0.010 A 
ATOM     22  C   UNL     1      -5.949  -9.012  10.292  0.00  0.00    +0.047 A 
ENDBRANCH   1  19
ENDBRANCH  10   1
ENDBRANCH  14  10
BRANCH  15   5
ATOM      5  O   UNL     1      -5.238 -11.173  18.491  0.00  0.00    -0.442 OA
BRANCH   5  18
ATOM      8  O   UNL     1      -6.341 -10.234  20.260  0.00  0.00    -0.226 OA
ATOM     11  N   UNL     1      -7.465 -10.866  18.306  0.00  0.00    -0.251 N 
ATOM     18  C   UNL     1      -6.368 -10.708  19.131  0.00  0.00    +0.405 C 
ATOM     31  H   UNL     1      -7.285 -11.282  17.396  0.00  0.00    +0.158 HD
BRANCH  11  23
ATOM     23  C   UNL     1      -8.810 -10.522  18.571  0.00  0.00    +0.037 A 
ATOM     24  C   UNL     1      -9.452 -11.085  19.662  0.00  0.00    +0.027 A 
ATOM     25  C   UNL     1      -9.460  -9.629  17.733  0.00  0.00    +0.027 A 
ATOM     26  C   UNL     1     -10.780 -10.745  19.922  0.00  0.00    +0.047 A 
ATOM     27  C   UNL     1     -10.787  -9.289  17.994  0.00  0.00    +0.047 A 
ATOM     28  C   UNL     1     -11.447  -9.847  19.089  0.00  0.00    +0.120 A 
BRANCH  28   9
ATOM      9  O   UNL     1     -12.742  -9.515  19.344  0.00  0.00    -0.495 OA
ATOM     29  C   UNL     1     -13.370 -10.154  20.455  0.00  0.00    +0.277 C 
ENDBRANCH  28   9
ENDBRANCH  11  23
ENDBRANCH   5  18
ENDBRANCH  15   5
TORSDOF 7
ENDMDL
MODEL 5
REMARK VINA RESULT:      -6.5     27.041     29.160
REMARK  Name = 11884077
REMARK  8 active torsions:
REMARK  status: ('A' for Active; 'I' for Inactive)
REMARK    1  A    between atoms: S_1  and  N_10
REMARK    2  A    between atoms: S_1  and  C_19
REMARK    3  A    between atoms: O_5  and  C_15
REMARK    4  A    between atoms: O_5  and  C_18
REMARK    5  A    between atoms: O_9  and  C_28
REMARK    6  A    between atoms: O_9  and  C_29
REMARK    7  A    between atoms: N_10  and  C_14
REMARK    8  A    between atoms: N_11  and  C_23
REMARK                            x       y       z     vdW  Elec       q    Type
REMARK                         _______ _______ _______ _____ _____    ______ ____
ROOT
ATOM      3  O   UNL     1      -3.918 -12.225  14.538  0.00  0.00    -0.369 OA
ATOM      4  O   UNL     1      -2.223 -10.790  16.666  0.00  0.00    -0.368 OA
ATOM     12  C   UNL     1      -3.571 -10.568  16.200  0.00  0.00    +0.171 C 
ATOM     13  C   UNL     1      -3.571 -10.841  14.709  0.00  0.00    +0.191 C 
ATOM     14  C   UNL     1      -4.490 -11.623  16.764  0.00  0.00    +0.133 C 
ATOM     15  C   UNL     1      -2.136 -10.572  14.325  0.00  0.00    +0.235 C 
ATOM     16  C   UNL     1      -4.301 -12.782  15.804  0.00  0.00    +0.183 C 
ATOM     17  C   UNL     1      -1.383 -11.073  15.538  0.00  0.00    +0.207 C 
ENDROOT
BRANCH  14  10
ATOM     10  N   UNL     1      -5.894 -11.152  16.712  0.00  0.00    -0.182 NA
ATOM     30  H   UNL     1      -6.403 -11.354  15.841  0.00  0.00    +0.149 HD
BRANCH  10   1
ATOM      1  S   UNL     1      -6.777 -11.108  18.175  0.00  0.00    +0.065 S 
ATOM      6  O   UNL     1      -5.987 -10.447  19.196  0.00  0.00    -0.153 OA
ATOM      7  O   UNL     1      -7.365 -12.414  18.405  0.00  0.00    -0.153 OA
BRANCH   1  19
ATOM      2  S   UNL     1      -9.612 -10.597  18.671  0.00  0.00    -0.077 S 
ATOM     19  C   UNL     1      -8.198 -10.048  17.907  0.00  0.00    +0.142 A 
ATOM     20  C   UNL     1      -8.354  -8.896  17.213  0.00  0.00    +0.036 A 
ATOM     21  C   UNL     1      -9.696  -8.426  17.300  0.00  0.00    +0.010 A 
ATOM     22  C   UNL     1     -10.487  -9.256  18.063  0.00  0.00    +0.047 A 
ENDBRANCH   1  19
ENDBRANCH  10   1
ENDBRANCH  14  10
BRANCH  15   5
ATOM      5  O   UNL     1      -1.736 -11.229  13.144  0.00  0.00    -0.442 OA
BRANCH   5  18
ATOM      8  O   UNL     1      -1.329  -9.701  11.493  0.00  0.00    -0.226 OA
ATOM     11  N   UNL     1      -3.173 -11.139  11.407  0.00  0.00    -0.251 N 
ATOM     18  C   UNL     1      -2.024 -10.598  11.951  0.00  0.00    +0.405 C 
ATOM     31  H   UNL     1      -3.614 -11.884  11.941  0.00  0.00    +0.158 HD
BRANCH  11  23
ATOM     23  C   UNL     1      -3.815 -10.784  10.199  0.00  0.00    +0.037 A 
ATOM     24  C   UNL     1      -4.183  -9.465   9.988  0.00  0.00    +0.027 A 
ATOM     25  C   UNL     1      -4.063 -11.763   9.249  0.00  0.00    +0.027 A 
ATOM     26  C   UNL     1      -4.817  -9.116   8.795  0.00  0.00    +0.047 A 
ATOM     27  C   UNL     1      -4.697 -11.414   8.057  0.00  0.00    +0.047 A 
ATOM     28  C   UNL     1      -5.073 -10.090   7.830  0.00  0.00    +0.120 A 
BRANCH  28   9
ATOM      9  O   UNL     1      -5.690  -9.749   6.666  0.00  0.00    -0.495 OA
ATOM     29  C   UNL     1      -5.853 -10.778   5.690  0.00  0.00    +0.277 C 
ENDBRANCH  28   9
ENDBRANCH  11  23
ENDBRANCH   5  18
ENDBRANCH  15   5
TORSDOF 7
ENDMDL
MODEL 6
REMARK VINA RESULT:      -6.5      5.824     11.727
REMARK  Name = 11884077
REMARK  8 active torsions:
REMARK  status: ('A' for Active; 'I' for Inactive)
REMARK    1  A    between atoms: S_1  and  N_10
REMARK    2  A    between atoms: S_1  and  C_19
REMARK    3  A    between atoms: O_5  and  C_15
REMARK    4  A    between atoms: O_5  and  C_18
REMARK    5  A    between atoms: O_9  and  C_28
REMARK    6  A    between atoms: O_9  and  C_29
REMARK    7  A    between atoms: N_10  and  C_14
REMARK    8  A    between atoms: N_11  and  C_23
REMARK                            x       y       z     vdW  Elec       q    Type
REMARK                         _______ _______ _______ _____ _____    ______ ____
ROOT
ATOM      3  O   UNL     1      21.792   7.253  20.526  0.00  0.00    -0.369 OA
ATOM      4  O   UNL     1      20.921   5.483  22.885  0.00  0.00    -0.368 OA
ATOM     12  C   UNL     1      21.284   5.162  21.526  0.00  0.00    +0.171 C 
ATOM     13  C   UNL     1      20.745   6.277  20.652  0.00  0.00    +0.191 C 
ATOM     14  C   UNL     1      22.781   5.259  21.357  0.00  0.00    +0.133 C 
ATOM     15  C   UNL     1      19.587   6.802  21.467  0.00  0.00    +0.235 C 
ATOM     16  C   UNL     1      22.997   6.740  21.114  0.00  0.00    +0.183 C 
ATOM     17  C   UNL     1      20.103   6.662  22.881  0.00  0.00    +0.207 C 
ENDROOT
BRANCH  14  10
ATOM     10  N   UNL     1      23.207   4.486  20.166  0.00  0.00    -0.182 NA
ATOM     30  H   UNL     1      22.805   4.789  19.269  0.00  0.00    +0.149 HD
BRANCH  10   1
ATOM      1  S   UNL     1      24.782   3.821  20.168  0.00  0.00    +0.065 S 
ATOM      6  O   UNL     1      25.736   4.840  20.558  0.00  0.00    -0.153 OA
ATOM      7  O   UNL     1      24.961   3.043  18.957  0.00  0.00    -0.153 OA
BRANCH   1  19
ATOM      2  S   UNL     1      25.978   2.928  22.681  0.00  0.00    -0.077 S 
ATOM     19  C   UNL     1      24.836   2.590  21.470  0.00  0.00    +0.142 A 
ATOM     20  C   UNL     1      24.141   1.445  21.668  0.00  0.00    +0.036 A 
ATOM     21  C   UNL     1      24.552   0.799  22.870  0.00  0.00    +0.010 A 
ATOM     22  C   UNL     1      25.546   1.499  23.519  0.00  0.00    +0.047 A 
ENDBRANCH   1  19
ENDBRANCH  10   1
ENDBRANCH  14  10
BRANCH  15   5
ATOM      5  O   UNL     1      19.239   8.133  21.158  0.00  0.00    -0.442 OA
BRANCH   5  18
ATOM      8  O   UNL     1      17.487   9.509  21.674  0.00  0.00    -0.226 OA
ATOM     11  N   UNL     1      17.155   7.424  20.663  0.00  0.00    -0.251 N 
ATOM     18  C   UNL     1      17.898   8.454  21.208  0.00  0.00    +0.405 C 
ATOM     31  H   UNL     1      17.681   6.623  20.324  0.00  0.00    +0.158 HD
BRANCH  11  23
ATOM     23  C   UNL     1      15.752   7.346  20.518  0.00  0.00    +0.037 A 
ATOM     24  C   UNL     1      14.947   7.425  21.643  0.00  0.00    +0.027 A 
ATOM     25  C   UNL     1      15.207   7.190  19.252  0.00  0.00    +0.027 A 
ATOM     26  C   UNL     1      13.562   7.346  21.499  0.00  0.00    +0.047 A 
ATOM     27  C   UNL     1      13.822   7.112  19.109  0.00  0.00    +0.047 A 
ATOM     28  C   UNL     1      13.000   7.191  20.232  0.00  0.00    +0.120 A 
BRANCH  28   9
ATOM      9  O   UNL     1      11.648   7.116  20.092  0.00  0.00    -0.495 OA
ATOM     29  C   UNL     1      10.871   8.126  20.736  0.00  0.00    +0.277 C 
ENDBRANCH  28   9
ENDBRANCH  11  23
ENDBRANCH   5  18
ENDBRANCH  15   5
TORSDOF 7
ENDMDL
MODEL 7
REMARK VINA RESULT:      -6.4     27.813     29.302
REMARK  Name = 11884077
REMARK  8 active torsions:
REMARK  status: ('A' for Active; 'I' for Inactive)
REMARK    1  A    between atoms: S_1  and  N_10
REMARK    2  A    between atoms: S_1  and  C_19
REMARK    3  A    between atoms: O_5  and  C_15
REMARK    4  A    between atoms: O_5  and  C_18
REMARK    5  A    between atoms: O_9  and  C_28
REMARK    6  A    between atoms: O_9  and  C_29
REMARK    7  A    between atoms: N_10  and  C_14
REMARK    8  A    between atoms: N_11  and  C_23
REMARK                            x       y       z     vdW  Elec       q    Type
REMARK                         _______ _______ _______ _____ _____    ______ ____
ROOT
ATOM      3  O   UNL     1      -6.783 -11.502  16.915  0.00  0.00    -0.369 OA
ATOM      4  O   UNL     1      -6.303 -11.145  19.932  0.00  0.00    -0.368 OA
ATOM     12  C   UNL     1      -6.855 -10.260  18.935  0.00  0.00    +0.171 C 
ATOM     13  C   UNL     1      -6.076 -10.496  17.657  0.00  0.00    +0.191 C 
ATOM     14  C   UNL     1      -8.260 -10.688  18.588  0.00  0.00    +0.133 C 
ATOM     15  C   UNL     1      -4.751 -11.007  18.170  0.00  0.00    +0.235 C 
ATOM     16  C   UNL     1      -8.035 -11.779  17.560  0.00  0.00    +0.183 C 
ATOM     17  C   UNL     1      -5.169 -11.823  19.373  0.00  0.00    +0.207 C 
ENDROOT
BRANCH  14  10
ATOM     10  N   UNL     1      -8.996  -9.559  17.971  0.00  0.00    -0.182 NA
ATOM     30  H   UNL     1      -8.493  -9.045  17.235  0.00  0.00    +0.149 HD
BRANCH  10   1
ATOM      1  S   UNL     1     -10.697  -9.682  17.856  0.00  0.00    +0.065 S 
ATOM      6  O   UNL     1     -11.274  -9.646  19.185  0.00  0.00    -0.153 OA
ATOM      7  O   UNL     1     -11.027 -10.738  16.919  0.00  0.00    -0.153 OA
BRANCH   1  19
ATOM      2  S   UNL     1     -12.849  -8.343  16.399  0.00  0.00    -0.077 S 
ATOM     19  C   UNL     1     -11.283  -8.197  17.039  0.00  0.00    +0.142 A 
ATOM     20  C   UNL     1     -10.713  -6.985  16.838  0.00  0.00    +0.036 A 
ATOM     21  C   UNL     1     -11.591  -6.120  16.124  0.00  0.00    +0.010 A 
ATOM     22  C   UNL     1     -12.787  -6.732  15.821  0.00  0.00    +0.047 A 
ENDBRANCH   1  19
ENDBRANCH  10   1
ENDBRANCH  14  10
BRANCH  15   5
ATOM      5  O   UNL     1      -4.041 -11.777  17.227  0.00  0.00    -0.442 OA
BRANCH   5  18
ATOM      8  O   UNL     1      -2.477 -10.380  16.316  0.00  0.00    -0.226 OA
ATOM     11  N   UNL     1      -4.153 -11.365  15.012  0.00  0.00    -0.251 N 
ATOM     18  C   UNL     1      -3.459 -11.097  16.177  0.00  0.00    +0.405 C 
ATOM     31  H   UNL     1      -4.949 -11.991  15.098  0.00  0.00    +0.158 HD
BRANCH  11  23
ATOM     23  C   UNL     1      -3.893 -10.874  13.712  0.00  0.00    +0.037 A 
ATOM     24  C   UNL     1      -2.628 -11.027  13.169  0.00  0.00    +0.027 A 
ATOM     25  C   UNL     1      -4.910 -10.249  13.007  0.00  0.00    +0.027 A 
ATOM     26  C   UNL     1      -2.372 -10.543  11.886  0.00  0.00    +0.047 A 
ATOM     27  C   UNL     1      -4.653  -9.765  11.724  0.00  0.00    +0.047 A 
ATOM     28  C   UNL     1      -3.385  -9.912  11.164  0.00  0.00    +0.120 A 
BRANCH  28   9
ATOM      9  O   UNL     1      -3.135  -9.441   9.912  0.00  0.00    -0.495 OA
ATOM     29  C   UNL     1      -4.265  -9.161   9.086  0.00  0.00    +0.277 C 
ENDBRANCH  28   9
ENDBRANCH  11  23
ENDBRANCH   5  18
ENDBRANCH  15   5
TORSDOF 7
ENDMDL
MODEL 8
REMARK VINA RESULT:      -6.4     27.073     30.388
REMARK  Name = 11884077
REMARK  8 active torsions:
REMARK  status: ('A' for Active; 'I' for Inactive)
REMARK    1  A    between atoms: S_1  and  N_10
REMARK    2  A    between atoms: S_1  and  C_19
REMARK    3  A    between atoms: O_5  and  C_15
REMARK    4  A    between atoms: O_5  and  C_18
REMARK    5  A    between atoms: O_9  and  C_28
REMARK    6  A    between atoms: O_9  and  C_29
REMARK    7  A    between atoms: N_10  and  C_14
REMARK    8  A    between atoms: N_11  and  C_23
REMARK                            x       y       z     vdW  Elec       q    Type
REMARK                         _______ _______ _______ _____ _____    ______ ____
ROOT
ATOM      3  O   UNL     1     -14.599   4.732  23.868  0.00  0.00    -0.369 OA
ATOM      4  O   UNL     1     -17.005   3.608  22.316  0.00  0.00    -0.368 OA
ATOM     12  C   UNL     1     -16.633   4.957  22.666  0.00  0.00    +0.171 C 
ATOM     13  C   UNL     1     -16.015   4.898  24.049  0.00  0.00    +0.191 C 
ATOM     14  C   UNL     1     -15.502   5.424  21.783  0.00  0.00    +0.133 C 
ATOM     15  C   UNL     1     -16.652   3.664  24.641  0.00  0.00    +0.235 C 
ATOM     16  C   UNL     1     -14.278   4.859  22.475  0.00  0.00    +0.183 C 
ATOM     17  C   UNL     1     -16.754   2.751  23.440  0.00  0.00    +0.207 C 
ENDROOT
BRANCH  14  10
ATOM     10  N   UNL     1     -15.440   6.905  21.781  0.00  0.00    -0.182 NA
ATOM     30  H   UNL     1     -15.047   7.338  22.627  0.00  0.00    +0.149 HD
BRANCH  10   1
ATOM      1  S   UNL     1     -15.202   7.693  20.282  0.00  0.00    +0.065 S 
ATOM      6  O   UNL     1     -15.592   9.084  20.400  0.00  0.00    -0.153 OA
ATOM      7  O   UNL     1     -15.724   6.849  19.224  0.00  0.00    -0.153 OA
BRANCH   1  19
ATOM      2  S   UNL     1     -13.034   8.093  18.363  0.00  0.00    -0.077 S 
ATOM     19  C   UNL     1     -13.436   7.715  19.969  0.00  0.00    +0.142 A 
ATOM     20  C   UNL     1     -12.368   7.489  20.769  0.00  0.00    +0.036 A 
ATOM     21  C   UNL     1     -11.149   7.627  20.045  0.00  0.00    +0.010 A 
ATOM     22  C   UNL     1     -11.366   7.954  18.724  0.00  0.00    +0.047 A 
ENDBRANCH   1  19
ENDBRANCH  10   1
ENDBRANCH  14  10
BRANCH  15   5
ATOM      5  O   UNL     1     -15.900   3.087  25.684  0.00  0.00    -0.442 OA
BRANCH   5  18
ATOM      8  O   UNL     1     -17.599   3.271  27.203  0.00  0.00    -0.226 OA
ATOM     11  N   UNL     1     -15.353   3.289  27.863  0.00  0.00    -0.251 N 
ATOM     18  C   UNL     1     -16.399   3.223  26.963  0.00  0.00    +0.405 C 
ATOM     31  H   UNL     1     -14.418   3.231  27.468  0.00  0.00    +0.158 HD
BRANCH  11  23
ATOM     23  C   UNL     1     -15.422   3.428  29.268  0.00  0.00    +0.037 A 
ATOM     24  C   UNL     1     -15.894   4.612  29.811  0.00  0.00    +0.027 A 
ATOM     25  C   UNL     1     -15.013   2.377  30.075  0.00  0.00    +0.027 A 
ATOM     26  C   UNL     1     -15.961   4.749  31.198  0.00  0.00    +0.047 A 
ATOM     27  C   UNL     1     -15.080   2.515  31.461  0.00  0.00    +0.047 A 
ATOM     28  C   UNL     1     -15.554   3.700  32.022  0.00  0.00    +0.120 A 
BRANCH  28   9
ATOM      9  O   UNL     1     -15.621   3.833  33.375  0.00  0.00    -0.495 OA
ATOM     29  C   UNL     1     -14.386   3.988  34.075  0.00  0.00    +0.277 C 
ENDBRANCH  28   9
ENDBRANCH  11  23
ENDBRANCH   5  18
ENDBRANCH  15   5
TORSDOF 7
ENDMDL
MODEL 9
REMARK VINA RESULT:      -6.4      4.101      6.469
REMARK  Name = 11884077
REMARK  8 active torsions:
REMARK  status: ('A' for Active; 'I' for Inactive)
REMARK    1  A    between atoms: S_1  and  N_10
REMARK    2  A    between atoms: S_1  and  C_19
REMARK    3  A    between atoms: O_5  and  C_15
REMARK    4  A    between atoms: O_5  and  C_18
REMARK    5  A    between atoms: O_9  and  C_28
REMARK    6  A    between atoms: O_9  and  C_29
REMARK    7  A    between atoms: N_10  and  C_14
REMARK    8  A    between atoms: N_11  and  C_23
REMARK                            x       y       z     vdW  Elec       q    Type
REMARK                         _______ _______ _______ _____ _____    ______ ____
ROOT
ATOM      3  O   UNL     1      16.609   8.572  20.846  0.00  0.00    -0.369 OA
ATOM      4  O   UNL     1      16.194   6.017  19.185  0.00  0.00    -0.368 OA
ATOM     12  C   UNL     1      15.452   6.577  20.289  0.00  0.00    +0.171 C 
ATOM     13  C   UNL     1      16.466   7.195  21.231  0.00  0.00    +0.191 C 
ATOM     14  C   UNL     1      14.632   7.751  19.815  0.00  0.00    +0.133 C 
ATOM     15  C   UNL     1      17.715   6.400  20.937  0.00  0.00    +0.235 C 
ATOM     16  C   UNL     1      15.629   8.893  19.848  0.00  0.00    +0.183 C 
ATOM     17  C   UNL     1      17.597   6.160  19.449  0.00  0.00    +0.207 C 
ENDROOT
BRANCH  14  10
ATOM     10  N   UNL     1      13.531   8.018  20.771  0.00  0.00    -0.182 NA
ATOM     30  H   UNL     1      13.814   8.181  21.746  0.00  0.00    +0.149 HD
BRANCH  10   1
ATOM      1  S   UNL     1      12.142   8.824  20.184  0.00  0.00    +0.065 S 
ATOM      6  O   UNL     1      11.942  10.050  20.932  0.00  0.00    -0.153 OA
ATOM      7  O   UNL     1      11.074   7.856  20.022  0.00  0.00    -0.153 OA
BRANCH   1  19
ATOM      2  S   UNL     1      11.816   8.333  17.321  0.00  0.00    -0.077 S 
ATOM     19  C   UNL     1      12.499   9.341  18.504  0.00  0.00    +0.142 A 
ATOM     20  C   UNL     1      13.208  10.380  18.005  0.00  0.00    +0.036 A 
ATOM     21  C   UNL     1      13.202  10.365  16.580  0.00  0.00    +0.010 A 
ATOM     22  C   UNL     1      12.482   9.303  16.077  0.00  0.00    +0.047 A 
ENDBRANCH   1  19
ENDBRANCH  10   1
ENDBRANCH  14  10
BRANCH  15   5
ATOM      5  O   UNL     1      18.906   7.077  21.273  0.00  0.00    -0.442 OA
BRANCH   5  18
ATOM      8  O   UNL     1      19.915   6.224  23.139  0.00  0.00    -0.226 OA
ATOM     11  N   UNL     1      20.747   5.804  20.992  0.00  0.00    -0.251 N 
ATOM     18  C   UNL     1      19.878   6.344  21.921  0.00  0.00    +0.405 C 
ATOM     31  H   UNL     1      20.549   6.017  20.017  0.00  0.00    +0.158 HD
BRANCH  11  23
ATOM     23  C   UNL     1      21.879   4.991  21.227  0.00  0.00    +0.037 A 
ATOM     24  C   UNL     1      23.145   5.544  21.125  0.00  0.00    +0.027 A 
ATOM     25  C   UNL     1      21.699   3.656  21.556  0.00  0.00    +0.027 A 
ATOM     26  C   UNL     1      24.262   4.741  21.357  0.00  0.00    +0.047 A 
ATOM     27  C   UNL     1      22.816   2.854  21.788  0.00  0.00    +0.047 A 
ATOM     28  C   UNL     1      24.097   3.396  21.689  0.00  0.00    +0.120 A 
BRANCH  28   9
ATOM      9  O   UNL     1      25.187   2.614  21.917  0.00  0.00    -0.495 OA
ATOM     29  C   UNL     1      25.132   1.269  21.441  0.00  0.00    +0.277 C 
ENDBRANCH  28   9
ENDBRANCH  11  23
ENDBRANCH   5  18
ENDBRANCH  15   5
TORSDOF 7
ENDMDL
MODEL 10
REMARK VINA RESULT:      -6.3     27.539     30.413
REMARK  Name = 11884077
REMARK  8 active torsions:
REMARK  status: ('A' for Active; 'I' for Inactive)
REMARK    1  A    between atoms: S_1  and  N_10
REMARK    2  A    between atoms: S_1  and  C_19
REMARK    3  A    between atoms: O_5  and  C_15
REMARK    4  A    between atoms: O_5  and  C_18
REMARK    5  A    between atoms: O_9  and  C_28
REMARK    6  A    between atoms: O_9  and  C_29
REMARK    7  A    between atoms: N_10  and  C_14
REMARK    8  A    between atoms: N_11  and  C_23
REMARK                            x       y       z     vdW  Elec       q    Type
REMARK                         _______ _______ _______ _____ _____    ______ ____
ROOT
ATOM      3  O   UNL     1      -6.338 -12.568  16.249  0.00  0.00    -0.369 OA
ATOM      4  O   UNL     1      -4.507 -10.718  17.889  0.00  0.00    -0.368 OA
ATOM     12  C   UNL     1      -4.250 -11.958  17.196  0.00  0.00    +0.171 C 
ATOM     13  C   UNL     1      -5.481 -12.824  17.374  0.00  0.00    +0.191 C 
ATOM     14  C   UNL     1      -4.188 -11.714  15.709  0.00  0.00    +0.133 C 
ATOM     15  C   UNL     1      -6.071 -12.297  18.659  0.00  0.00    +0.235 C 
ATOM     16  C   UNL     1      -5.649 -11.738  15.303  0.00  0.00    +0.183 C 
ATOM     17  C   UNL     1      -5.768 -10.818  18.565  0.00  0.00    +0.207 C 
ENDROOT
BRANCH  14  10
ATOM     10  N   UNL     1      -3.463 -12.822  15.043  0.00  0.00    -0.182 NA
ATOM     30  H   UNL     1      -4.051 -13.566  14.644  0.00  0.00    +0.149 HD
BRANCH  10   1
ATOM      1  S   UNL     1      -1.981 -12.458  14.273  0.00  0.00    +0.065 S 
ATOM      6  O   UNL     1      -1.372 -13.683  13.793  0.00  0.00    -0.153 OA
ATOM      7  O   UNL     1      -1.243 -11.521  15.099  0.00  0.00    -0.153 OA
BRANCH   1  19
ATOM      2  S   UNL     1      -3.514 -12.249  11.792  0.00  0.00    -0.077 S 
ATOM     19  C   UNL     1      -2.367 -11.507  12.802  0.00  0.00    +0.142 A 
ATOM     20  C   UNL     1      -1.918 -10.314  12.347  0.00  0.00    +0.036 A 
ATOM     21  C   UNL     1      -2.535  -9.975  11.108  0.00  0.00    +0.010 A 
ATOM     22  C   UNL     1      -3.424 -10.941  10.691  0.00  0.00    +0.047 A 
ENDBRANCH   1  19
ENDBRANCH  10   1
ENDBRANCH  14  10
BRANCH  15   5
ATOM      5  O   UNL     1      -7.452 -12.548  18.790  0.00  0.00    -0.442 OA
BRANCH   5  18
ATOM      8  O   UNL     1      -8.536 -10.933  19.992  0.00  0.00    -0.226 OA
ATOM     11  N   UNL     1      -8.726 -11.066  17.663  0.00  0.00    -0.251 N 
ATOM     18  C   UNL     1      -8.278 -11.449  18.913  0.00  0.00    +0.405 C 
ATOM     31  H   UNL     1      -8.398 -11.624  16.878  0.00  0.00    +0.158 HD
BRANCH  11  23
ATOM     23  C   UNL     1      -9.588  -9.993  17.339  0.00  0.00    +0.037 A 
ATOM     24  C   UNL     1     -10.958 -10.198  17.345  0.00  0.00    +0.027 A 
ATOM     25  C   UNL     1      -9.044  -8.758  17.021  0.00  0.00    +0.027 A 
ATOM     26  C   UNL     1     -11.807  -9.138  17.024  0.00  0.00    +0.047 A 
ATOM     27  C   UNL     1      -9.894  -7.700  16.700  0.00  0.00    +0.047 A 
ATOM     28  C   UNL     1     -11.275  -7.890  16.702  0.00  0.00    +0.120 A 
BRANCH  28   9
ATOM      9  O   UNL     1     -12.105  -6.857  16.391  0.00  0.00    -0.495 OA
ATOM     29  C   UNL     1     -11.589  -5.849  15.521  0.00  0.00    +0.277 C 
ENDBRANCH  28   9
ENDBRANCH  11  23
ENDBRANCH   5  18
ENDBRANCH  15   5
TORSDOF 7
ENDMDL
