MODEL 1
REMARK VINA RESULT:      -6.4      0.000      0.000
REMARK  Name = 71693219
REMARK  7 active torsions:
REMARK  status: ('A' for Active; 'I' for Inactive)
REMARK    1  A    between atoms: O_2  and  C_17
REMARK    2  A    between atoms: O_2  and  C_22
REMARK    3  A    between atoms: O_3  and  C_23
REMARK    4  A    between atoms: N_6  and  C_16
REMARK    5  A    between atoms: C_8  and  C_12
REMARK    6  A    between atoms: C_13  and  C_17
REMARK    7  A    between atoms: C_22  and  C_23
REMARK                            x       y       z     vdW  Elec       q    Type
REMARK                         _______ _______ _______ _____ _____    ______ ____
ROOT
ATOM      1  O   UNL     1      10.904  10.656  24.336  0.00  0.00    -0.273 OA
ATOM      5  N   UNL     1      11.141   9.730  22.233  0.00  0.00    -0.299 N 
ATOM      8  C   UNL     1      11.595   8.358  20.341  0.00  0.00    +0.074 C 
ATOM      9  C   UNL     1      10.720   7.589  21.342  0.00  0.00    +0.032 C 
ATOM     10  C   UNL     1      11.401   9.812  20.796  0.00  0.00    +0.119 C 
ATOM     11  C   UNL     1      10.886   8.359  22.645  0.00  0.00    +0.108 C 
ATOM     13  C   UNL     1      11.127  10.782  23.131  0.00  0.00    +0.241 C 
ENDROOT
BRANCH   8  12
ATOM      6  N   UNL     1      13.642   7.441  19.178  0.00  0.00    -0.330 N 
ATOM      7  N   UNL     1      13.802   7.704  21.379  0.00  0.00    -0.232 NA
ATOM     12  C   UNL     1      13.021   7.836  20.330  0.00  0.00    +0.115 A 
ATOM     14  C   UNL     1      14.908   7.027  19.505  0.00  0.00    +0.069 A 
ATOM     15  C   UNL     1      14.983   7.201  20.885  0.00  0.00    +0.089 A 
ATOM     16  C   UNL     1      13.072   7.456  17.850  0.00  0.00    +0.150 C 
ATOM     18  C   UNL     1      15.962   6.530  18.737  0.00  0.00    +0.028 A 
ATOM     19  C   UNL     1      16.172   6.865  21.554  0.00  0.00    +0.030 A 
ATOM     20  C   UNL     1      17.137   6.201  19.420  0.00  0.00    +0.002 A 
ATOM     21  C   UNL     1      17.243   6.365  20.803  0.00  0.00    +0.002 A 
ENDBRANCH   8  12
BRANCH  13  17
ATOM     17  C   UNL     1      11.419  12.141  22.546  0.00  0.00    +0.256 C 
BRANCH  17   2
ATOM      2  O   UNL     1      10.706  13.075  23.322  0.00  0.00    -0.359 OA
BRANCH   2  22
ATOM     22  C   UNL     1      11.573  13.937  24.055  0.00  0.00    +0.280 C 
BRANCH  22  23
ATOM      4  O   UNL     1      10.844  15.301  25.928  0.00  0.00    -0.248 OA
ATOM     23  C   UNL     1      10.997  14.201  25.417  0.00  0.00    +0.331 C 
BRANCH  23   3
ATOM      3  O   UNL     1      10.658  13.032  26.018  0.00  0.00    -0.479 OA
ATOM     24  H   UNL     1      11.188  12.870  26.828  0.00  0.00    +0.295 HD
ENDBRANCH  23   3
ENDBRANCH  22  23
ENDBRANCH   2  22
ENDBRANCH  17   2
ENDBRANCH  13  17
TORSDOF 6
ENDMDL
MODEL 2
REMARK VINA RESULT:      -6.3      3.969      7.972
REMARK  Name = 71693219
REMARK  7 active torsions:
REMARK  status: ('A' for Active; 'I' for Inactive)
REMARK    1  A    between atoms: O_2  and  C_17
REMARK    2  A    between atoms: O_2  and  C_22
REMARK    3  A    between atoms: O_3  and  C_23
REMARK    4  A    between atoms: N_6  and  C_16
REMARK    5  A    between atoms: C_8  and  C_12
REMARK    6  A    between atoms: C_13  and  C_17
REMARK    7  A    between atoms: C_22  and  C_23
REMARK                            x       y       z     vdW  Elec       q    Type
REMARK                         _______ _______ _______ _____ _____    ______ ____
ROOT
ATOM      1  O   UNL     1      12.027   7.557  18.138  0.00  0.00    -0.273 OA
ATOM      5  N   UNL     1      12.301   8.384  20.277  0.00  0.00    -0.299 N 
ATOM      8  C   UNL     1      12.087   9.443  22.399  0.00  0.00    +0.074 C 
ATOM      9  C   UNL     1      10.898   8.499  22.168  0.00  0.00    +0.032 C 
ATOM     10  C   UNL     1      13.105   8.935  21.367  0.00  0.00    +0.119 C 
ATOM     11  C   UNL     1      10.905   8.258  20.664  0.00  0.00    +0.108 C 
ATOM     13  C   UNL     1      12.752   8.014  19.023  0.00  0.00    +0.241 C 
ENDROOT
BRANCH   8  12
ATOM      6  N   UNL     1      11.214  11.613  23.354  0.00  0.00    -0.330 N 
ATOM      7  N   UNL     1      11.709  11.625  21.188  0.00  0.00    -0.232 NA
ATOM     12  C   UNL     1      11.676  10.900  22.283  0.00  0.00    +0.115 A 
ATOM     14  C   UNL     1      10.931  12.883  22.922  0.00  0.00    +0.069 A 
ATOM     15  C   UNL     1      11.249  12.866  21.566  0.00  0.00    +0.089 A 
ATOM     16  C   UNL     1      11.052  11.120  24.704  0.00  0.00    +0.150 C 
ATOM     18  C   UNL     1      10.440  14.012  23.579  0.00  0.00    +0.028 A 
ATOM     19  C   UNL     1      11.072  14.034  20.806  0.00  0.00    +0.030 A 
ATOM     20  C   UNL     1      10.270  15.165  22.807  0.00  0.00    +0.002 A 
ATOM     21  C   UNL     1      10.580  15.179  21.446  0.00  0.00    +0.002 A 
ENDBRANCH   8  12
BRANCH  13  17
ATOM     17  C   UNL     1      14.226   8.215  18.775  0.00  0.00    +0.256 C 
BRANCH  17   2
ATOM      2  O   UNL     1      14.787   6.933  18.628  0.00  0.00    -0.359 OA
BRANCH   2  22
ATOM     22  C   UNL     1      15.571   6.558  19.759  0.00  0.00    +0.280 C 
BRANCH  22  23
ATOM      4  O   UNL     1      17.997   6.464  19.834  0.00  0.00    -0.248 OA
ATOM     23  C   UNL     1      16.942   6.137  19.311  0.00  0.00    +0.331 C 
BRANCH  23   3
ATOM      3  O   UNL     1      16.853   5.325  18.227  0.00  0.00    -0.479 OA
ATOM     24  H   UNL     1      17.704   5.268  17.742  0.00  0.00    +0.295 HD
ENDBRANCH  23   3
ENDBRANCH  22  23
ENDBRANCH   2  22
ENDBRANCH  17   2
ENDBRANCH  13  17
TORSDOF 6
ENDMDL
MODEL 3
REMARK VINA RESULT:      -6.0      3.387      5.583
REMARK  Name = 71693219
REMARK  7 active torsions:
REMARK  status: ('A' for Active; 'I' for Inactive)
REMARK    1  A    between atoms: O_2  and  C_17
REMARK    2  A    between atoms: O_2  and  C_22
REMARK    3  A    between atoms: O_3  and  C_23
REMARK    4  A    between atoms: N_6  and  C_16
REMARK    5  A    between atoms: C_8  and  C_12
REMARK    6  A    between atoms: C_13  and  C_17
REMARK    7  A    between atoms: C_22  and  C_23
REMARK                            x       y       z     vdW  Elec       q    Type
REMARK                         _______ _______ _______ _____ _____    ______ ____
ROOT
ATOM      1  O   UNL     1      13.194   8.351  17.927  0.00  0.00    -0.273 OA
ATOM      5  N   UNL     1      14.471   8.577  19.838  0.00  0.00    -0.299 N 
ATOM      8  C   UNL     1      16.195   8.874  21.454  0.00  0.00    +0.074 C 
ATOM      9  C   UNL     1      16.182  10.065  20.483  0.00  0.00    +0.032 C 
ATOM     10  C   UNL     1      14.805   8.260  21.226  0.00  0.00    +0.119 C 
ATOM     11  C   UNL     1      15.394   9.555  19.284  0.00  0.00    +0.108 C 
ATOM     13  C   UNL     1      13.429   8.049  19.098  0.00  0.00    +0.241 C 
ENDROOT
BRANCH   8  12
ATOM      6  N   UNL     1      18.646   8.287  21.628  0.00  0.00    -0.330 N 
ATOM      7  N   UNL     1      17.356   6.807  20.586  0.00  0.00    -0.232 NA
ATOM     12  C   UNL     1      17.385   7.965  21.207  0.00  0.00    +0.115 A 
ATOM     14  C   UNL     1      19.486   7.269  21.254  0.00  0.00    +0.069 A 
ATOM     15  C   UNL     1      18.657   6.358  20.606  0.00  0.00    +0.089 A 
ATOM     16  C   UNL     1      19.030   9.485  22.341  0.00  0.00    +0.150 C 
ATOM     18  C   UNL     1      20.857   7.073  21.422  0.00  0.00    +0.028 A 
ATOM     19  C   UNL     1      19.211   5.176  20.088  0.00  0.00    +0.030 A 
ATOM     20  C   UNL     1      21.392   5.891  20.900  0.00  0.00    +0.002 A 
ATOM     21  C   UNL     1      20.586   4.958  20.245  0.00  0.00    +0.002 A 
ENDBRANCH   8  12
BRANCH  13  17
ATOM     17  C   UNL     1      12.567   7.040  19.815  0.00  0.00    +0.256 C 
BRANCH  17   2
ATOM      2  O   UNL     1      11.256   7.553  19.806  0.00  0.00    -0.359 OA
BRANCH   2  22
ATOM     22  C   UNL     1      11.115   8.678  20.670  0.00  0.00    +0.280 C 
BRANCH  22  23
ATOM      4  O   UNL     1      10.935   8.728  23.093  0.00  0.00    -0.248 OA
ATOM     23  C   UNL     1      10.632   8.227  22.020  0.00  0.00    +0.331 C 
BRANCH  23   3
ATOM      3  O   UNL     1       9.795   7.167  21.888  0.00  0.00    -0.479 OA
ATOM     24  H   UNL     1       9.291   7.201  21.048  0.00  0.00    +0.295 HD
ENDBRANCH  23   3
ENDBRANCH  22  23
ENDBRANCH   2  22
ENDBRANCH  17   2
ENDBRANCH  13  17
TORSDOF 6
ENDMDL
MODEL 4
REMARK VINA RESULT:      -5.8     27.068     28.481
REMARK  Name = 71693219
REMARK  7 active torsions:
REMARK  status: ('A' for Active; 'I' for Inactive)
REMARK    1  A    between atoms: O_2  and  C_17
REMARK    2  A    between atoms: O_2  and  C_22
REMARK    3  A    between atoms: O_3  and  C_23
REMARK    4  A    between atoms: N_6  and  C_16
REMARK    5  A    between atoms: C_8  and  C_12
REMARK    6  A    between atoms: C_13  and  C_17
REMARK    7  A    between atoms: C_22  and  C_23
REMARK                            x       y       z     vdW  Elec       q    Type
REMARK                         _______ _______ _______ _____ _____    ______ ____
ROOT
ATOM      1  O   UNL     1      -6.499 -10.107  18.279  0.00  0.00    -0.273 OA
ATOM      5  N   UNL     1      -5.306 -11.219  16.642  0.00  0.00    -0.299 N 
ATOM      8  C   UNL     1      -3.889 -11.866  14.842  0.00  0.00    +0.074 C 
ATOM      9  C   UNL     1      -3.074 -11.099  15.893  0.00  0.00    +0.032 C 
ATOM     10  C   UNL     1      -5.141 -12.267  15.636  0.00  0.00    +0.119 C 
ATOM     11  C   UNL     1      -4.127 -10.369  16.716  0.00  0.00    +0.108 C 
ATOM     13  C   UNL     1      -6.412 -11.011  17.446  0.00  0.00    +0.241 C 
ENDROOT
BRANCH   8  12
ATOM      6  N   UNL     1      -3.197 -10.967  12.584  0.00  0.00    -0.330 N 
ATOM      7  N   UNL     1      -5.180 -10.303  13.337  0.00  0.00    -0.232 NA
ATOM     12  C   UNL     1      -4.117 -11.033  13.593  0.00  0.00    +0.115 A 
ATOM     14  C   UNL     1      -3.699 -10.140  11.612  0.00  0.00    +0.069 A 
ATOM     15  C   UNL     1      -4.937  -9.738  12.106  0.00  0.00    +0.089 A 
ATOM     16  C   UNL     1      -1.921 -11.647  12.544  0.00  0.00    +0.150 C 
ATOM     18  C   UNL     1      -3.192  -9.720  10.382  0.00  0.00    +0.028 A 
ATOM     19  C   UNL     1      -5.730  -8.867  11.341  0.00  0.00    +0.030 A 
ATOM     20  C   UNL     1      -3.994  -8.854   9.633  0.00  0.00    +0.002 A 
ATOM     21  C   UNL     1      -5.241  -8.433  10.102  0.00  0.00    +0.002 A 
ENDBRANCH   8  12
BRANCH  13  17
ATOM     17  C   UNL     1      -7.555 -11.973  17.242  0.00  0.00    +0.256 C 
BRANCH  17   2
ATOM      2  O   UNL     1      -8.734 -11.268  17.548  0.00  0.00    -0.359 OA
BRANCH   2  22
ATOM     22  C   UNL     1      -9.498 -11.917  18.562  0.00  0.00    +0.280 C 
BRANCH  22  23
ATOM      4  O   UNL     1     -10.893 -10.649  20.095  0.00  0.00    -0.248 OA
ATOM     23  C   UNL     1      -9.785 -10.952  19.679  0.00  0.00    +0.331 C 
BRANCH  23   3
ATOM      3  O   UNL     1      -8.625 -10.453  20.177  0.00  0.00    -0.479 OA
ATOM     24  H   UNL     1      -8.191  -9.840  19.546  0.00  0.00    +0.295 HD
ENDBRANCH  23   3
ENDBRANCH  22  23
ENDBRANCH   2  22
ENDBRANCH  17   2
ENDBRANCH  13  17
TORSDOF 6
ENDMDL
MODEL 5
REMARK VINA RESULT:      -5.8     26.405     28.512
REMARK  Name = 71693219
REMARK  7 active torsions:
REMARK  status: ('A' for Active; 'I' for Inactive)
REMARK    1  A    between atoms: O_2  and  C_17
REMARK    2  A    between atoms: O_2  and  C_22
REMARK    3  A    between atoms: O_3  and  C_23
REMARK    4  A    between atoms: N_6  and  C_16
REMARK    5  A    between atoms: C_8  and  C_12
REMARK    6  A    between atoms: C_13  and  C_17
REMARK    7  A    between atoms: C_22  and  C_23
REMARK                            x       y       z     vdW  Elec       q    Type
REMARK                         _______ _______ _______ _____ _____    ______ ____
ROOT
ATOM      1  O   UNL     1      -4.255 -12.575   9.361  0.00  0.00    -0.273 OA
ATOM      5  N   UNL     1      -3.213 -11.460  11.096  0.00  0.00    -0.299 N 
ATOM      8  C   UNL     1      -2.343 -10.716  13.183  0.00  0.00    +0.074 C 
ATOM      9  C   UNL     1      -1.896 -12.162  12.920  0.00  0.00    +0.032 C 
ATOM     10  C   UNL     1      -2.761 -10.250  11.780  0.00  0.00    +0.119 C 
ATOM     11  C   UNL     1      -2.854 -12.654  11.844  0.00  0.00    +0.108 C 
ATOM     13  C   UNL     1      -3.895 -11.524   9.894  0.00  0.00    +0.241 C 
ENDROOT
BRANCH   8  12
ATOM      6  N   UNL     1      -3.093 -10.681  15.595  0.00  0.00    -0.330 N 
ATOM      7  N   UNL     1      -4.701 -10.550  14.067  0.00  0.00    -0.232 NA
ATOM     12  C   UNL     1      -3.405 -10.647  14.265  0.00  0.00    +0.115 A 
ATOM     14  C   UNL     1      -4.265 -10.601  16.303  0.00  0.00    +0.069 A 
ATOM     15  C   UNL     1      -5.254 -10.520  15.327  0.00  0.00    +0.089 A 
ATOM     16  C   UNL     1      -1.765 -10.782  16.160  0.00  0.00    +0.150 C 
ATOM     18  C   UNL     1      -4.536 -10.593  17.672  0.00  0.00    +0.028 A 
ATOM     19  C   UNL     1      -6.599 -10.425  15.721  0.00  0.00    +0.030 A 
ATOM     20  C   UNL     1      -5.880 -10.497  18.046  0.00  0.00    +0.002 A 
ATOM     21  C   UNL     1      -6.895 -10.415  17.090  0.00  0.00    +0.002 A 
ENDBRANCH   8  12
BRANCH  13  17
ATOM     17  C   UNL     1      -4.199 -10.196   9.247  0.00  0.00    +0.256 C 
BRANCH  17   2
ATOM      2  O   UNL     1      -5.573  -9.960   9.437  0.00  0.00    -0.359 OA
BRANCH   2  22
ATOM     22  C   UNL     1      -5.814  -8.777  10.196  0.00  0.00    +0.280 C 
BRANCH  22  23
ATOM      4  O   UNL     1      -7.947  -9.538  11.076  0.00  0.00    -0.248 OA
ATOM     23  C   UNL     1      -6.840  -9.053  11.259  0.00  0.00    +0.331 C 
BRANCH  23   3
ATOM      3  O   UNL     1      -6.364  -8.687  12.476  0.00  0.00    -0.479 OA
ATOM     24  H   UNL     1      -5.760  -9.363  12.851  0.00  0.00    +0.295 HD
ENDBRANCH  23   3
ENDBRANCH  22  23
ENDBRANCH   2  22
ENDBRANCH  17   2
ENDBRANCH  13  17
TORSDOF 6
ENDMDL
MODEL 6
REMARK VINA RESULT:      -5.7     26.433     28.260
REMARK  Name = 71693219
REMARK  7 active torsions:
REMARK  status: ('A' for Active; 'I' for Inactive)
REMARK    1  A    between atoms: O_2  and  C_17
REMARK    2  A    between atoms: O_2  and  C_22
REMARK    3  A    between atoms: O_3  and  C_23
REMARK    4  A    between atoms: N_6  and  C_16
REMARK    5  A    between atoms: C_8  and  C_12
REMARK    6  A    between atoms: C_13  and  C_17
REMARK    7  A    between atoms: C_22  and  C_23
REMARK                            x       y       z     vdW  Elec       q    Type
REMARK                         _______ _______ _______ _____ _____    ______ ____
ROOT
ATOM      1  O   UNL     1      -4.463 -10.265  17.522  0.00  0.00    -0.273 OA
ATOM      5  N   UNL     1      -3.521 -11.536  15.838  0.00  0.00    -0.299 N 
ATOM      8  C   UNL     1      -2.405 -12.361  13.904  0.00  0.00    +0.074 C 
ATOM      9  C   UNL     1      -1.454 -11.460  14.707  0.00  0.00    +0.032 C 
ATOM     10  C   UNL     1      -3.488 -12.691  14.942  0.00  0.00    +0.119 C 
ATOM     11  C   UNL     1      -2.381 -10.661  15.612  0.00  0.00    +0.108 C 
ATOM     13  C   UNL     1      -4.483 -11.258  16.793  0.00  0.00    +0.241 C 
ENDROOT
BRANCH   8  12
ATOM      6  N   UNL     1      -3.380 -12.389  11.573  0.00  0.00    -0.330 N 
ATOM      7  N   UNL     1      -2.851 -10.391  12.390  0.00  0.00    -0.232 NA
ATOM     12  C   UNL     1      -2.873 -11.683  12.629  0.00  0.00    +0.115 A 
ATOM     14  C   UNL     1      -3.707 -11.493  10.588  0.00  0.00    +0.069 A 
ATOM     15  C   UNL     1      -3.368 -10.253  11.121  0.00  0.00    +0.089 A 
ATOM     16  C   UNL     1      -3.545 -13.824  11.504  0.00  0.00    +0.150 C 
ATOM     18  C   UNL     1      -4.254 -11.655   9.314  0.00  0.00    +0.028 A 
ATOM     19  C   UNL     1      -3.579  -9.096  10.354  0.00  0.00    +0.030 A 
ATOM     20  C   UNL     1      -4.457 -10.493   8.564  0.00  0.00    +0.002 A 
ATOM     21  C   UNL     1      -4.127  -9.235   9.072  0.00  0.00    +0.002 A 
ENDBRANCH   8  12
BRANCH  13  17
ATOM     17  C   UNL     1      -5.605 -12.260  16.897  0.00  0.00    +0.256 C 
BRANCH  17   2
ATOM      2  O   UNL     1      -5.636 -12.691  18.236  0.00  0.00    -0.359 OA
BRANCH   2  22
ATOM     22  C   UNL     1      -6.923 -12.516  18.826  0.00  0.00    +0.280 C 
BRANCH  22  23
ATOM      4  O   UNL     1      -5.962 -11.048  20.506  0.00  0.00    -0.248 OA
ATOM     23  C   UNL     1      -6.894 -11.352  19.776  0.00  0.00    +0.331 C 
BRANCH  23   3
ATOM      3  O   UNL     1      -8.063 -10.666  19.713  0.00  0.00    -0.479 OA
ATOM     24  H   UNL     1      -8.352 -10.521  18.787  0.00  0.00    +0.295 HD
ENDBRANCH  23   3
ENDBRANCH  22  23
ENDBRANCH   2  22
ENDBRANCH  17   2
ENDBRANCH  13  17
TORSDOF 6
ENDMDL
MODEL 7
REMARK VINA RESULT:      -5.6     29.161     30.353
REMARK  Name = 71693219
REMARK  7 active torsions:
REMARK  status: ('A' for Active; 'I' for Inactive)
REMARK    1  A    between atoms: O_2  and  C_17
REMARK    2  A    between atoms: O_2  and  C_22
REMARK    3  A    between atoms: O_3  and  C_23
REMARK    4  A    between atoms: N_6  and  C_16
REMARK    5  A    between atoms: C_8  and  C_12
REMARK    6  A    between atoms: C_13  and  C_17
REMARK    7  A    between atoms: C_22  and  C_23
REMARK                            x       y       z     vdW  Elec       q    Type
REMARK                         _______ _______ _______ _____ _____    ______ ____
ROOT
ATOM      1  O   UNL     1     -12.828   3.314  31.399  0.00  0.00    -0.273 OA
ATOM      5  N   UNL     1     -14.861   2.621  30.549  0.00  0.00    -0.299 N 
ATOM      8  C   UNL     1     -16.649   1.704  29.272  0.00  0.00    +0.074 C 
ATOM      9  C   UNL     1     -15.617   0.609  29.581  0.00  0.00    +0.032 C 
ATOM     10  C   UNL     1     -16.294   2.781  30.309  0.00  0.00    +0.119 C 
ATOM     11  C   UNL     1     -14.365   1.382  29.971  0.00  0.00    +0.108 C 
ATOM     13  C   UNL     1     -14.034   3.498  31.228  0.00  0.00    +0.241 C 
ENDROOT
BRANCH   8  12
ATOM      6  N   UNL     1     -17.371   1.527  26.857  0.00  0.00    -0.330 N 
ATOM      7  N   UNL     1     -15.840   3.074  27.312  0.00  0.00    -0.232 NA
ATOM     12  C   UNL     1     -16.599   2.125  27.815  0.00  0.00    +0.115 A 
ATOM     14  C   UNL     1     -17.093   2.131  25.658  0.00  0.00    +0.069 A 
ATOM     15  C   UNL     1     -16.135   3.092  25.968  0.00  0.00    +0.089 A 
ATOM     16  C   UNL     1     -18.314   0.452  27.068  0.00  0.00    +0.150 C 
ATOM     18  C   UNL     1     -17.581   1.924  24.367  0.00  0.00    +0.028 A 
ATOM     19  C   UNL     1     -15.623   3.905  24.943  0.00  0.00    +0.030 A 
ATOM     20  C   UNL     1     -17.061   2.742  23.359  0.00  0.00    +0.002 A 
ATOM     21  C   UNL     1     -16.099   3.715  23.639  0.00  0.00    +0.002 A 
ENDBRANCH   8  12
BRANCH  13  17
ATOM     17  C   UNL     1     -14.700   4.741  31.760  0.00  0.00    +0.256 C 
BRANCH  17   2
ATOM      2  O   UNL     1     -14.079   5.037  32.987  0.00  0.00    -0.359 OA
BRANCH   2  22
ATOM     22  C   UNL     1     -14.603   4.253  34.057  0.00  0.00    +0.280 C 
BRANCH  22  23
ATOM      4  O   UNL     1     -13.668   5.932  35.544  0.00  0.00    -0.248 OA
ATOM     23  C   UNL     1     -14.160   4.826  35.374  0.00  0.00    +0.331 C 
BRANCH  23   3
ATOM      3  O   UNL     1     -14.384   3.934  36.372  0.00  0.00    -0.479 OA
ATOM     24  H   UNL     1     -14.872   4.338  37.121  0.00  0.00    +0.295 HD
ENDBRANCH  23   3
ENDBRANCH  22  23
ENDBRANCH   2  22
ENDBRANCH  17   2
ENDBRANCH  13  17
TORSDOF 6
ENDMDL
MODEL 8
REMARK VINA RESULT:      -5.6     27.778     30.037
REMARK  Name = 71693219
REMARK  7 active torsions:
REMARK  status: ('A' for Active; 'I' for Inactive)
REMARK    1  A    between atoms: O_2  and  C_17
REMARK    2  A    between atoms: O_2  and  C_22
REMARK    3  A    between atoms: O_3  and  C_23
REMARK    4  A    between atoms: N_6  and  C_16
REMARK    5  A    between atoms: C_8  and  C_12
REMARK    6  A    between atoms: C_13  and  C_17
REMARK    7  A    between atoms: C_22  and  C_23
REMARK                            x       y       z     vdW  Elec       q    Type
REMARK                         _______ _______ _______ _____ _____    ______ ____
ROOT
ATOM      1  O   UNL     1     -15.698   0.486  28.609  0.00  0.00    -0.273 OA
ATOM      5  N   UNL     1     -17.027   1.592  27.076  0.00  0.00    -0.299 N 
ATOM      8  C   UNL     1     -18.024   2.555  25.141  0.00  0.00    +0.074 C 
ATOM      9  C   UNL     1     -17.825   1.047  24.926  0.00  0.00    +0.032 C 
ATOM     10  C   UNL     1     -17.915   2.679  26.668  0.00  0.00    +0.119 C 
ATOM     11  C   UNL     1     -16.804   0.655  25.986  0.00  0.00    +0.108 C 
ATOM     13  C   UNL     1     -16.444   1.423  28.319  0.00  0.00    +0.241 C 
ENDROOT
BRANCH   8  12
ATOM      6  N   UNL     1     -17.387   3.963  23.142  0.00  0.00    -0.330 N 
ATOM      7  N   UNL     1     -15.781   3.598  24.635  0.00  0.00    -0.232 NA
ATOM     12  C   UNL     1     -17.038   3.370  24.323  0.00  0.00    +0.115 A 
ATOM     14  C   UNL     1     -16.283   4.618  22.659  0.00  0.00    +0.069 A 
ATOM     15  C   UNL     1     -15.294   4.374  23.608  0.00  0.00    +0.089 A 
ATOM     16  C   UNL     1     -18.687   3.914  22.511  0.00  0.00    +0.150 C 
ATOM     18  C   UNL     1     -16.070   5.377  21.508  0.00  0.00    +0.028 A 
ATOM     19  C   UNL     1     -14.011   4.913  23.414  0.00  0.00    +0.030 A 
ATOM     20  C   UNL     1     -14.788   5.906  21.332  0.00  0.00    +0.002 A 
ATOM     21  C   UNL     1     -13.775   5.680  22.266  0.00  0.00    +0.002 A 
ENDBRANCH   8  12
BRANCH  13  17
ATOM     17  C   UNL     1     -16.768   2.486  29.339  0.00  0.00    +0.256 C 
BRANCH  17   2
ATOM      2  O   UNL     1     -15.795   2.382  30.351  0.00  0.00    -0.359 OA
BRANCH   2  22
ATOM     22  C   UNL     1     -14.818   3.417  30.264  0.00  0.00    +0.280 C 
BRANCH  22  23
ATOM      4  O   UNL     1     -12.737   3.364  31.516  0.00  0.00    -0.248 OA
ATOM     23  C   UNL     1     -13.472   2.883  30.667  0.00  0.00    +0.331 C 
BRANCH  23   3
ATOM      3  O   UNL     1     -13.176   1.770  29.949  0.00  0.00    -0.479 OA
ATOM     24  H   UNL     1     -12.379   1.897  29.391  0.00  0.00    +0.295 HD
ENDBRANCH  23   3
ENDBRANCH  22  23
ENDBRANCH   2  22
ENDBRANCH  17   2
ENDBRANCH  13  17
TORSDOF 6
ENDMDL
MODEL 9
REMARK VINA RESULT:      -5.5     28.758     31.227
REMARK  Name = 71693219
REMARK  7 active torsions:
REMARK  status: ('A' for Active; 'I' for Inactive)
REMARK    1  A    between atoms: O_2  and  C_17
REMARK    2  A    between atoms: O_2  and  C_22
REMARK    3  A    between atoms: O_3  and  C_23
REMARK    4  A    between atoms: N_6  and  C_16
REMARK    5  A    between atoms: C_8  and  C_12
REMARK    6  A    between atoms: C_13  and  C_17
REMARK    7  A    between atoms: C_22  and  C_23
REMARK                            x       y       z     vdW  Elec       q    Type
REMARK                         _______ _______ _______ _____ _____    ______ ____
ROOT
ATOM      1  O   UNL     1     -18.161   0.128  28.065  0.00  0.00    -0.273 OA
ATOM      5  N   UNL     1     -16.374   1.474  28.641  0.00  0.00    -0.299 N 
ATOM      8  C   UNL     1     -14.602   2.638  29.724  0.00  0.00    +0.074 C 
ATOM      9  C   UNL     1     -14.417   1.124  29.907  0.00  0.00    +0.032 C 
ATOM     10  C   UNL     1     -15.584   2.701  28.545  0.00  0.00    +0.119 C 
ATOM     11  C   UNL     1     -15.790   0.545  29.594  0.00  0.00    +0.108 C 
ATOM     13  C   UNL     1     -17.532   1.181  27.943  0.00  0.00    +0.241 C 
ENDROOT
BRANCH   8  12
ATOM      6  N   UNL     1     -14.157   3.708  31.970  0.00  0.00    -0.330 N 
ATOM      7  N   UNL     1     -16.289   3.571  31.354  0.00  0.00    -0.232 NA
ATOM     12  C   UNL     1     -15.047   3.307  31.012  0.00  0.00    +0.115 A 
ATOM     14  C   UNL     1     -14.871   4.269  32.997  0.00  0.00    +0.069 A 
ATOM     15  C   UNL     1     -16.199   4.172  32.589  0.00  0.00    +0.089 A 
ATOM     16  C   UNL     1     -12.719   3.569  31.912  0.00  0.00    +0.150 C 
ATOM     18  C   UNL     1     -14.482   4.836  34.211  0.00  0.00    +0.028 A 
ATOM     19  C   UNL     1     -17.211   4.663  33.430  0.00  0.00    +0.030 A 
ATOM     20  C   UNL     1     -15.503   5.320  35.035  0.00  0.00    +0.002 A 
ATOM     21  C   UNL     1     -16.844   5.237  34.654  0.00  0.00    +0.002 A 
ENDBRANCH   8  12
BRANCH  13  17
ATOM     17  C   UNL     1     -18.013   2.253  26.999  0.00  0.00    +0.256 C 
BRANCH  17   2
ATOM      2  O   UNL     1     -17.420   1.986  25.751  0.00  0.00    -0.359 OA
BRANCH   2  22
ATOM     22  C   UNL     1     -17.513   3.098  24.864  0.00  0.00    +0.280 C 
BRANCH  22  23
ATOM      4  O   UNL     1     -16.104   2.932  22.891  0.00  0.00    -0.248 OA
ATOM     23  C   UNL     1     -16.243   3.224  24.070  0.00  0.00    +0.331 C 
BRANCH  23   3
ATOM      3  O   UNL     1     -15.249   3.718  24.850  0.00  0.00    -0.479 OA
ATOM     24  H   UNL     1     -14.472   3.120  24.876  0.00  0.00    +0.295 HD
ENDBRANCH  23   3
ENDBRANCH  22  23
ENDBRANCH   2  22
ENDBRANCH  17   2
ENDBRANCH  13  17
TORSDOF 6
ENDMDL
MODEL 10
REMARK VINA RESULT:      -5.5      2.571      4.711
REMARK  Name = 71693219
REMARK  7 active torsions:
REMARK  status: ('A' for Active; 'I' for Inactive)
REMARK    1  A    between atoms: O_2  and  C_17
REMARK    2  A    between atoms: O_2  and  C_22
REMARK    3  A    between atoms: O_3  and  C_23
REMARK    4  A    between atoms: N_6  and  C_16
REMARK    5  A    between atoms: C_8  and  C_12
REMARK    6  A    between atoms: C_13  and  C_17
REMARK    7  A    between atoms: C_22  and  C_23
REMARK                            x       y       z     vdW  Elec       q    Type
REMARK                         _______ _______ _______ _____ _____    ______ ____
ROOT
ATOM      1  O   UNL     1      16.669  11.626  22.403  0.00  0.00    -0.273 OA
ATOM      5  N   UNL     1      15.666   9.649  21.754  0.00  0.00    -0.299 N 
ATOM      8  C   UNL     1      14.810   7.756  20.591  0.00  0.00    +0.074 C 
ATOM      9  C   UNL     1      16.319   7.886  20.332  0.00  0.00    +0.032 C 
ATOM     10  C   UNL     1      14.623   8.628  21.842  0.00  0.00    +0.119 C 
ATOM     11  C   UNL     1      16.637   9.323  20.721  0.00  0.00    +0.108 C 
ATOM     13  C   UNL     1      15.767  10.795  22.522  0.00  0.00    +0.241 C 
ENDROOT
BRANCH   8  12
ATOM      6  N   UNL     1      12.652   7.914  19.287  0.00  0.00    -0.330 N 
ATOM      7  N   UNL     1      14.464   8.719  18.284  0.00  0.00    -0.232 NA
ATOM     12  C   UNL     1      13.997   8.142  19.369  0.00  0.00    +0.115 A 
ATOM     14  C   UNL     1      12.222   8.374  18.068  0.00  0.00    +0.069 A 
ATOM     15  C   UNL     1      13.371   8.871  17.461  0.00  0.00    +0.089 A 
ATOM     16  C   UNL     1      11.825   7.299  20.301  0.00  0.00    +0.150 C 
ATOM     18  C   UNL     1      10.965   8.396  17.463  0.00  0.00    +0.028 A 
ATOM     19  C   UNL     1      13.280   9.428  16.175  0.00  0.00    +0.030 A 
ATOM     20  C   UNL     1      10.893   8.954  16.183  0.00  0.00    +0.002 A 
ATOM     21  C   UNL     1      12.028   9.462  15.548  0.00  0.00    +0.002 A 
ENDBRANCH   8  12
BRANCH  13  17
ATOM     17  C   UNL     1      14.676  10.993  23.543  0.00  0.00    +0.256 C 
BRANCH  17   2
ATOM      2  O   UNL     1      13.596  11.591  22.868  0.00  0.00    -0.359 OA
BRANCH   2  22
ATOM     22  C   UNL     1      12.444  11.710  23.699  0.00  0.00    +0.280 C 
BRANCH  22  23
ATOM      4  O   UNL     1      11.229  10.685  21.862  0.00  0.00    -0.248 OA
ATOM     23  C   UNL     1      11.231  11.214  22.963  0.00  0.00    +0.331 C 
BRANCH  23   3
ATOM      3  O   UNL     1      10.113  11.433  23.701  0.00  0.00    -0.479 OA
ATOM     24  H   UNL     1       9.376  10.844  23.432  0.00  0.00    +0.295 HD
ENDBRANCH  23   3
ENDBRANCH  22  23
ENDBRANCH   2  22
ENDBRANCH  17   2
ENDBRANCH  13  17
TORSDOF 6
ENDMDL
