MODEL 1
REMARK VINA RESULT:      -6.9      0.000      0.000
REMARK  Name = 45784324
REMARK  4 active torsions:
REMARK  status: ('A' for Active; 'I' for Inactive)
REMARK    1  A    between atoms: N_1  and  C_11
REMARK    2  A    between atoms: C_6  and  C_10
REMARK    3  A    between atoms: C_11  and  C_13
REMARK    4  A    between atoms: C_18  and  C_23
REMARK                            x       y       z     vdW  Elec       q    Type
REMARK                         _______ _______ _______ _____ _____    ______ ____
ROOT
ATOM      1  N   UNL     1      11.461   9.542  21.340  0.00  0.00    -0.296 NA
ATOM      6  C   UNL     1      13.275   9.041  19.940  0.00  0.00    +0.070 C 
ATOM      7  C   UNL     1      12.008   8.347  19.411  0.00  0.00    +0.028 C 
ATOM      8  C   UNL     1      12.921   9.448  21.378  0.00  0.00    +0.096 C 
ATOM      9  C   UNL     1      11.028   8.372  20.575  0.00  0.00    +0.085 C 
ENDROOT
BRANCH   6  10
ATOM      2  N   UNL     1      15.588   8.433  20.701  0.00  0.00    -0.342 N 
ATOM      3  N   UNL     1      14.779   7.236  19.011  0.00  0.00    -0.232 NA
ATOM     10  C   UNL     1      14.536   8.214  19.855  0.00  0.00    +0.113 A 
ATOM     12  C   UNL     1      16.575   7.536  20.382  0.00  0.00    +0.067 A 
ATOM     14  C   UNL     1      16.047   6.800  19.325  0.00  0.00    +0.089 A 
ATOM     15  C   UNL     1      17.847   7.312  20.911  0.00  0.00    +0.046 A 
ATOM     16  C   UNL     1      16.818   5.777  18.750  0.00  0.00    +0.031 A 
ATOM     18  C   UNL     1      18.600   6.289  20.327  0.00  0.00    +0.054 A 
ATOM     19  C   UNL     1      18.097   5.534  19.264  0.00  0.00    +0.021 A 
ATOM     24  H   UNL     1      15.633   9.129  21.432  0.00  0.00    +0.167 HD
BRANCH  18  23
ATOM      5  N   UNL     1      20.975   5.789  21.233  0.00  0.00    -0.191 NA
ATOM     23  C   UNL     1      19.911   6.013  20.827  0.00  0.00    +0.099 C 
ENDBRANCH  18  23
ENDBRANCH   6  10
BRANCH   1  11
ATOM     11  C   UNL     1      10.873   9.581  22.671  0.00  0.00    +0.139 C 
BRANCH  11  13
ATOM      4  N   UNL     1      10.843  11.065  24.600  0.00  0.00    -0.259 NA
ATOM     13  C   UNL     1      10.893  10.970  23.252  0.00  0.00    +0.055 A 
ATOM     17  C   UNL     1      10.961  12.062  22.400  0.00  0.00    +0.024 A 
ATOM     20  C   UNL     1      10.978  13.330  22.968  0.00  0.00    +0.003 A 
ATOM     21  C   UNL     1      10.863  12.314  25.115  0.00  0.00    +0.111 A 
ATOM     22  C   UNL     1      10.928  13.468  24.351  0.00  0.00    +0.020 A 
ENDBRANCH  11  13
ENDBRANCH   1  11
TORSDOF 4
ENDMDL
MODEL 2
REMARK VINA RESULT:      -6.7      3.127     10.441
REMARK  Name = 45784324
REMARK  4 active torsions:
REMARK  status: ('A' for Active; 'I' for Inactive)
REMARK    1  A    between atoms: N_1  and  C_11
REMARK    2  A    between atoms: C_6  and  C_10
REMARK    3  A    between atoms: C_11  and  C_13
REMARK    4  A    between atoms: C_18  and  C_23
REMARK                            x       y       z     vdW  Elec       q    Type
REMARK                         _______ _______ _______ _____ _____    ______ ____
ROOT
ATOM      1  N   UNL     1      21.366   5.033  21.330  0.00  0.00    -0.296 NA
ATOM      6  C   UNL     1      19.703   6.560  20.698  0.00  0.00    +0.070 C 
ATOM      7  C   UNL     1      20.311   6.989  22.045  0.00  0.00    +0.028 C 
ATOM      8  C   UNL     1      20.151   5.103  20.517  0.00  0.00    +0.096 C 
ATOM      9  C   UNL     1      21.038   5.755  22.560  0.00  0.00    +0.085 C 
ENDROOT
BRANCH   6  10
ATOM      2  N   UNL     1      17.467   7.187  21.651  0.00  0.00    -0.342 N 
ATOM      3  N   UNL     1      17.458   6.489  19.540  0.00  0.00    -0.232 NA
ATOM     10  C   UNL     1      18.206   6.734  20.593  0.00  0.00    +0.113 A 
ATOM     12  C   UNL     1      16.156   7.238  21.254  0.00  0.00    +0.067 A 
ATOM     14  C   UNL     1      16.175   6.798  19.934  0.00  0.00    +0.089 A 
ATOM     15  C   UNL     1      14.988   7.619  21.917  0.00  0.00    +0.046 A 
ATOM     16  C   UNL     1      14.970   6.728  19.217  0.00  0.00    +0.031 A 
ATOM     18  C   UNL     1      13.797   7.544  21.188  0.00  0.00    +0.054 A 
ATOM     19  C   UNL     1      13.786   7.106  19.861  0.00  0.00    +0.021 A 
ATOM     24  H   UNL     1      17.821   7.440  22.564  0.00  0.00    +0.167 HD
BRANCH  18  23
ATOM      5  N   UNL     1      11.572   8.230  22.324  0.00  0.00    -0.191 NA
ATOM     23  C   UNL     1      12.569   7.922  21.815  0.00  0.00    +0.099 C 
ENDBRANCH  18  23
ENDBRANCH   6  10
BRANCH   1  11
ATOM     11  C   UNL     1      21.782   3.662  21.588  0.00  0.00    +0.139 C 
BRANCH  11  13
ATOM      4  N   UNL     1      23.694   4.313  20.230  0.00  0.00    -0.259 NA
ATOM     13  C   UNL     1      23.169   3.390  21.067  0.00  0.00    +0.055 A 
ATOM     17  C   UNL     1      23.827   2.236  21.460  0.00  0.00    +0.024 A 
ATOM     20  C   UNL     1      25.106   2.015  20.962  0.00  0.00    +0.003 A 
ATOM     21  C   UNL     1      24.939   4.064  19.767  0.00  0.00    +0.111 A 
ATOM     22  C   UNL     1      25.680   2.941  20.099  0.00  0.00    +0.020 A 
ENDBRANCH  11  13
ENDBRANCH   1  11
TORSDOF 4
ENDMDL
MODEL 3
REMARK VINA RESULT:      -6.7      2.928      5.342
REMARK  Name = 45784324
REMARK  4 active torsions:
REMARK  status: ('A' for Active; 'I' for Inactive)
REMARK    1  A    between atoms: N_1  and  C_11
REMARK    2  A    between atoms: C_6  and  C_10
REMARK    3  A    between atoms: C_11  and  C_13
REMARK    4  A    between atoms: C_18  and  C_23
REMARK                            x       y       z     vdW  Elec       q    Type
REMARK                         _______ _______ _______ _____ _____    ______ ____
ROOT
ATOM      1  N   UNL     1      15.794   7.572  20.810  0.00  0.00    -0.296 NA
ATOM      6  C   UNL     1      17.998   6.993  20.258  0.00  0.00    +0.070 C 
ATOM      7  C   UNL     1      17.020   6.154  19.418  0.00  0.00    +0.028 C 
ATOM      8  C   UNL     1      17.139   7.574  21.389  0.00  0.00    +0.096 C 
ATOM      9  C   UNL     1      15.679   6.282  20.129  0.00  0.00    +0.085 C 
ENDROOT
BRANCH   6  10
ATOM      2  N   UNL     1      19.677   5.133  20.114  0.00  0.00    -0.342 N 
ATOM      3  N   UNL     1      19.926   6.531  21.825  0.00  0.00    -0.232 NA
ATOM     10  C   UNL     1      19.208   6.241  20.763  0.00  0.00    +0.113 A 
ATOM     12  C   UNL     1      20.771   4.677  20.804  0.00  0.00    +0.067 A 
ATOM     14  C   UNL     1      20.907   5.566  21.867  0.00  0.00    +0.089 A 
ATOM     15  C   UNL     1      21.630   3.596  20.596  0.00  0.00    +0.046 A 
ATOM     16  C   UNL     1      21.952   5.381  22.786  0.00  0.00    +0.031 A 
ATOM     18  C   UNL     1      22.665   3.428  21.520  0.00  0.00    +0.054 A 
ATOM     19  C   UNL     1      22.826   4.303  22.597  0.00  0.00    +0.021 A 
ATOM     24  H   UNL     1      19.291   4.721  19.277  0.00  0.00    +0.167 HD
BRANCH  18  23
ATOM      5  N   UNL     1      24.315   1.452  21.226  0.00  0.00    -0.191 NA
ATOM     23  C   UNL     1      23.576   2.337  21.358  0.00  0.00    +0.099 C 
ENDBRANCH  18  23
ENDBRANCH   6  10
BRANCH   1  11
ATOM     11  C   UNL     1      14.758   7.761  21.814  0.00  0.00    +0.139 C 
BRANCH  11  13
ATOM      4  N   UNL     1      12.382   7.279  21.591  0.00  0.00    -0.259 NA
ATOM     13  C   UNL     1      13.418   8.051  21.190  0.00  0.00    +0.055 A 
ATOM     17  C   UNL     1      13.310   9.070  20.257  0.00  0.00    +0.024 A 
ATOM     20  C   UNL     1      12.060   9.312  19.700  0.00  0.00    +0.003 A 
ATOM     21  C   UNL     1      11.183   7.545  21.028  0.00  0.00    +0.111 A 
ATOM     22  C   UNL     1      10.971   8.540  20.088  0.00  0.00    +0.020 A 
ENDBRANCH  11  13
ENDBRANCH   1  11
TORSDOF 4
ENDMDL
MODEL 4
REMARK VINA RESULT:      -6.5     17.216     20.539
REMARK  Name = 45784324
REMARK  4 active torsions:
REMARK  status: ('A' for Active; 'I' for Inactive)
REMARK    1  A    between atoms: N_1  and  C_11
REMARK    2  A    between atoms: C_6  and  C_10
REMARK    3  A    between atoms: C_11  and  C_13
REMARK    4  A    between atoms: C_18  and  C_23
REMARK                            x       y       z     vdW  Elec       q    Type
REMARK                         _______ _______ _______ _____ _____    ______ ____
ROOT
ATOM      1  N   UNL     1      11.285   5.109   0.724  0.00  0.00    -0.296 NA
ATOM      6  C   UNL     1      10.101   6.273   2.380  0.00  0.00    +0.070 C 
ATOM      7  C   UNL     1      11.288   7.126   1.900  0.00  0.00    +0.028 C 
ATOM      8  C   UNL     1      10.409   4.858   1.869  0.00  0.00    +0.096 C 
ATOM      9  C   UNL     1      12.208   6.151   1.177  0.00  0.00    +0.085 C 
ENDROOT
BRANCH   6  10
ATOM      2  N   UNL     1      10.256   5.308   4.691  0.00  0.00    -0.342 N 
ATOM      3  N   UNL     1       9.233   7.276   4.531  0.00  0.00    -0.232 NA
ATOM     10  C   UNL     1       9.845   6.320   3.868  0.00  0.00    +0.113 A 
ATOM     12  C   UNL     1       9.884   5.634   5.970  0.00  0.00    +0.067 A 
ATOM     14  C   UNL     1       9.248   6.866   5.845  0.00  0.00    +0.089 A 
ATOM     15  C   UNL     1      10.045   4.976   7.191  0.00  0.00    +0.046 A 
ATOM     16  C   UNL     1       8.736   7.493   6.992  0.00  0.00    +0.031 A 
ATOM     18  C   UNL     1       9.529   5.615   8.323  0.00  0.00    +0.054 A 
ATOM     19  C   UNL     1       8.886   6.851   8.228  0.00  0.00    +0.021 A 
ATOM     24  H   UNL     1      10.746   4.470   4.411  0.00  0.00    +0.167 HD
BRANCH  18  23
ATOM      5  N   UNL     1       9.773   4.480  10.639  0.00  0.00    -0.191 NA
ATOM     23  C   UNL     1       9.664   4.989   9.601  0.00  0.00    +0.099 C 
ENDBRANCH  18  23
ENDBRANCH   6  10
BRANCH   1  11
ATOM     11  C   UNL     1      11.981   3.908   0.285  0.00  0.00    +0.139 C 
BRANCH  11  13
ATOM      4  N   UNL     1      10.501   4.033  -1.644  0.00  0.00    -0.259 NA
ATOM     13  C   UNL     1      11.677   3.579  -1.153  0.00  0.00    +0.055 A 
ATOM     17  C   UNL     1      12.594   2.846  -1.890  0.00  0.00    +0.024 A 
ATOM     20  C   UNL     1      12.283   2.559  -3.214  0.00  0.00    +0.003 A 
ATOM     21  C   UNL     1      10.236   3.735  -2.935  0.00  0.00    +0.111 A 
ATOM     22  C   UNL     1      11.084   3.009  -3.755  0.00  0.00    +0.020 A 
ENDBRANCH  11  13
ENDBRANCH   1  11
TORSDOF 4
ENDMDL
MODEL 5
REMARK VINA RESULT:      -6.5     26.474     29.115
REMARK  Name = 45784324
REMARK  4 active torsions:
REMARK  status: ('A' for Active; 'I' for Inactive)
REMARK    1  A    between atoms: N_1  and  C_11
REMARK    2  A    between atoms: C_6  and  C_10
REMARK    3  A    between atoms: C_11  and  C_13
REMARK    4  A    between atoms: C_18  and  C_23
REMARK                            x       y       z     vdW  Elec       q    Type
REMARK                         _______ _______ _______ _____ _____    ______ ____
ROOT
ATOM      1  N   UNL     1      -2.193 -10.998  13.671  0.00  0.00    -0.296 NA
ATOM      6  C   UNL     1      -3.272 -10.273  15.623  0.00  0.00    +0.070 C 
ATOM      7  C   UNL     1      -1.871 -10.804  15.975  0.00  0.00    +0.028 C 
ATOM      8  C   UNL     1      -3.541 -10.800  14.206  0.00  0.00    +0.096 C 
ATOM      9  C   UNL     1      -1.441 -11.618  14.762  0.00  0.00    +0.085 C 
ENDROOT
BRANCH   6  10
ATOM      2  N   UNL     1      -5.549  -9.973  16.633  0.00  0.00    -0.342 N 
ATOM      3  N   UNL     1      -4.309 -11.597  17.509  0.00  0.00    -0.232 NA
ATOM     10  C   UNL     1      -4.358 -10.643  16.605  0.00  0.00    +0.113 A 
ATOM     12  C   UNL     1      -6.320 -10.532  17.620  0.00  0.00    +0.067 A 
ATOM     14  C   UNL     1      -5.525 -11.543  18.151  0.00  0.00    +0.089 A 
ATOM     15  C   UNL     1      -7.607 -10.249  18.079  0.00  0.00    +0.046 A 
ATOM     16  C   UNL     1      -6.025 -12.327  19.204  0.00  0.00    +0.031 A 
ATOM     18  C   UNL     1      -8.090 -11.040  19.127  0.00  0.00    +0.054 A 
ATOM     19  C   UNL     1      -7.314 -12.061  19.681  0.00  0.00    +0.021 A 
ATOM     24  H   UNL     1      -5.818  -9.204  16.035  0.00  0.00    +0.167 HD
BRANCH  18  23
ATOM      5  N   UNL     1     -10.468 -10.598  20.054  0.00  0.00    -0.191 NA
ATOM     23  C   UNL     1      -9.402 -10.796  19.639  0.00  0.00    +0.099 C 
ENDBRANCH  18  23
ENDBRANCH   6  10
BRANCH   1  11
ATOM     11  C   UNL     1      -2.189 -11.812  12.464  0.00  0.00    +0.139 C 
BRANCH  11  13
ATOM      4  N   UNL     1      -3.754 -11.840  10.600  0.00  0.00    -0.259 NA
ATOM     13  C   UNL     1      -2.865 -11.113  11.314  0.00  0.00    +0.055 A 
ATOM     17  C   UNL     1      -2.554  -9.789  11.047  0.00  0.00    +0.024 A 
ATOM     20  C   UNL     1      -3.196  -9.173   9.979  0.00  0.00    +0.003 A 
ATOM     21  C   UNL     1      -4.358 -11.207   9.570  0.00  0.00    +0.111 A 
ATOM     22  C   UNL     1      -4.116  -9.888   9.221  0.00  0.00    +0.020 A 
ENDBRANCH  11  13
ENDBRANCH   1  11
TORSDOF 4
ENDMDL
MODEL 6
REMARK VINA RESULT:      -6.5     13.795     16.858
REMARK  Name = 45784324
REMARK  4 active torsions:
REMARK  status: ('A' for Active; 'I' for Inactive)
REMARK    1  A    between atoms: N_1  and  C_11
REMARK    2  A    between atoms: C_6  and  C_10
REMARK    3  A    between atoms: C_11  and  C_13
REMARK    4  A    between atoms: C_18  and  C_23
REMARK                            x       y       z     vdW  Elec       q    Type
REMARK                         _______ _______ _______ _____ _____    ______ ____
ROOT
ATOM      1  N   UNL     1      16.297   8.768   5.116  0.00  0.00    -0.296 NA
ATOM      6  C   UNL     1      14.243   7.641   5.009  0.00  0.00    +0.070 C 
ATOM      7  C   UNL     1      14.199   8.881   4.098  0.00  0.00    +0.028 C 
ATOM      8  C   UNL     1      15.462   7.869   5.914  0.00  0.00    +0.096 C 
ATOM      9  C   UNL     1      15.366   9.746   4.553  0.00  0.00    +0.085 C 
ENDROOT
BRANCH   6  10
ATOM      2  N   UNL     1      12.926   6.425   6.765  0.00  0.00    -0.342 N 
ATOM      3  N   UNL     1      11.819   7.987   5.635  0.00  0.00    -0.232 NA
ATOM     10  C   UNL     1      12.974   7.378   5.785  0.00  0.00    +0.113 A 
ATOM     12  C   UNL     1      11.655   6.420   7.281  0.00  0.00    +0.067 A 
ATOM     14  C   UNL     1      10.984   7.403   6.560  0.00  0.00    +0.089 A 
ATOM     15  C   UNL     1      11.053   5.663   8.287  0.00  0.00    +0.046 A 
ATOM     16  C   UNL     1       9.632   7.659   6.844  0.00  0.00    +0.031 A 
ATOM     18  C   UNL     1       9.707   5.932   8.557  0.00  0.00    +0.054 A 
ATOM     19  C   UNL     1       9.007   6.911   7.849  0.00  0.00    +0.021 A 
ATOM     24  H   UNL     1      13.688   5.830   7.060  0.00  0.00    +0.167 HD
BRANCH  18  23
ATOM      5  N   UNL     1       8.494   4.582  10.407  0.00  0.00    -0.191 NA
ATOM     23  C   UNL     1       9.038   5.187   9.578  0.00  0.00    +0.099 C 
ENDBRANCH  18  23
ENDBRANCH   6  10
BRANCH   1  11
ATOM     11  C   UNL     1      17.348   9.394   5.904  0.00  0.00    +0.139 C 
BRANCH  11  13
ATOM      4  N   UNL     1      18.887   8.050   4.580  0.00  0.00    -0.259 NA
ATOM     13  C   UNL     1      18.662   8.673   5.760  0.00  0.00    +0.055 A 
ATOM     17  C   UNL     1      19.560   8.679   6.816  0.00  0.00    +0.024 A 
ATOM     20  C   UNL     1      20.763   8.004   6.651  0.00  0.00    +0.003 A 
ATOM     21  C   UNL     1      20.068   7.405   4.458  0.00  0.00    +0.111 A 
ATOM     22  C   UNL     1      21.030   7.353   5.453  0.00  0.00    +0.020 A 
ENDBRANCH  11  13
ENDBRANCH   1  11
TORSDOF 4
ENDMDL
MODEL 7
REMARK VINA RESULT:      -6.4     16.299     19.762
REMARK  Name = 45784324
REMARK  4 active torsions:
REMARK  status: ('A' for Active; 'I' for Inactive)
REMARK    1  A    between atoms: N_1  and  C_11
REMARK    2  A    between atoms: C_6  and  C_10
REMARK    3  A    between atoms: C_11  and  C_13
REMARK    4  A    between atoms: C_18  and  C_23
REMARK                            x       y       z     vdW  Elec       q    Type
REMARK                         _______ _______ _______ _____ _____    ______ ____
ROOT
ATOM      1  N   UNL     1      10.970   5.160   0.470  0.00  0.00    -0.296 NA
ATOM      6  C   UNL     1       9.924   6.376   2.182  0.00  0.00    +0.070 C 
ATOM      7  C   UNL     1      11.153   7.151   1.676  0.00  0.00    +0.028 C 
ATOM      8  C   UNL     1      10.114   4.952   1.639  0.00  0.00    +0.096 C 
ATOM      9  C   UNL     1      11.978   6.127   0.908  0.00  0.00    +0.085 C 
ENDROOT
BRANCH   6  10
ATOM      2  N   UNL     1      10.163   5.400   4.481  0.00  0.00    -0.342 N 
ATOM      3  N   UNL     1       9.128   7.365   4.366  0.00  0.00    -0.232 NA
ATOM     10  C   UNL     1       9.720   6.414   3.678  0.00  0.00    +0.113 A 
ATOM     12  C   UNL     1       9.834   5.718   5.775  0.00  0.00    +0.067 A 
ATOM     14  C   UNL     1       9.190   6.948   5.677  0.00  0.00    +0.089 A 
ATOM     15  C   UNL     1      10.039   5.055   6.986  0.00  0.00    +0.046 A 
ATOM     16  C   UNL     1       8.715   7.567   6.844  0.00  0.00    +0.031 A 
ATOM     18  C   UNL     1       9.561   5.687   8.138  0.00  0.00    +0.054 A 
ATOM     19  C   UNL     1       8.910   6.921   8.071  0.00  0.00    +0.021 A 
ATOM     24  H   UNL     1      10.646   4.565   4.181  0.00  0.00    +0.167 HD
BRANCH  18  23
ATOM      5  N   UNL     1       9.890   4.540  10.438  0.00  0.00    -0.191 NA
ATOM     23  C   UNL     1       9.742   5.054   9.408  0.00  0.00    +0.099 C 
ENDBRANCH  18  23
ENDBRANCH   6  10
BRANCH   1  11
ATOM     11  C   UNL     1      11.563   3.921  -0.010  0.00  0.00    +0.139 C 
BRANCH  11  13
ATOM      4  N   UNL     1      13.835   4.226  -0.829  0.00  0.00    -0.259 NA
ATOM     13  C   UNL     1      13.051   3.886   0.220  0.00  0.00    +0.055 A 
ATOM     17  C   UNL     1      13.537   3.518   1.464  0.00  0.00    +0.024 A 
ATOM     20  C   UNL     1      14.916   3.497   1.644  0.00  0.00    +0.003 A 
ATOM     21  C   UNL     1      15.169   4.194  -0.616  0.00  0.00    +0.111 A 
ATOM     22  C   UNL     1      15.754   3.840   0.589  0.00  0.00    +0.020 A 
ENDBRANCH  11  13
ENDBRANCH   1  11
TORSDOF 4
ENDMDL
MODEL 8
REMARK VINA RESULT:      -6.3     27.408     29.882
REMARK  Name = 45784324
REMARK  4 active torsions:
REMARK  status: ('A' for Active; 'I' for Inactive)
REMARK    1  A    between atoms: N_1  and  C_11
REMARK    2  A    between atoms: C_6  and  C_10
REMARK    3  A    between atoms: C_11  and  C_13
REMARK    4  A    between atoms: C_18  and  C_23
REMARK                            x       y       z     vdW  Elec       q    Type
REMARK                         _______ _______ _______ _____ _____    ______ ____
ROOT
ATOM      1  N   UNL     1     -11.899  -7.281  14.742  0.00  0.00    -0.296 NA
ATOM      6  C   UNL     1     -10.700  -8.308  16.476  0.00  0.00    +0.070 C 
ATOM      7  C   UNL     1     -10.852  -6.806  16.774  0.00  0.00    +0.028 C 
ATOM      8  C   UNL     1     -11.046  -8.445  14.986  0.00  0.00    +0.096 C 
ATOM      9  C   UNL     1     -11.242  -6.178  15.443  0.00  0.00    +0.085 C 
ENDROOT
BRANCH   6  10
ATOM      2  N   UNL     1      -8.299  -8.817  15.954  0.00  0.00    -0.342 N 
ATOM      3  N   UNL     1      -9.026  -9.511  17.937  0.00  0.00    -0.232 NA
ATOM     10  C   UNL     1      -9.351  -8.892  16.824  0.00  0.00    +0.113 A 
ATOM     12  C   UNL     1      -7.223  -9.428  16.546  0.00  0.00    +0.067 A 
ATOM     14  C   UNL     1      -7.702  -9.853  17.782  0.00  0.00    +0.089 A 
ATOM     15  C   UNL     1      -5.911  -9.640  16.119  0.00  0.00    +0.046 A 
ATOM     16  C   UNL     1      -6.836 -10.531  18.656  0.00  0.00    +0.031 A 
ATOM     18  C   UNL     1      -5.063 -10.316  17.002  0.00  0.00    +0.054 A 
ATOM     19  C   UNL     1      -5.515 -10.754  18.249  0.00  0.00    +0.021 A 
ATOM     24  H   UNL     1      -8.307  -8.388  15.039  0.00  0.00    +0.167 HD
BRANCH  18  23
ATOM      5  N   UNL     1      -2.607 -10.760  16.306  0.00  0.00    -0.191 NA
ATOM     23  C   UNL     1      -3.708 -10.561  16.618  0.00  0.00    +0.099 C 
ENDBRANCH  18  23
ENDBRANCH   6  10
BRANCH   1  11
ATOM     11  C   UNL     1     -12.073  -7.010  13.323  0.00  0.00    +0.139 C 
BRANCH  11  13
ATOM      4  N   UNL     1     -14.191  -5.828  13.528  0.00  0.00    -0.259 NA
ATOM     13  C   UNL     1     -12.914  -5.783  13.086  0.00  0.00    +0.055 A 
ATOM     17  C   UNL     1     -12.354  -4.690  12.443  0.00  0.00    +0.024 A 
ATOM     20  C   UNL     1     -13.156  -3.573  12.240  0.00  0.00    +0.003 A 
ATOM     21  C   UNL     1     -14.940  -4.723  13.313  0.00  0.00    +0.111 A 
ATOM     22  C   UNL     1     -14.475  -3.582  12.680  0.00  0.00    +0.020 A 
ENDBRANCH  11  13
ENDBRANCH   1  11
TORSDOF 4
ENDMDL
MODEL 9
REMARK VINA RESULT:      -6.2     26.258     29.909
REMARK  Name = 45784324
REMARK  4 active torsions:
REMARK  status: ('A' for Active; 'I' for Inactive)
REMARK    1  A    between atoms: N_1  and  C_11
REMARK    2  A    between atoms: C_6  and  C_10
REMARK    3  A    between atoms: C_11  and  C_13
REMARK    4  A    between atoms: C_18  and  C_23
REMARK                            x       y       z     vdW  Elec       q    Type
REMARK                         _______ _______ _______ _____ _____    ______ ____
ROOT
ATOM      1  N   UNL     1     -13.515   6.905  20.917  0.00  0.00    -0.296 NA
ATOM      6  C   UNL     1     -14.777   5.089  21.697  0.00  0.00    +0.070 C 
ATOM      7  C   UNL     1     -15.683   6.037  20.892  0.00  0.00    +0.028 C 
ATOM      8  C   UNL     1     -13.518   5.916  21.995  0.00  0.00    +0.096 C 
ATOM      9  C   UNL     1     -14.907   7.344  20.804  0.00  0.00    +0.085 C 
ENDROOT
BRANCH   6  10
ATOM      2  N   UNL     1     -15.819   3.206  22.989  0.00  0.00    -0.342 N 
ATOM      3  N   UNL     1     -15.640   5.139  24.072  0.00  0.00    -0.232 NA
ATOM     10  C   UNL     1     -15.410   4.510  22.941  0.00  0.00    +0.113 A 
ATOM     12  C   UNL     1     -16.347   2.979  24.234  0.00  0.00    +0.067 A 
ATOM     14  C   UNL     1     -16.223   4.199  24.891  0.00  0.00    +0.089 A 
ATOM     15  C   UNL     1     -16.905   1.844  24.824  0.00  0.00    +0.046 A 
ATOM     16  C   UNL     1     -16.679   4.314  26.215  0.00  0.00    +0.031 A 
ATOM     18  C   UNL     1     -17.352   1.976  26.143  0.00  0.00    +0.054 A 
ATOM     19  C   UNL     1     -17.242   3.188  26.828  0.00  0.00    +0.021 A 
ATOM     24  H   UNL     1     -15.746   2.528  22.243  0.00  0.00    +0.167 HD
BRANCH  18  23
ATOM      5  N   UNL     1     -18.405  -0.071  27.332  0.00  0.00    -0.191 NA
ATOM     23  C   UNL     1     -17.933   0.846  26.799  0.00  0.00    +0.099 C 
ENDBRANCH  18  23
ENDBRANCH   6  10
BRANCH   1  11
ATOM     11  C   UNL     1     -12.606   8.010  21.180  0.00  0.00    +0.139 C 
BRANCH  11  13
ATOM      4  N   UNL     1     -11.119   9.530  19.995  0.00  0.00    -0.259 NA
ATOM     13  C   UNL     1     -11.760   8.339  19.978  0.00  0.00    +0.055 A 
ATOM     17  C   UNL     1     -11.679   7.429  18.936  0.00  0.00    +0.024 A 
ATOM     20  C   UNL     1     -10.889   7.763  17.841  0.00  0.00    +0.003 A 
ATOM     21  C   UNL     1     -10.360   9.818  18.915  0.00  0.00    +0.111 A 
ATOM     22  C   UNL     1     -10.214   8.978  17.823  0.00  0.00    +0.020 A 
ENDBRANCH  11  13
ENDBRANCH   1  11
TORSDOF 4
ENDMDL
MODEL 10
REMARK VINA RESULT:      -6.2     26.913     30.498
REMARK  Name = 45784324
REMARK  4 active torsions:
REMARK  status: ('A' for Active; 'I' for Inactive)
REMARK    1  A    between atoms: N_1  and  C_11
REMARK    2  A    between atoms: C_6  and  C_10
REMARK    3  A    between atoms: C_11  and  C_13
REMARK    4  A    between atoms: C_18  and  C_23
REMARK                            x       y       z     vdW  Elec       q    Type
REMARK                         _______ _______ _______ _____ _____    ______ ____
ROOT
ATOM      1  N   UNL     1     -15.183   6.283  21.888  0.00  0.00    -0.296 NA
ATOM      6  C   UNL     1     -16.004   4.310  22.853  0.00  0.00    +0.070 C 
ATOM      7  C   UNL     1     -17.176   5.255  22.536  0.00  0.00    +0.028 C 
ATOM      8  C   UNL     1     -14.756   5.201  22.776  0.00  0.00    +0.096 C 
ATOM      9  C   UNL     1     -16.537   6.621  22.329  0.00  0.00    +0.085 C 
ENDROOT
BRANCH   6  10
ATOM      2  N   UNL     1     -15.795   4.171  25.350  0.00  0.00    -0.342 N 
ATOM      3  N   UNL     1     -16.522   2.331  24.336  0.00  0.00    -0.232 NA
ATOM     10  C   UNL     1     -16.120   3.570  24.165  0.00  0.00    +0.113 A 
ATOM     12  C   UNL     1     -16.002   3.258  26.352  0.00  0.00    +0.067 A 
ATOM     14  C   UNL     1     -16.456   2.118  25.695  0.00  0.00    +0.089 A 
ATOM     15  C   UNL     1     -15.837   3.329  27.736  0.00  0.00    +0.046 A 
ATOM     16  C   UNL     1     -16.767   0.973  26.445  0.00  0.00    +0.031 A 
ATOM     18  C   UNL     1     -16.152   2.179  28.467  0.00  0.00    +0.054 A 
ATOM     19  C   UNL     1     -16.609   1.020  27.836  0.00  0.00    +0.021 A 
ATOM     24  H   UNL     1     -15.463   5.118  25.470  0.00  0.00    +0.167 HD
BRANCH  18  23
ATOM      5  N   UNL     1     -15.880   2.204  31.044  0.00  0.00    -0.191 NA
ATOM     23  C   UNL     1     -16.002   2.193  29.889  0.00  0.00    +0.099 C 
ENDBRANCH  18  23
ENDBRANCH   6  10
BRANCH   1  11
ATOM     11  C   UNL     1     -14.284   7.427  21.935  0.00  0.00    +0.139 C 
BRANCH  11  13
ATOM      4  N   UNL     1     -14.039   7.923  19.565  0.00  0.00    -0.259 NA
ATOM     13  C   UNL     1     -13.426   7.518  20.701  0.00  0.00    +0.055 A 
ATOM     17  C   UNL     1     -12.082   7.192  20.782  0.00  0.00    +0.024 A 
ATOM     20  C   UNL     1     -11.318   7.287  19.625  0.00  0.00    +0.003 A 
ATOM     21  C   UNL     1     -13.264   8.004  18.461  0.00  0.00    +0.111 A 
ATOM     22  C   UNL     1     -11.913   7.700  18.438  0.00  0.00    +0.020 A 
ENDBRANCH  11  13
ENDBRANCH   1  11
TORSDOF 4
ENDMDL
