REMARK  Name = 75367060
REMARK  10 active torsions:
REMARK  status: ('A' for Active; 'I' for Inactive)
REMARK    1  A    between atoms: O_2  and  C_8
REMARK    2  A    between atoms: N_4  and  C_6
REMARK    3  A    between atoms: N_4  and  C_7
REMARK    4  A    between atoms: N_5  and  C_15
REMARK    5  A    between atoms: C_11  and  C_15
REMARK    6  A    between atoms: C_16  and  C_17
REMARK    7  A    between atoms: C_16  and  C_19
REMARK    8  A    between atoms: C_16  and  C_20
REMARK    9  A    between atoms: C_16  and  C_21
REMARK   10  A    between atoms: C_17  and  C_18
REMARK                            x       y       z     vdW  Elec       q    Type
REMARK                         _______ _______ _______ _____ _____    ______ ____
ROOT
ATOM      1  O   UNL     1       0.368   0.109  -0.322  0.00  0.00    -0.371 OA
ATOM      7  C   UNL     1      -1.898  -0.437   0.136  0.00  0.00    +0.111 C 
ATOM      8  C   UNL     1      -1.069  -1.708   0.155  0.00  0.00    +0.164 C 
ATOM     11  C   UNL     1       0.327  -1.144   0.381  0.00  0.00    +0.165 C 
ATOM     14  C   UNL     1      -0.981   0.509  -0.622  0.00  0.00    +0.181 C 
ENDROOT
BRANCH   8   2
ATOM      2  O   UNL     1      -1.453  -2.595   1.188  0.00  0.00    -0.388 OA
ATOM     23  H   UNL     1      -1.397  -2.120   2.034  0.00  0.00    +0.210 HD
ENDBRANCH   8   2
BRANCH   7   4
ATOM      4  N   UNL     1      -3.196  -0.596  -0.499  0.00  0.00    -0.306 NA
ATOM     22  H   UNL     1      -3.630  -1.468  -0.198  0.00  0.00    +0.123 HD
BRANCH   4   6
ATOM      6  C   UNL     1      -4.067   0.526  -0.197  0.00  0.00    +0.054 C 
ATOM      9  C   UNL     1      -5.207   0.673  -1.197  0.00  0.00    +0.019 C 
ATOM     10  C   UNL     1      -4.810   0.357   1.122  0.00  0.00    +0.019 C 
ATOM     12  C   UNL     1      -6.208   1.569  -0.472  0.00  0.00    +0.002 C 
ATOM     13  C   UNL     1      -5.953   1.364   1.024  0.00  0.00    +0.002 C 
ENDBRANCH   4   6
ENDBRANCH   7   4
BRANCH  11  15
ATOM     15  C   UNL     1       1.431  -2.054  -0.128  0.00  0.00    +0.138 C 
BRANCH  15   5
ATOM      3  O   UNL     1       2.926  -0.320  -1.902  0.00  0.00    -0.276 OA
ATOM      5  N   UNL     1       2.737  -1.480   0.103  0.00  0.00    -0.313 N 
ATOM     18  C   UNL     1       3.377  -0.658  -0.809  0.00  0.00    +0.214 C 
ATOM     24  H   UNL     1       3.192  -1.692   0.986  0.00  0.00    +0.149 HD
BRANCH  18  17
ATOM     17  C   UNL     1       4.743  -0.192  -0.334  0.00  0.00    +0.102 C 
BRANCH  17  16
ATOM     16  C   UNL     1       4.740   1.161   0.417  0.00  0.00    -0.029 C 
ATOM     19  C   UNL     1       4.202   2.239  -0.544  0.00  0.00    +0.011 C 
ATOM     20  C   UNL     1       3.830   1.115   1.655  0.00  0.00    +0.011 C 
ATOM     21  C   UNL     1       6.162   1.559   0.847  0.00  0.00    +0.011 C 
ENDBRANCH  17  16
ENDBRANCH  18  17
ENDBRANCH  15   5
ENDBRANCH  11  15
TORSDOF 7
