MODEL 1
REMARK VINA RESULT:      -7.3      0.000      0.000
REMARK  Name = 38029517
REMARK  11 active torsions:
REMARK  status: ('A' for Active; 'I' for Inactive)
REMARK    1  A    between atoms: O_3  and  C_21
REMARK    2  A    between atoms: O_3  and  C_24
REMARK    3  A    between atoms: N_4  and  C_14
REMARK    4  A    between atoms: C_7  and  C_11
REMARK    5  A    between atoms: C_8  and  C_14
REMARK    6  A    between atoms: C_10  and  C_15
REMARK    7  A    between atoms: C_11  and  C_16
REMARK    8  A    between atoms: C_11  and  C_17
REMARK    9  A    between atoms: C_12  and  C_18
REMARK   10  A    between atoms: C_15  and  C_19
REMARK   11  A    between atoms: C_20  and  C_21
REMARK                            x       y       z     vdW  Elec       q    Type
REMARK                         _______ _______ _______ _____ _____    ______ ____
ROOT
ATOM      7  C   UNL     1      -5.635 -10.696  17.805  0.00  0.00    +0.000 C 
ATOM      8  C   UNL     1      -5.017 -11.125  16.451  0.00  0.00    +0.032 C 
ATOM      9  C   UNL     1      -7.135 -11.021  17.837  0.00  0.00    +0.012 C 
ATOM     10  C   UNL     1      -7.908 -10.320  16.704  0.00  0.00    +0.023 C 
ATOM     12  C   UNL     1      -7.210 -10.473  15.368  0.00  0.00    -0.073 C 
ATOM     13  C   UNL     1      -5.922 -10.847  15.273  0.00  0.00    -0.022 C 
ATOM     18  C   UNL     1      -8.041 -10.231  14.137  0.00  0.00    +0.039 C 
ENDROOT
BRANCH   7  11
ATOM     11  C   UNL     1      -4.933 -11.368  18.989  0.00  0.00    -0.013 C 
ATOM     16  C   UNL     1      -5.794 -11.270  20.244  0.00  0.00    +0.007 C 
ATOM     17  C   UNL     1      -4.616 -12.823  18.662  0.00  0.00    +0.007 C 
ENDBRANCH   7  11
BRANCH   8  14
ATOM     14  C   UNL     1      -3.660 -10.449  16.223  0.00  0.00    +0.112 C 
BRANCH  14   4
ATOM      2  O   UNL     1      -1.060  -9.868  15.097  0.00  0.00    -0.272 OA
ATOM      4  N   UNL     1      -3.279 -10.525  14.847  0.00  0.00    -0.312 N 
ATOM     20  C   UNL     1      -1.996 -10.225  14.388  0.00  0.00    +0.251 C 
ATOM     33  H   UNL     1      -3.962 -10.868  14.179  0.00  0.00    +0.149 HD
BRANCH  20  21
ATOM     21  C   UNL     1      -1.871 -10.391  12.889  0.00  0.00    +0.324 C 
BRANCH  21   3
ATOM      3  O   UNL     1      -3.067 -10.906  12.343  0.00  0.00    -0.483 OA
BRANCH   3  24
ATOM     24  C   UNL     1      -3.774 -10.085  11.496  0.00  0.00    +0.121 A 
ATOM     28  C   UNL     1      -5.053  -9.652  11.850  0.00  0.00    +0.045 A 
ATOM     29  C   UNL     1      -3.214  -9.686  10.283  0.00  0.00    +0.045 A 
ATOM     30  C   UNL     1      -5.770  -8.820  10.991  0.00  0.00    +0.004 A 
ATOM     31  C   UNL     1      -3.932  -8.854   9.424  0.00  0.00    +0.004 A 
ATOM     32  C   UNL     1      -5.209  -8.421   9.777  0.00  0.00    +0.000 A 
ENDBRANCH   3  24
ENDBRANCH  21   3
ENDBRANCH  20  21
ENDBRANCH  14   4
ENDBRANCH   8  14
BRANCH  10  15
ATOM     15  C   UNL     1      -8.147  -8.841  17.031  0.00  0.00    +0.104 C 
BRANCH  15  19
ATOM      1  O   UNL     1     -10.461  -8.961  17.690  0.00  0.00    -0.275 OA
ATOM      5  N   UNL     1      -9.810  -7.516  15.956  0.00  0.00    -0.270 N 
ATOM      6  N   UNL     1     -11.011  -6.002  14.569  0.00  0.00    -0.240 NA
ATOM     19  C   UNL     1      -9.613  -8.466  16.954  0.00  0.00    +0.219 C 
ATOM     22  C   UNL     1     -11.030  -6.911  15.570  0.00  0.00    +0.125 A 
ATOM     23  C   UNL     1     -12.176  -7.293  16.249  0.00  0.00    +0.044 A 
ATOM     25  C   UNL     1     -13.379  -6.705  15.876  0.00  0.00    +0.005 A 
ATOM     26  C   UNL     1     -12.199  -5.452  14.235  0.00  0.00    +0.113 A 
ATOM     27  C   UNL     1     -13.400  -5.766  14.852  0.00  0.00    +0.020 A 
ATOM     34  H   UNL     1      -9.003  -7.200  15.425  0.00  0.00    +0.156 HD
ENDBRANCH  15  19
ENDBRANCH  10  15
TORSDOF 8
ENDMDL
MODEL 2
REMARK VINA RESULT:      -6.7     23.914     27.673
REMARK  Name = 38029517
REMARK  11 active torsions:
REMARK  status: ('A' for Active; 'I' for Inactive)
REMARK    1  A    between atoms: O_3  and  C_21
REMARK    2  A    between atoms: O_3  and  C_24
REMARK    3  A    between atoms: N_4  and  C_14
REMARK    4  A    between atoms: C_7  and  C_11
REMARK    5  A    between atoms: C_8  and  C_14
REMARK    6  A    between atoms: C_10  and  C_15
REMARK    7  A    between atoms: C_11  and  C_16
REMARK    8  A    between atoms: C_11  and  C_17
REMARK    9  A    between atoms: C_12  and  C_18
REMARK   10  A    between atoms: C_15  and  C_19
REMARK   11  A    between atoms: C_20  and  C_21
REMARK                            x       y       z     vdW  Elec       q    Type
REMARK                         _______ _______ _______ _____ _____    ______ ____
ROOT
ATOM      7  C   UNL     1       8.977   8.419   5.638  0.00  0.00    +0.000 C 
ATOM      8  C   UNL     1       8.662   8.184   7.136  0.00  0.00    +0.032 C 
ATOM      9  C   UNL     1       8.691   7.149   4.824  0.00  0.00    +0.012 C 
ATOM     10  C   UNL     1       9.518   5.945   5.313  0.00  0.00    +0.023 C 
ATOM     12  C   UNL     1       9.473   5.807   6.821  0.00  0.00    -0.073 C 
ATOM     13  C   UNL     1       9.075   6.813   7.619  0.00  0.00    -0.022 C 
ATOM     18  C   UNL     1       9.854   4.468   7.391  0.00  0.00    +0.039 C 
ENDROOT
BRANCH   7  11
ATOM     11  C   UNL     1       8.176   9.593   5.066  0.00  0.00    -0.013 C 
ATOM     16  C   UNL     1       9.116  10.696   4.590  0.00  0.00    +0.007 C 
ATOM     17  C   UNL     1       7.278   9.119   3.929  0.00  0.00    +0.007 C 
ENDBRANCH   7  11
BRANCH   8  14
ATOM     14  C   UNL     1       9.320   9.254   8.015  0.00  0.00    +0.112 C 
BRANCH  14   4
ATOM      2  O   UNL     1      10.881  11.645   7.550  0.00  0.00    -0.272 OA
ATOM      4  N   UNL     1      10.724   9.332   7.756  0.00  0.00    -0.312 N 
ATOM     20  C   UNL     1      11.400  10.533   7.541  0.00  0.00    +0.251 C 
ATOM     33  H   UNL     1      11.264   8.472   7.783  0.00  0.00    +0.149 HD
BRANCH  20  21
ATOM     21  C   UNL     1      12.878  10.321   7.291  0.00  0.00    +0.324 C 
BRANCH  21   3
ATOM      3  O   UNL     1      13.161   8.950   7.107  0.00  0.00    -0.483 OA
BRANCH   3  24
ATOM     24  C   UNL     1      13.823   8.596   5.955  0.00  0.00    +0.121 A 
ATOM     28  C   UNL     1      13.353   9.034   4.716  0.00  0.00    +0.045 A 
ATOM     29  C   UNL     1      14.965   7.799   6.025  0.00  0.00    +0.045 A 
ATOM     30  C   UNL     1      14.025   8.674   3.548  0.00  0.00    +0.004 A 
ATOM     31  C   UNL     1      15.637   7.439   4.856  0.00  0.00    +0.004 A 
ATOM     32  C   UNL     1      15.167   7.877   3.618  0.00  0.00    +0.000 A 
ENDBRANCH   3  24
ENDBRANCH  21   3
ENDBRANCH  20  21
ENDBRANCH  14   4
ENDBRANCH   8  14
BRANCH  10  15
ATOM     15  C   UNL     1      10.965   6.028   4.812  0.00  0.00    +0.104 C 
BRANCH  15  19
ATOM      1  O   UNL     1      10.365   4.374   3.167  0.00  0.00    -0.275 OA
ATOM      5  N   UNL     1      12.439   5.468   3.026  0.00  0.00    -0.270 N 
ATOM      6  N   UNL     1      14.255   5.312   1.498  0.00  0.00    -0.240 NA
ATOM     19  C   UNL     1      11.193   5.181   3.577  0.00  0.00    +0.219 C 
ATOM     22  C   UNL     1      13.025   4.894   1.873  0.00  0.00    +0.125 A 
ATOM     23  C   UNL     1      12.294   3.930   1.196  0.00  0.00    +0.044 A 
ATOM     25  C   UNL     1      12.861   3.360   0.063  0.00  0.00    +0.005 A 
ATOM     26  C   UNL     1      14.774   4.735   0.392  0.00  0.00    +0.113 A 
ATOM     27  C   UNL     1      14.124   3.765  -0.354  0.00  0.00    +0.020 A 
ATOM     34  H   UNL     1      13.018   6.167   3.482  0.00  0.00    +0.156 HD
ENDBRANCH  15  19
ENDBRANCH  10  15
TORSDOF 8
ENDMDL
MODEL 3
REMARK VINA RESULT:      -6.6      3.462      6.048
REMARK  Name = 38029517
REMARK  11 active torsions:
REMARK  status: ('A' for Active; 'I' for Inactive)
REMARK    1  A    between atoms: O_3  and  C_21
REMARK    2  A    between atoms: O_3  and  C_24
REMARK    3  A    between atoms: N_4  and  C_14
REMARK    4  A    between atoms: C_7  and  C_11
REMARK    5  A    between atoms: C_8  and  C_14
REMARK    6  A    between atoms: C_10  and  C_15
REMARK    7  A    between atoms: C_11  and  C_16
REMARK    8  A    between atoms: C_11  and  C_17
REMARK    9  A    between atoms: C_12  and  C_18
REMARK   10  A    between atoms: C_15  and  C_19
REMARK   11  A    between atoms: C_20  and  C_21
REMARK                            x       y       z     vdW  Elec       q    Type
REMARK                         _______ _______ _______ _____ _____    ______ ____
ROOT
ATOM      7  C   UNL     1     -12.101  -9.626  18.638  0.00  0.00    +0.000 C 
ATOM      8  C   UNL     1     -10.872 -10.564  18.536  0.00  0.00    +0.032 C 
ATOM      9  C   UNL     1     -12.614  -9.260  17.238  0.00  0.00    +0.012 C 
ATOM     10  C   UNL     1     -11.536  -8.562  16.387  0.00  0.00    +0.023 C 
ATOM     12  C   UNL     1     -10.209  -9.288  16.453  0.00  0.00    -0.073 C 
ATOM     13  C   UNL     1      -9.934 -10.190  17.412  0.00  0.00    -0.022 C 
ATOM     18  C   UNL     1      -9.217  -8.989  15.362  0.00  0.00    +0.039 C 
ENDROOT
BRANCH   7  11
ATOM     11  C   UNL     1     -13.232 -10.257  19.456  0.00  0.00    -0.013 C 
ATOM     16  C   UNL     1     -13.464  -9.469  20.741  0.00  0.00    +0.007 C 
ATOM     17  C   UNL     1     -14.510 -10.330  18.628  0.00  0.00    +0.007 C 
ENDBRANCH   7  11
BRANCH   8  14
ATOM     14  C   UNL     1     -10.095 -10.603  19.857  0.00  0.00    +0.112 C 
BRANCH  14   4
ATOM      2  O   UNL     1      -8.634 -13.094  20.025  0.00  0.00    -0.272 OA
ATOM      4  N   UNL     1      -8.700 -10.803  19.620  0.00  0.00    -0.312 N 
ATOM     20  C   UNL     1      -8.073 -12.044  19.725  0.00  0.00    +0.251 C 
ATOM     33  H   UNL     1      -8.149 -10.009  19.308  0.00  0.00    +0.149 HD
BRANCH  20  21
ATOM     21  C   UNL     1      -6.592 -11.966  19.420  0.00  0.00    +0.324 C 
BRANCH  21   3
ATOM      3  O   UNL     1      -6.255 -10.693  18.912  0.00  0.00    -0.483 OA
BRANCH   3  24
ATOM     24  C   UNL     1      -5.536 -10.655  17.740  0.00  0.00    +0.121 A 
ATOM     28  C   UNL     1      -6.084 -10.058  16.604  0.00  0.00    +0.045 A 
ATOM     29  C   UNL     1      -4.260 -11.214  17.687  0.00  0.00    +0.045 A 
ATOM     30  C   UNL     1      -5.355 -10.020  15.415  0.00  0.00    +0.004 A 
ATOM     31  C   UNL     1      -3.531 -11.176  16.498  0.00  0.00    +0.004 A 
ATOM     32  C   UNL     1      -4.078 -10.579  15.363  0.00  0.00    +0.000 A 
ENDBRANCH   3  24
ENDBRANCH  21   3
ENDBRANCH  20  21
ENDBRANCH  14   4
ENDBRANCH   8  14
BRANCH  10  15
ATOM     15  C   UNL     1     -11.379  -7.092  16.793  0.00  0.00    +0.104 C 
BRANCH  15  19
ATOM      1  O   UNL     1     -10.354  -5.658  15.151  0.00  0.00    -0.275 OA
ATOM      5  N   UNL     1     -12.679  -5.996  15.124  0.00  0.00    -0.270 N 
ATOM      6  N   UNL     1     -14.421  -5.180  13.725  0.00  0.00    -0.240 NA
ATOM     19  C   UNL     1     -11.380  -6.163  15.596  0.00  0.00    +0.219 C 
ATOM     22  C   UNL     1     -13.103  -5.209  14.027  0.00  0.00    +0.125 A 
ATOM     23  C   UNL     1     -12.132  -4.514  13.325  0.00  0.00    +0.044 A 
ATOM     25  C   UNL     1     -12.539  -3.738  12.245  0.00  0.00    +0.005 A 
ATOM     26  C   UNL     1     -14.779  -4.415  12.670  0.00  0.00    +0.113 A 
ATOM     27  C   UNL     1     -13.886  -3.683  11.905  0.00  0.00    +0.020 A 
ATOM     34  H   UNL     1     -13.432  -6.484  15.602  0.00  0.00    +0.156 HD
ENDBRANCH  15  19
ENDBRANCH  10  15
TORSDOF 8
ENDMDL
MODEL 4
REMARK VINA RESULT:      -6.6      2.121      2.741
REMARK  Name = 38029517
REMARK  11 active torsions:
REMARK  status: ('A' for Active; 'I' for Inactive)
REMARK    1  A    between atoms: O_3  and  C_21
REMARK    2  A    between atoms: O_3  and  C_24
REMARK    3  A    between atoms: N_4  and  C_14
REMARK    4  A    between atoms: C_7  and  C_11
REMARK    5  A    between atoms: C_8  and  C_14
REMARK    6  A    between atoms: C_10  and  C_15
REMARK    7  A    between atoms: C_11  and  C_16
REMARK    8  A    between atoms: C_11  and  C_17
REMARK    9  A    between atoms: C_12  and  C_18
REMARK   10  A    between atoms: C_15  and  C_19
REMARK   11  A    between atoms: C_20  and  C_21
REMARK                            x       y       z     vdW  Elec       q    Type
REMARK                         _______ _______ _______ _____ _____    ______ ____
ROOT
ATOM      7  C   UNL     1      -5.676 -10.840  17.604  0.00  0.00    +0.000 C 
ATOM      8  C   UNL     1      -4.863 -11.237  16.347  0.00  0.00    +0.032 C 
ATOM      9  C   UNL     1      -7.101 -11.405  17.522  0.00  0.00    +0.012 C 
ATOM     10  C   UNL     1      -7.855 -10.905  16.275  0.00  0.00    +0.023 C 
ATOM     12  C   UNL     1      -7.010 -11.017  15.023  0.00  0.00    -0.073 C 
ATOM     13  C   UNL     1      -5.676 -11.178  15.074  0.00  0.00    -0.022 C 
ATOM     18  C   UNL     1      -7.738 -10.984  13.708  0.00  0.00    +0.039 C 
ENDROOT
BRANCH   7  11
ATOM     11  C   UNL     1      -5.001 -11.319  18.893  0.00  0.00    -0.013 C 
ATOM     16  C   UNL     1      -5.966 -11.216  20.069  0.00  0.00    +0.007 C 
ATOM     17  C   UNL     1      -4.499 -12.750  18.729  0.00  0.00    +0.007 C 
ENDBRANCH   7  11
BRANCH   8  14
ATOM     14  C   UNL     1      -3.614 -10.360  16.196  0.00  0.00    +0.112 C 
BRANCH  14   4
ATOM      2  O   UNL     1      -1.119 -11.377  15.143  0.00  0.00    -0.272 OA
ATOM      4  N   UNL     1      -3.176 -10.330  14.835  0.00  0.00    -0.312 N 
ATOM     20  C   UNL     1      -1.951 -10.845  14.412  0.00  0.00    +0.251 C 
ATOM     33  H   UNL     1      -3.813  -9.963  14.135  0.00  0.00    +0.149 HD
BRANCH  20  21
ATOM     21  C   UNL     1      -1.745 -10.680  12.921  0.00  0.00    +0.324 C 
BRANCH  21   3
ATOM      3  O   UNL     1      -2.598 -11.544  12.202  0.00  0.00    -0.483 OA
BRANCH   3  24
ATOM     24  C   UNL     1      -3.198 -11.037  11.073  0.00  0.00    +0.121 A 
ATOM     28  C   UNL     1      -3.102  -9.676  10.784  0.00  0.00    +0.045 A 
ATOM     29  C   UNL     1      -3.902 -11.883  10.218  0.00  0.00    +0.045 A 
ATOM     30  C   UNL     1      -3.710  -9.161   9.639  0.00  0.00    +0.004 A 
ATOM     31  C   UNL     1      -4.510 -11.369   9.072  0.00  0.00    +0.004 A 
ATOM     32  C   UNL     1      -4.414 -10.008   8.783  0.00  0.00    +0.000 A 
ENDBRANCH   3  24
ENDBRANCH  21   3
ENDBRANCH  20  21
ENDBRANCH  14   4
ENDBRANCH   8  14
BRANCH  10  15
ATOM     15  C   UNL     1      -8.358  -9.470  16.472  0.00  0.00    +0.104 C 
BRANCH  15  19
ATOM      1  O   UNL     1     -10.668  -9.176  15.858  0.00  0.00    -0.275 OA
ATOM      5  N   UNL     1     -10.102  -9.671  18.083  0.00  0.00    -0.270 N 
ATOM      6  N   UNL     1     -11.394  -9.980  20.056  0.00  0.00    -0.240 NA
ATOM     19  C   UNL     1      -9.848  -9.416  16.739  0.00  0.00    +0.219 C 
ATOM     22  C   UNL     1     -11.359  -9.712  18.732  0.00  0.00    +0.125 A 
ATOM     23  C   UNL     1     -12.485  -9.472  17.960  0.00  0.00    +0.044 A 
ATOM     25  C   UNL     1     -13.725  -9.509  18.587  0.00  0.00    +0.005 A 
ATOM     26  C   UNL     1     -12.616 -10.008  20.632  0.00  0.00    +0.113 A 
ATOM     27  C   UNL     1     -13.800  -9.782  19.948  0.00  0.00    +0.020 A 
ATOM     34  H   UNL     1      -9.312  -9.854  18.696  0.00  0.00    +0.156 HD
ENDBRANCH  15  19
ENDBRANCH  10  15
TORSDOF 8
ENDMDL
MODEL 5
REMARK VINA RESULT:      -6.5      4.020      8.274
REMARK  Name = 38029517
REMARK  11 active torsions:
REMARK  status: ('A' for Active; 'I' for Inactive)
REMARK    1  A    between atoms: O_3  and  C_21
REMARK    2  A    between atoms: O_3  and  C_24
REMARK    3  A    between atoms: N_4  and  C_14
REMARK    4  A    between atoms: C_7  and  C_11
REMARK    5  A    between atoms: C_8  and  C_14
REMARK    6  A    between atoms: C_10  and  C_15
REMARK    7  A    between atoms: C_11  and  C_16
REMARK    8  A    between atoms: C_11  and  C_17
REMARK    9  A    between atoms: C_12  and  C_18
REMARK   10  A    between atoms: C_15  and  C_19
REMARK   11  A    between atoms: C_20  and  C_21
REMARK                            x       y       z     vdW  Elec       q    Type
REMARK                         _______ _______ _______ _____ _____    ______ ____
ROOT
ATOM      7  C   UNL     1      -6.064 -10.151   9.948  0.00  0.00    +0.000 C 
ATOM      8  C   UNL     1      -5.194  -9.447   8.877  0.00  0.00    +0.032 C 
ATOM      9  C   UNL     1      -5.713  -9.632  11.351  0.00  0.00    +0.012 C 
ATOM     10  C   UNL     1      -4.231  -9.858  11.701  0.00  0.00    +0.023 C 
ATOM     12  C   UNL     1      -3.314  -9.432  10.573  0.00  0.00    -0.073 C 
ATOM     13  C   UNL     1      -3.764  -9.239   9.321  0.00  0.00    -0.022 C 
ATOM     18  C   UNL     1      -1.873  -9.187  10.926  0.00  0.00    +0.039 C 
ENDROOT
BRANCH   7  11
ATOM     11  C   UNL     1      -7.560  -9.957   9.682  0.00  0.00    -0.013 C 
ATOM     16  C   UNL     1      -8.266 -11.307   9.600  0.00  0.00    +0.007 C 
ATOM     17  C   UNL     1      -8.184  -9.085  10.767  0.00  0.00    +0.007 C 
ENDBRANCH   7  11
BRANCH   8  14
ATOM     14  C   UNL     1      -5.211 -10.220   7.554  0.00  0.00    +0.112 C 
BRANCH  14   4
ATOM      2  O   UNL     1      -7.596 -11.122   6.188  0.00  0.00    -0.272 OA
ATOM      4  N   UNL     1      -5.956  -9.512   6.561  0.00  0.00    -0.312 N 
ATOM     20  C   UNL     1      -7.101 -10.024   5.950  0.00  0.00    +0.251 C 
ATOM     33  H   UNL     1      -5.668  -8.567   6.329  0.00  0.00    +0.149 HD
BRANCH  20  21
ATOM     21  C   UNL     1      -7.688  -9.064   4.937  0.00  0.00    +0.324 C 
BRANCH  21   3
ATOM      3  O   UNL     1      -7.542  -7.729   5.374  0.00  0.00    -0.483 OA
BRANCH   3  24
ATOM     24  C   UNL     1      -8.509  -7.236   6.219  0.00  0.00    +0.121 A 
ATOM     28  C   UNL     1      -8.149  -6.719   7.464  0.00  0.00    +0.045 A 
ATOM     29  C   UNL     1      -9.848  -7.254   5.832  0.00  0.00    +0.045 A 
ATOM     30  C   UNL     1      -9.130  -6.218   8.320  0.00  0.00    +0.004 A 
ATOM     31  C   UNL     1     -10.828  -6.753   6.688  0.00  0.00    +0.004 A 
ATOM     32  C   UNL     1     -10.470  -6.236   7.932  0.00  0.00    +0.000 A 
ENDBRANCH   3  24
ENDBRANCH  21   3
ENDBRANCH  20  21
ENDBRANCH  14   4
ENDBRANCH   8  14
BRANCH  10  15
ATOM     15  C   UNL     1      -3.973 -11.317  12.096  0.00  0.00    +0.104 C 
BRANCH  15  19
ATOM      1  O   UNL     1      -2.658 -11.962  14.009  0.00  0.00    -0.275 OA
ATOM      5  N   UNL     1      -4.769 -10.979  14.316  0.00  0.00    -0.270 N 
ATOM      6  N   UNL     1      -6.031 -10.417  16.253  0.00  0.00    -0.240 NA
ATOM     19  C   UNL     1      -3.696 -11.470  13.578  0.00  0.00    +0.219 C 
ATOM     22  C   UNL     1      -4.901 -10.939  15.725  0.00  0.00    +0.125 A 
ATOM     23  C   UNL     1      -3.853 -11.442  16.480  0.00  0.00    +0.044 A 
ATOM     25  C   UNL     1      -3.972 -11.407  17.864  0.00  0.00    +0.005 A 
ATOM     26  C   UNL     1      -6.112 -10.401  17.601  0.00  0.00    +0.113 A 
ATOM     27  C   UNL     1      -5.120 -10.878  18.444  0.00  0.00    +0.020 A 
ATOM     34  H   UNL     1      -5.566 -10.598  13.814  0.00  0.00    +0.156 HD
ENDBRANCH  15  19
ENDBRANCH  10  15
TORSDOF 8
ENDMDL
MODEL 6
REMARK VINA RESULT:      -6.4     18.209     20.846
REMARK  Name = 38029517
REMARK  11 active torsions:
REMARK  status: ('A' for Active; 'I' for Inactive)
REMARK    1  A    between atoms: O_3  and  C_21
REMARK    2  A    between atoms: O_3  and  C_24
REMARK    3  A    between atoms: N_4  and  C_14
REMARK    4  A    between atoms: C_7  and  C_11
REMARK    5  A    between atoms: C_8  and  C_14
REMARK    6  A    between atoms: C_10  and  C_15
REMARK    7  A    between atoms: C_11  and  C_16
REMARK    8  A    between atoms: C_11  and  C_17
REMARK    9  A    between atoms: C_12  and  C_18
REMARK   10  A    between atoms: C_15  and  C_19
REMARK   11  A    between atoms: C_20  and  C_21
REMARK                            x       y       z     vdW  Elec       q    Type
REMARK                         _______ _______ _______ _____ _____    ______ ____
ROOT
ATOM      7  C   UNL     1     -17.158   5.869  21.855  0.00  0.00    +0.000 C 
ATOM      8  C   UNL     1     -16.819   4.583  22.650  0.00  0.00    +0.032 C 
ATOM      9  C   UNL     1     -16.084   6.140  20.791  0.00  0.00    +0.012 C 
ATOM     10  C   UNL     1     -14.681   6.302  21.407  0.00  0.00    +0.023 C 
ATOM     12  C   UNL     1     -14.378   5.210  22.412  0.00  0.00    -0.073 C 
ATOM     13  C   UNL     1     -15.344   4.443  22.946  0.00  0.00    -0.022 C 
ATOM     18  C   UNL     1     -12.931   4.988  22.755  0.00  0.00    +0.039 C 
ENDROOT
BRANCH   7  11
ATOM     11  C   UNL     1     -18.535   5.781  21.191  0.00  0.00    -0.013 C 
ATOM     16  C   UNL     1     -18.929   7.131  20.600  0.00  0.00    +0.007 C 
ATOM     17  C   UNL     1     -18.540   4.698  20.117  0.00  0.00    +0.007 C 
ENDBRANCH   7  11
BRANCH   8  14
ATOM     14  C   UNL     1     -17.612   4.519  23.961  0.00  0.00    +0.112 C 
BRANCH  14   4
ATOM      2  O   UNL     1     -17.191   4.982  26.785  0.00  0.00    -0.272 OA
ATOM      4  N   UNL     1     -16.979   3.640  24.895  0.00  0.00    -0.312 N 
ATOM     20  C   UNL     1     -16.816   3.945  26.246  0.00  0.00    +0.251 C 
ATOM     33  H   UNL     1     -16.682   2.727  24.567  0.00  0.00    +0.149 HD
BRANCH  20  21
ATOM     21  C   UNL     1     -16.115   2.837  27.002  0.00  0.00    +0.324 C 
BRANCH  21   3
ATOM      3  O   UNL     1     -15.536   3.333  28.190  0.00  0.00    -0.483 OA
BRANCH   3  24
ATOM     24  C   UNL     1     -15.260   2.422  29.182  0.00  0.00    +0.121 A 
ATOM     28  C   UNL     1     -14.310   2.721  30.160  0.00  0.00    +0.045 A 
ATOM     29  C   UNL     1     -15.929   1.199  29.211  0.00  0.00    +0.045 A 
ATOM     30  C   UNL     1     -14.031   1.796  31.167  0.00  0.00    +0.004 A 
ATOM     31  C   UNL     1     -15.650   0.275  30.218  0.00  0.00    +0.004 A 
ATOM     32  C   UNL     1     -14.701   0.573  31.195  0.00  0.00    +0.000 A 
ENDBRANCH   3  24
ENDBRANCH  21   3
ENDBRANCH  20  21
ENDBRANCH  14   4
ENDBRANCH   8  14
BRANCH  10  15
ATOM     15  C   UNL     1     -14.512   7.690  22.037  0.00  0.00    +0.104 C 
BRANCH  15  19
ATOM      1  O   UNL     1     -12.815   9.400  22.015  0.00  0.00    -0.275 OA
ATOM      5  N   UNL     1     -12.995   7.904  20.212  0.00  0.00    -0.270 N 
ATOM      6  N   UNL     1     -11.781   7.658  18.181  0.00  0.00    -0.240 NA
ATOM     19  C   UNL     1     -13.342   8.449  21.445  0.00  0.00    +0.219 C 
ATOM     22  C   UNL     1     -11.959   8.325  19.344  0.00  0.00    +0.125 A 
ATOM     23  C   UNL     1     -11.187   9.404  19.745  0.00  0.00    +0.044 A 
ATOM     25  C   UNL     1     -10.168   9.825  18.899  0.00  0.00    +0.005 A 
ATOM     26  C   UNL     1     -10.781   8.096  17.385  0.00  0.00    +0.113 A 
ATOM     27  C   UNL     1      -9.954   9.164  17.695  0.00  0.00    +0.020 A 
ATOM     34  H   UNL     1     -13.528   7.111  19.868  0.00  0.00    +0.156 HD
ENDBRANCH  15  19
ENDBRANCH  10  15
TORSDOF 8
ENDMDL
MODEL 7
REMARK VINA RESULT:      -6.4     17.962     19.491
REMARK  Name = 38029517
REMARK  11 active torsions:
REMARK  status: ('A' for Active; 'I' for Inactive)
REMARK    1  A    between atoms: O_3  and  C_21
REMARK    2  A    between atoms: O_3  and  C_24
REMARK    3  A    between atoms: N_4  and  C_14
REMARK    4  A    between atoms: C_7  and  C_11
REMARK    5  A    between atoms: C_8  and  C_14
REMARK    6  A    between atoms: C_10  and  C_15
REMARK    7  A    between atoms: C_11  and  C_16
REMARK    8  A    between atoms: C_11  and  C_17
REMARK    9  A    between atoms: C_12  and  C_18
REMARK   10  A    between atoms: C_15  and  C_19
REMARK   11  A    between atoms: C_20  and  C_21
REMARK                            x       y       z     vdW  Elec       q    Type
REMARK                         _______ _______ _______ _____ _____    ______ ____
ROOT
ATOM      7  C   UNL     1     -15.850   7.533  19.601  0.00  0.00    +0.000 C 
ATOM      8  C   UNL     1     -14.858   8.264  18.663  0.00  0.00    +0.032 C 
ATOM      9  C   UNL     1     -15.371   7.616  21.058  0.00  0.00    +0.012 C 
ATOM     10  C   UNL     1     -13.974   6.997  21.248  0.00  0.00    +0.023 C 
ATOM     12  C   UNL     1     -13.000   7.468  20.188  0.00  0.00    -0.073 C 
ATOM     13  C   UNL     1     -13.413   8.044  19.045  0.00  0.00    -0.022 C 
ATOM     18  C   UNL     1     -11.536   7.303  20.490  0.00  0.00    +0.039 C 
ENDROOT
BRANCH   7  11
ATOM     11  C   UNL     1     -17.267   8.104  19.488  0.00  0.00    -0.013 C 
ATOM     16  C   UNL     1     -18.298   7.059  19.902  0.00  0.00    +0.007 C 
ATOM     17  C   UNL     1     -17.401   9.364  20.337  0.00  0.00    +0.007 C 
ENDBRANCH   7  11
BRANCH   8  14
ATOM     14  C   UNL     1     -15.069   7.847  17.203  0.00  0.00    +0.112 C 
BRANCH  14   4
ATOM      2  O   UNL     1     -14.599   7.226  14.417  0.00  0.00    -0.272 OA
ATOM      4  N   UNL     1     -14.008   8.334  16.377  0.00  0.00    -0.312 N 
ATOM     20  C   UNL     1     -13.855   7.981  15.036  0.00  0.00    +0.251 C 
ATOM     33  H   UNL     1     -13.366   9.014  16.774  0.00  0.00    +0.149 HD
BRANCH  20  21
ATOM     21  C   UNL     1     -12.648   8.642  14.405  0.00  0.00    +0.324 C 
BRANCH  21   3
ATOM      3  O   UNL     1     -11.465   8.266  15.077  0.00  0.00    -0.483 OA
BRANCH   3  24
ATOM     24  C   UNL     1     -10.965   9.146  16.007  0.00  0.00    +0.121 A 
ATOM     28  C   UNL     1     -10.365   8.665  17.171  0.00  0.00    +0.045 A 
ATOM     29  C   UNL     1     -11.056  10.520  15.786  0.00  0.00    +0.045 A 
ATOM     30  C   UNL     1      -9.857   9.559  18.115  0.00  0.00    +0.004 A 
ATOM     31  C   UNL     1     -10.549  11.413  16.730  0.00  0.00    +0.004 A 
ATOM     32  C   UNL     1      -9.949  10.933  17.894  0.00  0.00    +0.000 A 
ENDBRANCH   3  24
ENDBRANCH  21   3
ENDBRANCH  20  21
ENDBRANCH  14   4
ENDBRANCH   8  14
BRANCH  10  15
ATOM     15  C   UNL     1     -14.048   5.466  21.283  0.00  0.00    +0.104 C 
BRANCH  15  19
ATOM      1  O   UNL     1     -14.032   5.379  23.691  0.00  0.00    -0.275 OA
ATOM      5  N   UNL     1     -15.438   3.941  22.477  0.00  0.00    -0.270 N 
ATOM      6  N   UNL     1     -16.995   2.264  23.126  0.00  0.00    -0.240 NA
ATOM     19  C   UNL     1     -14.486   4.944  22.637  0.00  0.00    +0.219 C 
ATOM     22  C   UNL     1     -16.093   3.203  23.491  0.00  0.00    +0.125 A 
ATOM     23  C   UNL     1     -15.765   3.494  24.806  0.00  0.00    +0.044 A 
ATOM     25  C   UNL     1     -16.403   2.774  25.810  0.00  0.00    +0.005 A 
ATOM     26  C   UNL     1     -17.594   1.585  24.129  0.00  0.00    +0.113 A 
ATOM     27  C   UNL     1     -17.337   1.800  25.473  0.00  0.00    +0.020 A 
ATOM     34  H   UNL     1     -15.716   3.687  21.533  0.00  0.00    +0.156 HD
ENDBRANCH  15  19
ENDBRANCH  10  15
TORSDOF 8
ENDMDL
MODEL 8
REMARK VINA RESULT:      -6.4      1.955      7.544
REMARK  Name = 38029517
REMARK  11 active torsions:
REMARK  status: ('A' for Active; 'I' for Inactive)
REMARK    1  A    between atoms: O_3  and  C_21
REMARK    2  A    between atoms: O_3  and  C_24
REMARK    3  A    between atoms: N_4  and  C_14
REMARK    4  A    between atoms: C_7  and  C_11
REMARK    5  A    between atoms: C_8  and  C_14
REMARK    6  A    between atoms: C_10  and  C_15
REMARK    7  A    between atoms: C_11  and  C_16
REMARK    8  A    between atoms: C_11  and  C_17
REMARK    9  A    between atoms: C_12  and  C_18
REMARK   10  A    between atoms: C_15  and  C_19
REMARK   11  A    between atoms: C_20  and  C_21
REMARK                            x       y       z     vdW  Elec       q    Type
REMARK                         _______ _______ _______ _____ _____    ______ ____
ROOT
ATOM      7  C   UNL     1      -7.518 -11.996  16.994  0.00  0.00    +0.000 C 
ATOM      8  C   UNL     1      -7.654 -12.316  18.503  0.00  0.00    +0.032 C 
ATOM      9  C   UNL     1      -6.226 -12.606  16.431  0.00  0.00    +0.012 C 
ATOM     10  C   UNL     1      -4.971 -12.085  17.156  0.00  0.00    +0.023 C 
ATOM     12  C   UNL     1      -5.135 -12.119  18.662  0.00  0.00    -0.073 C 
ATOM     13  C   UNL     1      -6.340 -12.237  19.246  0.00  0.00    -0.022 C 
ATOM     18  C   UNL     1      -3.876 -12.061  19.482  0.00  0.00    +0.039 C 
ENDROOT
BRANCH   7  11
ATOM     11  C   UNL     1      -8.722 -12.501  16.194  0.00  0.00    -0.013 C 
ATOM     16  C   UNL     1      -9.016 -11.566  15.026  0.00  0.00    +0.007 C 
ATOM     17  C   UNL     1      -8.473 -13.922  15.700  0.00  0.00    +0.007 C 
ENDBRANCH   7  11
BRANCH   8  14
ATOM     14  C   UNL     1      -8.676 -11.392  19.175  0.00  0.00    +0.112 C 
BRANCH  14   4
ATOM      2  O   UNL     1     -10.929  -9.981  18.034  0.00  0.00    -0.272 OA
ATOM      4  N   UNL     1      -8.666 -10.097  18.569  0.00  0.00    -0.312 N 
ATOM     20  C   UNL     1      -9.805  -9.488  18.040  0.00  0.00    +0.251 C 
ATOM     33  H   UNL     1      -7.796  -9.574  18.572  0.00  0.00    +0.149 HD
BRANCH  20  21
ATOM     21  C   UNL     1      -9.506  -8.121  17.462  0.00  0.00    +0.324 C 
BRANCH  21   3
ATOM      3  O   UNL     1      -9.435  -8.181  16.053  0.00  0.00    -0.483 OA
BRANCH   3  24
ATOM     24  C   UNL     1     -10.476  -7.625  15.348  0.00  0.00    +0.121 A 
ATOM     28  C   UNL     1     -10.842  -6.297  15.575  0.00  0.00    +0.045 A 
ATOM     29  C   UNL     1     -11.167  -8.387  14.407  0.00  0.00    +0.045 A 
ATOM     30  C   UNL     1     -11.899  -5.733  14.859  0.00  0.00    +0.004 A 
ATOM     31  C   UNL     1     -12.223  -7.822  13.691  0.00  0.00    +0.004 A 
ATOM     32  C   UNL     1     -12.589  -6.496  13.917  0.00  0.00    +0.000 A 
ENDBRANCH   3  24
ENDBRANCH  21   3
ENDBRANCH  20  21
ENDBRANCH  14   4
ENDBRANCH   8  14
BRANCH  10  15
ATOM     15  C   UNL     1      -4.601 -10.676  16.676  0.00  0.00    +0.104 C 
BRANCH  15  19
ATOM      1  O   UNL     1      -2.594 -11.032  15.392  0.00  0.00    -0.275 OA
ATOM      5  N   UNL     1      -4.555 -10.306  14.323  0.00  0.00    -0.270 N 
ATOM      6  N   UNL     1      -5.075  -9.792  12.059  0.00  0.00    -0.240 NA
ATOM     19  C   UNL     1      -3.776 -10.702  15.405  0.00  0.00    +0.219 C 
ATOM     22  C   UNL     1      -4.160 -10.197  12.968  0.00  0.00    +0.125 A 
ATOM     23  C   UNL     1      -2.847 -10.516  12.658  0.00  0.00    +0.044 A 
ATOM     25  C   UNL     1      -2.448 -10.411  11.331  0.00  0.00    +0.005 A 
ATOM     26  C   UNL     1      -4.651  -9.703  10.779  0.00  0.00    +0.113 A 
ATOM     27  C   UNL     1      -3.361  -9.999  10.367  0.00  0.00    +0.020 A 
ATOM     34  H   UNL     1      -5.527 -10.061  14.492  0.00  0.00    +0.156 HD
ENDBRANCH  15  19
ENDBRANCH  10  15
TORSDOF 8
ENDMDL
MODEL 9
REMARK VINA RESULT:      -6.3      3.906      8.738
REMARK  Name = 38029517
REMARK  11 active torsions:
REMARK  status: ('A' for Active; 'I' for Inactive)
REMARK    1  A    between atoms: O_3  and  C_21
REMARK    2  A    between atoms: O_3  and  C_24
REMARK    3  A    between atoms: N_4  and  C_14
REMARK    4  A    between atoms: C_7  and  C_11
REMARK    5  A    between atoms: C_8  and  C_14
REMARK    6  A    between atoms: C_10  and  C_15
REMARK    7  A    between atoms: C_11  and  C_16
REMARK    8  A    between atoms: C_11  and  C_17
REMARK    9  A    between atoms: C_12  and  C_18
REMARK   10  A    between atoms: C_15  and  C_19
REMARK   11  A    between atoms: C_20  and  C_21
REMARK                            x       y       z     vdW  Elec       q    Type
REMARK                         _______ _______ _______ _____ _____    ______ ____
ROOT
ATOM      7  C   UNL     1      -6.010  -9.074   9.859  0.00  0.00    +0.000 C 
ATOM      8  C   UNL     1      -7.364  -9.003   9.110  0.00  0.00    +0.032 C 
ATOM      9  C   UNL     1      -5.998 -10.261  10.834  0.00  0.00    +0.012 C 
ATOM     10  C   UNL     1      -7.129 -10.169  11.876  0.00  0.00    +0.023 C 
ATOM     12  C   UNL     1      -8.460  -9.833  11.236  0.00  0.00    -0.073 C 
ATOM     13  C   UNL     1      -8.547  -9.325   9.994  0.00  0.00    -0.022 C 
ATOM     18  C   UNL     1      -9.695 -10.136  12.039  0.00  0.00    +0.039 C 
ENDROOT
BRANCH   7  11
ATOM     11  C   UNL     1      -4.829  -9.188   8.890  0.00  0.00    -0.013 C 
ATOM     16  C   UNL     1      -3.509  -9.150   9.653  0.00  0.00    +0.007 C 
ATOM     17  C   UNL     1      -4.940 -10.464   8.064  0.00  0.00    +0.007 C 
ENDBRANCH   7  11
BRANCH   8  14
ATOM     14  C   UNL     1      -7.568  -7.627   8.466  0.00  0.00    +0.112 C 
BRANCH  14   4
ATOM      2  O   UNL     1      -8.418  -4.862   8.412  0.00  0.00    -0.272 OA
ATOM      4  N   UNL     1      -8.873  -7.119   8.754  0.00  0.00    -0.312 N 
ATOM     20  C   UNL     1      -9.198  -5.764   8.704  0.00  0.00    +0.251 C 
ATOM     33  H   UNL     1      -9.613  -7.786   8.951  0.00  0.00    +0.149 HD
BRANCH  20  21
ATOM     21  C   UNL     1     -10.649  -5.510   9.054  0.00  0.00    +0.324 C 
BRANCH  21   3
ATOM      3  O   UNL     1     -10.860  -4.145   9.345  0.00  0.00    -0.483 OA
BRANCH   3  24
ATOM     24  C   UNL     1     -12.046  -3.809   9.954  0.00  0.00    +0.121 A 
ATOM     28  C   UNL     1     -13.168  -3.513   9.180  0.00  0.00    +0.045 A 
ATOM     29  C   UNL     1     -12.127  -3.764  11.345  0.00  0.00    +0.045 A 
ATOM     30  C   UNL     1     -14.372  -3.172   9.798  0.00  0.00    +0.004 A 
ATOM     31  C   UNL     1     -13.331  -3.423  11.963  0.00  0.00    +0.004 A 
ATOM     32  C   UNL     1     -14.453  -3.128  11.190  0.00  0.00    +0.000 A 
ENDBRANCH   3  24
ENDBRANCH  21   3
ENDBRANCH  20  21
ENDBRANCH  14   4
ENDBRANCH   8  14
BRANCH  10  15
ATOM     15  C   UNL     1      -6.782  -9.164  12.981  0.00  0.00    +0.104 C 
BRANCH  15  19
ATOM      1  O   UNL     1      -4.917 -10.360  13.927  0.00  0.00    -0.275 OA
ATOM      5  N   UNL     1      -6.674  -9.644  15.312  0.00  0.00    -0.270 N 
ATOM      6  N   UNL     1      -7.082  -9.839  17.648  0.00  0.00    -0.240 NA
ATOM     19  C   UNL     1      -5.994  -9.800  14.108  0.00  0.00    +0.219 C 
ATOM     22  C   UNL     1      -6.275 -10.094  16.593  0.00  0.00    +0.125 A 
ATOM     23  C   UNL     1      -5.070 -10.773  16.686  0.00  0.00    +0.044 A 
ATOM     25  C   UNL     1      -4.669 -11.220  17.940  0.00  0.00    +0.005 A 
ATOM     26  C   UNL     1      -6.660 -10.288  18.850  0.00  0.00    +0.113 A 
ATOM     27  C   UNL     1      -5.473 -10.977  19.048  0.00  0.00    +0.020 A 
ATOM     34  H   UNL     1      -7.564  -9.152  15.303  0.00  0.00    +0.156 HD
ENDBRANCH  15  19
ENDBRANCH  10  15
TORSDOF 8
ENDMDL
MODEL 10
REMARK VINA RESULT:      -6.3      3.052      7.617
REMARK  Name = 38029517
REMARK  11 active torsions:
REMARK  status: ('A' for Active; 'I' for Inactive)
REMARK    1  A    between atoms: O_3  and  C_21
REMARK    2  A    between atoms: O_3  and  C_24
REMARK    3  A    between atoms: N_4  and  C_14
REMARK    4  A    between atoms: C_7  and  C_11
REMARK    5  A    between atoms: C_8  and  C_14
REMARK    6  A    between atoms: C_10  and  C_15
REMARK    7  A    between atoms: C_11  and  C_16
REMARK    8  A    between atoms: C_11  and  C_17
REMARK    9  A    between atoms: C_12  and  C_18
REMARK   10  A    between atoms: C_15  and  C_19
REMARK   11  A    between atoms: C_20  and  C_21
REMARK                            x       y       z     vdW  Elec       q    Type
REMARK                         _______ _______ _______ _____ _____    ______ ____
ROOT
ATOM      7  C   UNL     1      -3.286 -12.181  13.727  0.00  0.00    +0.000 C 
ATOM      8  C   UNL     1      -2.092 -11.331  14.229  0.00  0.00    +0.032 C 
ATOM      9  C   UNL     1      -3.116 -12.517  12.238  0.00  0.00    +0.012 C 
ATOM     10  C   UNL     1      -3.014 -11.254  11.363  0.00  0.00    +0.023 C 
ATOM     12  C   UNL     1      -2.045 -10.244  11.943  0.00  0.00    -0.073 C 
ATOM     13  C   UNL     1      -1.634 -10.302  13.222  0.00  0.00    -0.022 C 
ATOM     18  C   UNL     1      -1.524  -9.189  11.006  0.00  0.00    +0.039 C 
ENDROOT
BRANCH   7  11
ATOM     11  C   UNL     1      -3.446 -13.472  14.535  0.00  0.00    -0.013 C 
ATOM     16  C   UNL     1      -4.906 -13.910  14.556  0.00  0.00    +0.007 C 
ATOM     17  C   UNL     1      -2.559 -14.571  13.961  0.00  0.00    +0.007 C 
ENDBRANCH   7  11
BRANCH   8  14
ATOM     14  C   UNL     1      -2.426 -10.636  15.553  0.00  0.00    +0.112 C 
BRANCH  14   4
ATOM      2  O   UNL     1      -4.312 -10.948  17.725  0.00  0.00    -0.272 OA
ATOM      4  N   UNL     1      -3.793 -10.216  15.577  0.00  0.00    -0.312 N 
ATOM     20  C   UNL     1      -4.636 -10.407  16.671  0.00  0.00    +0.251 C 
ATOM     33  H   UNL     1      -4.150  -9.704  14.776  0.00  0.00    +0.149 HD
BRANCH  20  21
ATOM     21  C   UNL     1      -6.028  -9.866  16.423  0.00  0.00    +0.324 C 
BRANCH  21   3
ATOM      3  O   UNL     1      -6.990 -10.620  17.129  0.00  0.00    -0.483 OA
BRANCH   3  24
ATOM     24  C   UNL     1      -8.190 -10.008  17.403  0.00  0.00    +0.121 A 
ATOM     28  C   UNL     1      -8.507  -8.792  16.796  0.00  0.00    +0.045 A 
ATOM     29  C   UNL     1      -9.090 -10.602  18.286  0.00  0.00    +0.045 A 
ATOM     30  C   UNL     1      -9.725  -8.171  17.074  0.00  0.00    +0.004 A 
ATOM     31  C   UNL     1     -10.308  -9.981  18.564  0.00  0.00    +0.004 A 
ATOM     32  C   UNL     1     -10.626  -8.766  17.958  0.00  0.00    +0.000 A 
ENDBRANCH   3  24
ENDBRANCH  21   3
ENDBRANCH  20  21
ENDBRANCH  14   4
ENDBRANCH   8  14
BRANCH  10  15
ATOM     15  C   UNL     1      -4.394 -10.624  11.138  0.00  0.00    +0.104 C 
BRANCH  15  19
ATOM      1  O   UNL     1      -4.170 -11.175   8.804  0.00  0.00    -0.275 OA
ATOM      5  N   UNL     1      -5.776  -9.604   9.487  0.00  0.00    -0.270 N 
ATOM      6  N   UNL     1      -7.383  -8.308   8.305  0.00  0.00    -0.240 NA
ATOM     19  C   UNL     1      -4.745 -10.521   9.668  0.00  0.00    +0.219 C 
ATOM     22  C   UNL     1      -6.389  -9.223   8.269  0.00  0.00    +0.125 A 
ATOM     23  C   UNL     1      -5.925  -9.818   7.107  0.00  0.00    +0.044 A 
ATOM     25  C   UNL     1      -6.520  -9.451   5.905  0.00  0.00    +0.005 A 
ATOM     26  C   UNL     1      -7.937  -7.976   7.119  0.00  0.00    +0.113 A 
ATOM     27  C   UNL     1      -7.546  -8.513   5.903  0.00  0.00    +0.020 A 
ATOM     34  H   UNL     1      -6.155  -9.136  10.306  0.00  0.00    +0.156 HD
ENDBRANCH  15  19
ENDBRANCH  10  15
TORSDOF 8
ENDMDL
