MODEL 1
REMARK VINA RESULT:      -8.2      0.000      0.000
REMARK  Name = 11882886
REMARK  2 active torsions:
REMARK  status: ('A' for Active; 'I' for Inactive)
REMARK    1  A    between atoms: N_5  and  C_8
REMARK    2  A    between atoms: C_17  and  C_20
REMARK                            x       y       z     vdW  Elec       q    Type
REMARK                         _______ _______ _______ _____ _____    ______ ____
ROOT
ATOM      1  O   UNL     1      16.538   9.398  20.951  0.00  0.00    -0.273 OA
ATOM      2  O   UNL     1      12.639   6.587  18.928  0.00  0.00    -0.270 OA
ATOM      4  N   UNL     1      14.714   6.895  19.922  0.00  0.00    -0.286 N 
ATOM      6  N   UNL     1      14.311   9.385  21.470  0.00  0.00    -0.283 N 
ATOM      8  C   UNL     1      17.610   6.523  19.910  0.00  0.00    +0.077 C 
ATOM      9  C   UNL     1      15.464   7.244  21.123  0.00  0.00    +0.164 C 
ATOM     10  C   UNL     1      16.843   6.581  21.231  0.00  0.00    +0.054 C 
ATOM     11  C   UNL     1      16.725   5.894  18.839  0.00  0.00    +0.041 C 
ATOM     12  C   UNL     1      15.447   6.697  18.669  0.00  0.00    +0.111 C 
ATOM     13  C   UNL     1      15.501   8.762  21.145  0.00  0.00    +0.238 C 
ATOM     14  C   UNL     1      13.321   6.968  19.879  0.00  0.00    +0.249 C 
ATOM     15  C   UNL     1      12.605   7.606  21.016  0.00  0.00    +0.058 A 
ATOM     16  C   UNL     1      13.043   8.787  21.646  0.00  0.00    +0.046 A 
ATOM     18  C   UNL     1      11.330   7.094  21.310  0.00  0.00    +0.015 A 
ATOM     19  C   UNL     1      12.162   9.462  22.508  0.00  0.00    +0.024 A 
ATOM     21  C   UNL     1      10.490   7.751  22.207  0.00  0.00    +0.001 A 
ATOM     22  C   UNL     1      10.900   8.943  22.796  0.00  0.00    +0.002 A 
ATOM     28  H   UNL     1      14.379  10.372  21.707  0.00  0.00    +0.155 HD
ENDROOT
BRANCH   8   5
ATOM      3  O   UNL     1      20.045   7.544  20.901  0.00  0.00    -0.270 OA
ATOM      5  N   UNL     1      18.837   5.778  20.064  0.00  0.00    -0.308 N 
ATOM     17  C   UNL     1      20.002   6.360  20.563  0.00  0.00    +0.244 C 
ATOM     27  H   UNL     1      18.825   4.805  19.779  0.00  0.00    +0.149 HD
BRANCH  17  20
ATOM      7  N   UNL     1      23.352   3.772  20.928  0.00  0.00    -0.263 NA
ATOM     20  C   UNL     1      21.161   5.465  20.691  0.00  0.00    +0.040 A 
ATOM     23  C   UNL     1      20.961   4.128  20.980  0.00  0.00    +0.033 A 
ATOM     24  C   UNL     1      22.436   5.970  20.517  0.00  0.00    +0.033 A 
ATOM     25  C   UNL     1      22.086   3.326  21.089  0.00  0.00    +0.111 A 
ATOM     26  C   UNL     1      23.494   5.086  20.646  0.00  0.00    +0.111 A 
ENDBRANCH  17  20
ENDBRANCH   8   5
TORSDOF 2
ENDMDL
MODEL 2
REMARK VINA RESULT:      -7.2      1.793      8.705
REMARK  Name = 11882886
REMARK  2 active torsions:
REMARK  status: ('A' for Active; 'I' for Inactive)
REMARK    1  A    between atoms: N_5  and  C_8
REMARK    2  A    between atoms: C_17  and  C_20
REMARK                            x       y       z     vdW  Elec       q    Type
REMARK                         _______ _______ _______ _____ _____    ______ ____
ROOT
ATOM      1  O   UNL     1      17.984   5.802  19.081  0.00  0.00    -0.273 OA
ATOM      2  O   UNL     1      21.549   7.885  22.267  0.00  0.00    -0.270 OA
ATOM      4  N   UNL     1      19.405   7.266  21.629  0.00  0.00    -0.286 N 
ATOM      6  N   UNL     1      19.909   4.901  19.923  0.00  0.00    -0.283 N 
ATOM      8  C   UNL     1      16.625   7.967  21.073  0.00  0.00    +0.077 C 
ATOM      9  C   UNL     1      18.446   6.188  21.418  0.00  0.00    +0.164 C 
ATOM     10  C   UNL     1      16.979   6.587  21.628  0.00  0.00    +0.054 C 
ATOM     11  C   UNL     1      17.610   8.997  21.616  0.00  0.00    +0.041 C 
ATOM     12  C   UNL     1      19.032   8.626  21.231  0.00  0.00    +0.111 C 
ATOM     13  C   UNL     1      18.750   5.646  20.033  0.00  0.00    +0.238 C 
ATOM     14  C   UNL     1      20.731   7.011  21.978  0.00  0.00    +0.249 C 
ATOM     15  C   UNL     1      21.223   5.608  21.937  0.00  0.00    +0.058 A 
ATOM     16  C   UNL     1      20.905   4.703  20.906  0.00  0.00    +0.046 A 
ATOM     18  C   UNL     1      22.211   5.270  22.877  0.00  0.00    +0.015 A 
ATOM     19  C   UNL     1      21.636   3.507  20.805  0.00  0.00    +0.024 A 
ATOM     21  C   UNL     1      22.890   4.056  22.790  0.00  0.00    +0.001 A 
ATOM     22  C   UNL     1      22.612   3.181  21.746  0.00  0.00    +0.002 A 
ATOM     28  H   UNL     1      20.003   4.353  19.072  0.00  0.00    +0.155 HD
ENDROOT
BRANCH   8   5
ATOM      3  O   UNL     1      14.299   7.047  19.769  0.00  0.00    -0.270 OA
ATOM      5  N   UNL     1      15.268   8.322  21.417  0.00  0.00    -0.308 N 
ATOM     17  C   UNL     1      14.169   7.822  20.719  0.00  0.00    +0.244 C 
ATOM     27  H   UNL     1      15.142   8.969  22.188  0.00  0.00    +0.149 HD
BRANCH  17  20
ATOM      7  N   UNL     1      10.361   9.063  22.135  0.00  0.00    -0.263 NA
ATOM     20  C   UNL     1      12.851   8.251  21.207  0.00  0.00    +0.040 A 
ATOM     23  C   UNL     1      11.930   7.301  21.606  0.00  0.00    +0.033 A 
ATOM     24  C   UNL     1      12.551   9.599  21.265  0.00  0.00    +0.033 A 
ATOM     25  C   UNL     1      10.703   7.757  22.060  0.00  0.00    +0.111 A 
ATOM     26  C   UNL     1      11.296   9.952  21.734  0.00  0.00    +0.111 A 
ENDBRANCH  17  20
ENDBRANCH   8   5
TORSDOF 2
ENDMDL
MODEL 3
REMARK VINA RESULT:      -6.8      2.274      3.211
REMARK  Name = 11882886
REMARK  2 active torsions:
REMARK  status: ('A' for Active; 'I' for Inactive)
REMARK    1  A    between atoms: N_5  and  C_8
REMARK    2  A    between atoms: C_17  and  C_20
REMARK                            x       y       z     vdW  Elec       q    Type
REMARK                         _______ _______ _______ _____ _____    ______ ____
ROOT
ATOM      1  O   UNL     1      15.484   5.823  21.488  0.00  0.00    -0.273 OA
ATOM      2  O   UNL     1      15.421  10.782  19.876  0.00  0.00    -0.270 OA
ATOM      4  N   UNL     1      16.347   8.671  20.148  0.00  0.00    -0.286 N 
ATOM      6  N   UNL     1      13.953   6.931  20.201  0.00  0.00    -0.283 N 
ATOM      8  C   UNL     1      18.498   6.954  21.122  0.00  0.00    +0.077 C 
ATOM      9  C   UNL     1      16.346   7.266  19.757  0.00  0.00    +0.164 C 
ATOM     10  C   UNL     1      17.708   6.569  19.872  0.00  0.00    +0.054 C 
ATOM     11  C   UNL     1      18.594   8.473  21.211  0.00  0.00    +0.041 C 
ATOM     12  C   UNL     1      17.206   9.090  21.258  0.00  0.00    +0.111 C 
ATOM     13  C   UNL     1      15.245   6.621  20.581  0.00  0.00    +0.238 C 
ATOM     14  C   UNL     1      15.400   9.570  19.657  0.00  0.00    +0.249 C 
ATOM     15  C   UNL     1      14.248   9.040  18.879  0.00  0.00    +0.058 A 
ATOM     16  C   UNL     1      13.540   7.876  19.235  0.00  0.00    +0.046 A 
ATOM     18  C   UNL     1      13.745   9.878  17.870  0.00  0.00    +0.015 A 
ATOM     19  C   UNL     1      12.308   7.617  18.612  0.00  0.00    +0.024 A 
ATOM     21  C   UNL     1      12.545   9.577  17.229  0.00  0.00    +0.001 A 
ATOM     22  C   UNL     1      11.819   8.453  17.609  0.00  0.00    +0.002 A 
ATOM     28  H   UNL     1      13.224   6.339  20.590  0.00  0.00    +0.155 HD
ENDROOT
BRANCH   8   5
ATOM      3  O   UNL     1      20.009   6.203  23.383  0.00  0.00    -0.270 OA
ATOM      5  N   UNL     1      19.813   6.357  21.099  0.00  0.00    -0.308 N 
ATOM     17  C   UNL     1      20.495   6.014  22.266  0.00  0.00    +0.244 C 
ATOM     27  H   UNL     1      20.234   6.206  20.189  0.00  0.00    +0.149 HD
BRANCH  17  20
ATOM      7  N   UNL     1      24.299   4.203  21.723  0.00  0.00    -0.263 NA
ATOM     20  C   UNL     1      21.811   5.386  22.078  0.00  0.00    +0.040 A 
ATOM     23  C   UNL     1      22.296   5.191  20.798  0.00  0.00    +0.033 A 
ATOM     24  C   UNL     1      22.547   5.003  23.183  0.00  0.00    +0.033 A 
ATOM     25  C   UNL     1      23.541   4.596  20.675  0.00  0.00    +0.111 A 
ATOM     26  C   UNL     1      23.781   4.417  22.952  0.00  0.00    +0.111 A 
ENDBRANCH  17  20
ENDBRANCH   8   5
TORSDOF 2
ENDMDL
MODEL 4
REMARK VINA RESULT:      -6.6     18.932     21.572
REMARK  Name = 11882886
REMARK  2 active torsions:
REMARK  status: ('A' for Active; 'I' for Inactive)
REMARK    1  A    between atoms: N_5  and  C_8
REMARK    2  A    between atoms: C_17  and  C_20
REMARK                            x       y       z     vdW  Elec       q    Type
REMARK                         _______ _______ _______ _____ _____    ______ ____
ROOT
ATOM      1  O   UNL     1      11.265   6.907  -0.245  0.00  0.00    -0.273 OA
ATOM      2  O   UNL     1      12.417   2.171  -2.102  0.00  0.00    -0.270 OA
ATOM      4  N   UNL     1      11.606   3.673  -0.529  0.00  0.00    -0.286 N 
ATOM      6  N   UNL     1      10.669   5.916  -2.218  0.00  0.00    -0.283 N 
ATOM      8  C   UNL     1      11.647   4.782   2.172  0.00  0.00    +0.077 C 
ATOM      9  C   UNL     1      10.551   4.604  -0.144  0.00  0.00    +0.164 C 
ATOM     10  C   UNL     1      10.346   4.748   1.369  0.00  0.00    +0.054 C 
ATOM     11  C   UNL     1      12.504   3.579   1.796  0.00  0.00    +0.041 C 
ATOM     12  C   UNL     1      12.806   3.588   0.307  0.00  0.00    +0.111 C 
ATOM     13  C   UNL     1      10.886   5.904  -0.853  0.00  0.00    +0.238 C 
ATOM     14  C   UNL     1      11.609   3.039  -1.772  0.00  0.00    +0.249 C 
ATOM     15  C   UNL     1      10.625   3.478  -2.798  0.00  0.00    +0.058 A 
ATOM     16  C   UNL     1      10.307   4.828  -3.044  0.00  0.00    +0.046 A 
ATOM     18  C   UNL     1      10.169   2.486  -3.682  0.00  0.00    +0.015 A 
ATOM     19  C   UNL     1       9.593   5.154  -4.208  0.00  0.00    +0.024 A 
ATOM     21  C   UNL     1       9.418   2.825  -4.806  0.00  0.00    +0.001 A 
ATOM     22  C   UNL     1       9.141   4.161  -5.076  0.00  0.00    +0.002 A 
ATOM     28  H   UNL     1      10.672   6.832  -2.658  0.00  0.00    +0.155 HD
ENDROOT
BRANCH   8   5
ATOM      3  O   UNL     1      11.326   7.084   3.771  0.00  0.00    -0.270 OA
ATOM      5  N   UNL     1      11.372   4.794   3.589  0.00  0.00    -0.308 N 
ATOM     17  C   UNL     1      11.227   5.980   4.309  0.00  0.00    +0.244 C 
ATOM     27  H   UNL     1      11.299   3.895   4.052  0.00  0.00    +0.149 HD
BRANCH  17  20
ATOM      7  N   UNL     1      10.330   5.544   8.439  0.00  0.00    -0.263 NA
ATOM     20  C   UNL     1      10.918   5.828   5.738  0.00  0.00    +0.040 A 
ATOM     23  C   UNL     1      11.611   6.578   6.669  0.00  0.00    +0.033 A 
ATOM     24  C   UNL     1       9.935   4.939   6.133  0.00  0.00    +0.033 A 
ATOM     25  C   UNL     1      11.281   6.399   8.003  0.00  0.00    +0.111 A 
ATOM     26  C   UNL     1       9.680   4.834   7.490  0.00  0.00    +0.111 A 
ENDBRANCH  17  20
ENDBRANCH   8   5
TORSDOF 2
ENDMDL
MODEL 5
REMARK VINA RESULT:      -6.6     27.060     31.135
REMARK  Name = 11882886
REMARK  2 active torsions:
REMARK  status: ('A' for Active; 'I' for Inactive)
REMARK    1  A    between atoms: N_5  and  C_8
REMARK    2  A    between atoms: C_17  and  C_20
REMARK                            x       y       z     vdW  Elec       q    Type
REMARK                         _______ _______ _______ _____ _____    ______ ____
ROOT
ATOM      1  O   UNL     1      -4.774 -11.833  19.283  0.00  0.00    -0.273 OA
ATOM      2  O   UNL     1      -4.959 -13.008  14.206  0.00  0.00    -0.270 OA
ATOM      4  N   UNL     1      -5.766 -12.106  16.186  0.00  0.00    -0.286 N 
ATOM      6  N   UNL     1      -3.277 -11.383  17.615  0.00  0.00    -0.283 N 
ATOM      8  C   UNL     1      -7.839 -11.942  18.236  0.00  0.00    +0.077 C 
ATOM      9  C   UNL     1      -5.673 -11.048  17.186  0.00  0.00    +0.164 C 
ATOM     10  C   UNL     1      -6.994 -10.716  17.891  0.00  0.00    +0.054 C 
ATOM     11  C   UNL     1      -8.025 -12.795  16.986  0.00  0.00    +0.041 C 
ATOM     12  C   UNL     1      -6.678 -13.226  16.432  0.00  0.00    +0.111 C 
ATOM     13  C   UNL     1      -4.559 -11.480  18.123  0.00  0.00    +0.238 C 
ATOM     14  C   UNL     1      -4.861 -12.199  15.129  0.00  0.00    +0.249 C 
ATOM     15  C   UNL     1      -3.659 -11.321  15.139  0.00  0.00    +0.058 A 
ATOM     16  C   UNL     1      -2.895 -11.064  16.292  0.00  0.00    +0.046 A 
ATOM     18  C   UNL     1      -3.179 -10.916  13.882  0.00  0.00    +0.015 A 
ATOM     19  C   UNL     1      -1.633 -10.463  16.148  0.00  0.00    +0.024 A 
ATOM     21  C   UNL     1      -1.947 -10.275  13.766  0.00  0.00    +0.001 A 
ATOM     22  C   UNL     1      -1.167 -10.061  14.897  0.00  0.00    +0.002 A 
ATOM     28  H   UNL     1      -2.526 -11.450  18.296  0.00  0.00    +0.155 HD
ENDROOT
BRANCH   8   5
ATOM      3  O   UNL     1      -9.265 -13.303  20.253  0.00  0.00    -0.270 OA
ATOM      5  N   UNL     1      -9.116 -11.545  18.782  0.00  0.00    -0.308 N 
ATOM     17  C   UNL     1      -9.757 -12.276  19.782  0.00  0.00    +0.244 C 
ATOM     27  H   UNL     1      -9.542 -10.709  18.397  0.00  0.00    +0.149 HD
BRANCH  17  20
ATOM      7  N   UNL     1     -13.453 -10.692  21.151  0.00  0.00    -0.263 NA
ATOM     20  C   UNL     1     -11.035 -11.728  20.257  0.00  0.00    +0.040 A 
ATOM     23  C   UNL     1     -11.301 -10.381  20.094  0.00  0.00    +0.033 A 
ATOM     24  C   UNL     1     -11.956 -12.566  20.857  0.00  0.00    +0.033 A 
ATOM     25  C   UNL     1     -12.520  -9.914  20.558  0.00  0.00    +0.111 A 
ATOM     26  C   UNL     1     -13.146 -12.000  21.286  0.00  0.00    +0.111 A 
ENDBRANCH  17  20
ENDBRANCH   8   5
TORSDOF 2
ENDMDL
MODEL 6
REMARK VINA RESULT:      -6.5     29.384     32.138
REMARK  Name = 11882886
REMARK  2 active torsions:
REMARK  status: ('A' for Active; 'I' for Inactive)
REMARK    1  A    between atoms: N_5  and  C_8
REMARK    2  A    between atoms: C_17  and  C_20
REMARK                            x       y       z     vdW  Elec       q    Type
REMARK                         _______ _______ _______ _____ _____    ______ ____
ROOT
ATOM      1  O   UNL     1     -10.838  -9.172  18.188  0.00  0.00    -0.273 OA
ATOM      2  O   UNL     1      -7.531 -11.952  15.267  0.00  0.00    -0.270 OA
ATOM      4  N   UNL     1      -8.812 -10.091  15.800  0.00  0.00    -0.286 N 
ATOM      6  N   UNL     1      -8.870 -10.187  18.758  0.00  0.00    -0.283 N 
ATOM      8  C   UNL     1     -10.897  -8.168  15.107  0.00  0.00    +0.077 C 
ATOM      9  C   UNL     1      -8.992  -8.923  16.654  0.00  0.00    +0.164 C 
ATOM     10  C   UNL     1      -9.721  -7.750  15.988  0.00  0.00    +0.054 C 
ATOM     11  C   UNL     1     -10.432  -9.227  14.113  0.00  0.00    +0.041 C 
ATOM     12  C   UNL     1      -9.870 -10.433  14.846  0.00  0.00    +0.111 C 
ATOM     13  C   UNL     1      -9.669  -9.445  17.909  0.00  0.00    +0.238 C 
ATOM     14  C   UNL     1      -7.785 -11.011  16.019  0.00  0.00    +0.249 C 
ATOM     15  C   UNL     1      -6.985 -10.902  17.268  0.00  0.00    +0.058 A 
ATOM     16  C   UNL     1      -7.547 -10.630  18.530  0.00  0.00    +0.046 A 
ATOM     18  C   UNL     1      -5.641 -11.299  17.178  0.00  0.00    +0.015 A 
ATOM     19  C   UNL     1      -6.762 -10.827  19.678  0.00  0.00    +0.024 A 
ATOM     21  C   UNL     1      -4.863 -11.441  18.326  0.00  0.00    +0.001 A 
ATOM     22  C   UNL     1      -5.427 -11.218  19.577  0.00  0.00    +0.002 A 
ATOM     28  H   UNL     1      -9.242 -10.344  19.690  0.00  0.00    +0.155 HD
ENDROOT
BRANCH   8   5
ATOM      3  O   UNL     1     -13.606  -7.381  15.138  0.00  0.00    -0.270 OA
ATOM      5  N   UNL     1     -11.453  -7.027  14.420  0.00  0.00    -0.308 N 
ATOM     17  C   UNL     1     -12.808  -6.705  14.486  0.00  0.00    +0.244 C 
ATOM     27  H   UNL     1     -10.813  -6.466  13.867  0.00  0.00    +0.149 HD
BRANCH  17  20
ATOM      7  N   UNL     1     -13.986  -3.205  12.386  0.00  0.00    -0.263 NA
ATOM     20  C   UNL     1     -13.216  -5.495  13.758  0.00  0.00    +0.040 A 
ATOM     23  C   UNL     1     -14.558  -5.182  13.654  0.00  0.00    +0.033 A 
ATOM     24  C   UNL     1     -12.252  -4.683  13.191  0.00  0.00    +0.033 A 
ATOM     25  C   UNL     1     -14.890  -4.030  12.959  0.00  0.00    +0.111 A 
ATOM     26  C   UNL     1     -12.687  -3.554  12.517  0.00  0.00    +0.111 A 
ENDBRANCH  17  20
ENDBRANCH   8   5
TORSDOF 2
ENDMDL
MODEL 7
REMARK VINA RESULT:      -6.4      2.649      9.335
REMARK  Name = 11882886
REMARK  2 active torsions:
REMARK  status: ('A' for Active; 'I' for Inactive)
REMARK    1  A    between atoms: N_5  and  C_8
REMARK    2  A    between atoms: C_17  and  C_20
REMARK                            x       y       z     vdW  Elec       q    Type
REMARK                         _______ _______ _______ _____ _____    ______ ____
ROOT
ATOM      1  O   UNL     1      22.317   6.838  19.787  0.00  0.00    -0.273 OA
ATOM      2  O   UNL     1      22.432   4.136  24.246  0.00  0.00    -0.270 OA
ATOM      4  N   UNL     1      21.417   5.072  22.380  0.00  0.00    -0.286 N 
ATOM      6  N   UNL     1      23.608   5.050  20.389  0.00  0.00    -0.283 N 
ATOM      8  C   UNL     1      19.403   6.829  21.205  0.00  0.00    +0.077 C 
ATOM      9  C   UNL     1      21.213   5.027  20.937  0.00  0.00    +0.164 C 
ATOM     10  C   UNL     1      19.858   5.571  20.465  0.00  0.00    +0.054 C 
ATOM     11  C   UNL     1      19.458   6.578  22.708  0.00  0.00    +0.041 C 
ATOM     12  C   UNL     1      20.867   6.202  23.132  0.00  0.00    +0.111 C 
ATOM     13  C   UNL     1      22.412   5.741  20.339  0.00  0.00    +0.238 C 
ATOM     14  C   UNL     1      22.302   4.206  23.024  0.00  0.00    +0.249 C 
ATOM     15  C   UNL     1      23.202   3.360  22.195  0.00  0.00    +0.058 A 
ATOM     16  C   UNL     1      23.871   3.828  21.048  0.00  0.00    +0.046 A 
ATOM     18  C   UNL     1      23.535   2.104  22.729  0.00  0.00    +0.015 A 
ATOM     19  C   UNL     1      24.907   3.050  20.504  0.00  0.00    +0.024 A 
ATOM     21  C   UNL     1      24.531   1.324  22.144  0.00  0.00    +0.001 A 
ATOM     22  C   UNL     1      25.226   1.803  21.039  0.00  0.00    +0.002 A 
ATOM     28  H   UNL     1      24.353   5.413  19.801  0.00  0.00    +0.155 HD
ENDROOT
BRANCH   8   5
ATOM      3  O   UNL     1      18.352   9.446  21.230  0.00  0.00    -0.270 OA
ATOM      5  N   UNL     1      18.071   7.208  20.795  0.00  0.00    -0.308 N 
ATOM     17  C   UNL     1      17.627   8.529  20.839  0.00  0.00    +0.244 C 
ATOM     27  H   UNL     1      17.456   6.464  20.482  0.00  0.00    +0.149 HD
BRANCH  17  20
ATOM      7  N   UNL     1      13.669   9.199  19.449  0.00  0.00    -0.263 NA
ATOM     20  C   UNL     1      16.257   8.761  20.359  0.00  0.00    +0.040 A 
ATOM     23  C   UNL     1      15.666   9.994  20.556  0.00  0.00    +0.033 A 
ATOM     24  C   UNL     1      15.579   7.743  19.715  0.00  0.00    +0.033 A 
ATOM     25  C   UNL     1      14.374  10.162  20.084  0.00  0.00    +0.111 A 
ATOM     26  C   UNL     1      14.291   8.012  19.281  0.00  0.00    +0.111 A 
ENDBRANCH  17  20
ENDBRANCH   8   5
TORSDOF 2
ENDMDL
MODEL 8
REMARK VINA RESULT:      -6.4     14.250     17.445
REMARK  Name = 11882886
REMARK  2 active torsions:
REMARK  status: ('A' for Active; 'I' for Inactive)
REMARK    1  A    between atoms: N_5  and  C_8
REMARK    2  A    between atoms: C_17  and  C_20
REMARK                            x       y       z     vdW  Elec       q    Type
REMARK                         _______ _______ _______ _____ _____    ______ ____
ROOT
ATOM      1  O   UNL     1      12.900   8.241   6.002  0.00  0.00    -0.273 OA
ATOM      2  O   UNL     1       9.963   3.989   5.306  0.00  0.00    -0.270 OA
ATOM      4  N   UNL     1      10.341   6.227   5.792  0.00  0.00    -0.286 N 
ATOM      6  N   UNL     1      12.779   6.814   4.220  0.00  0.00    -0.283 N 
ATOM      8  C   UNL     1      10.097   8.502   7.606  0.00  0.00    +0.077 C 
ATOM      9  C   UNL     1      10.698   7.551   5.297  0.00  0.00    +0.164 C 
ATOM     10  C   UNL     1      10.093   8.715   6.093  0.00  0.00    +0.054 C 
ATOM     11  C   UNL     1       9.452   7.158   7.928  0.00  0.00    +0.041 C 
ATOM     12  C   UNL     1      10.201   6.031   7.237  0.00  0.00    +0.111 C 
ATOM     13  C   UNL     1      12.215   7.561   5.237  0.00  0.00    +0.238 C 
ATOM     14  C   UNL     1      10.353   5.105   4.962  0.00  0.00    +0.249 C 
ATOM     15  C   UNL     1      10.937   5.232   3.600  0.00  0.00    +0.058 A 
ATOM     16  C   UNL     1      12.122   5.940   3.325  0.00  0.00    +0.046 A 
ATOM     18  C   UNL     1      10.364   4.424   2.604  0.00  0.00    +0.015 A 
ATOM     19  C   UNL     1      12.740   5.766   2.075  0.00  0.00    +0.024 A 
ATOM     21  C   UNL     1      10.965   4.304   1.352  0.00  0.00    +0.001 A 
ATOM     22  C   UNL     1      12.160   4.965   1.092  0.00  0.00    +0.002 A 
ATOM     28  H   UNL     1      13.762   6.993   4.033  0.00  0.00    +0.155 HD
ENDROOT
BRANCH   8   5
ATOM      3  O   UNL     1      11.312  10.688   8.909  0.00  0.00    -0.270 OA
ATOM      5  N   UNL     1       9.403   9.577   8.275  0.00  0.00    -0.308 N 
ATOM     17  C   UNL     1      10.081  10.625   8.898  0.00  0.00    +0.244 C 
ATOM     27  H   UNL     1       8.390   9.535   8.287  0.00  0.00    +0.149 HD
BRANCH  17  20
ATOM      7  N   UNL     1       7.641  13.622  10.663  0.00  0.00    -0.263 NA
ATOM     20  C   UNL     1       9.236  11.661   9.508  0.00  0.00    +0.040 A 
ATOM     23  C   UNL     1       9.011  11.641  10.872  0.00  0.00    +0.033 A 
ATOM     24  C   UNL     1       8.679  12.644   8.712  0.00  0.00    +0.033 A 
ATOM     25  C   UNL     1       8.208  12.640  11.398  0.00  0.00    +0.111 A 
ATOM     26  C   UNL     1       7.892  13.599   9.335  0.00  0.00    +0.111 A 
ENDBRANCH  17  20
ENDBRANCH   8   5
TORSDOF 2
ENDMDL
MODEL 9
REMARK VINA RESULT:      -6.4     27.518     30.812
REMARK  Name = 11882886
REMARK  2 active torsions:
REMARK  status: ('A' for Active; 'I' for Inactive)
REMARK    1  A    between atoms: N_5  and  C_8
REMARK    2  A    between atoms: C_17  and  C_20
REMARK                            x       y       z     vdW  Elec       q    Type
REMARK                         _______ _______ _______ _____ _____    ______ ____
ROOT
ATOM      1  O   UNL     1      -7.184 -10.018  15.826  0.00  0.00    -0.273 OA
ATOM      2  O   UNL     1      -2.091 -10.925  16.483  0.00  0.00    -0.270 OA
ATOM      4  N   UNL     1      -4.354 -11.399  16.683  0.00  0.00    -0.286 N 
ATOM      6  N   UNL     1      -5.492 -10.080  14.290  0.00  0.00    -0.283 N 
ATOM      8  C   UNL     1      -6.681 -11.996  18.342  0.00  0.00    +0.077 C 
ATOM      9  C   UNL     1      -5.587 -11.816  16.026  0.00  0.00    +0.164 C 
ATOM     10  C   UNL     1      -6.570 -12.570  16.930  0.00  0.00    +0.054 C 
ATOM     11  C   UNL     1      -5.286 -11.871  18.947  0.00  0.00    +0.041 C 
ATOM     12  C   UNL     1      -4.413 -10.976  18.084  0.00  0.00    +0.111 C 
ATOM     13  C   UNL     1      -6.157 -10.553  15.405  0.00  0.00    +0.238 C 
ATOM     14  C   UNL     1      -3.179 -11.176  15.965  0.00  0.00    +0.249 C 
ATOM     15  C   UNL     1      -3.241 -11.168  14.478  0.00  0.00    +0.058 A 
ATOM     16  C   UNL     1      -4.274 -10.550  13.747  0.00  0.00    +0.046 A 
ATOM     18  C   UNL     1      -2.095 -11.627  13.808  0.00  0.00    +0.015 A 
ATOM     19  C   UNL     1      -4.101 -10.350  12.367  0.00  0.00    +0.024 A 
ATOM     21  C   UNL     1      -1.964 -11.464  12.430  0.00  0.00    +0.001 A 
ATOM     22  C   UNL     1      -2.961 -10.813  11.712  0.00  0.00    +0.002 A 
ATOM     28  H   UNL     1      -5.987  -9.382  13.742  0.00  0.00    +0.155 HD
ENDROOT
BRANCH   8   5
ATOM      3  O   UNL     1      -9.120 -11.214  19.522  0.00  0.00    -0.270 OA
ATOM      5  N   UNL     1      -7.525 -12.828  19.167  0.00  0.00    -0.308 N 
ATOM     17  C   UNL     1      -8.720 -12.364  19.714  0.00  0.00    +0.244 C 
ATOM     27  H   UNL     1      -7.205 -13.774  19.347  0.00  0.00    +0.149 HD
BRANCH  17  20
ATOM      7  N   UNL     1     -10.930 -15.185  21.997  0.00  0.00    -0.263 NA
ATOM     20  C   UNL     1      -9.485 -13.339  20.505  0.00  0.00    +0.040 A 
ATOM     23  C   UNL     1     -10.817 -13.096  20.783  0.00  0.00    +0.033 A 
ATOM     24  C   UNL     1      -8.863 -14.487  20.958  0.00  0.00    +0.033 A 
ATOM     25  C   UNL     1     -11.493 -14.047  21.531  0.00  0.00    +0.111 A 
ATOM     26  C   UNL     1      -9.627 -15.375  21.697  0.00  0.00    +0.111 A 
ENDBRANCH  17  20
ENDBRANCH   8   5
TORSDOF 2
ENDMDL
MODEL 10
REMARK VINA RESULT:      -6.4     17.953     21.029
REMARK  Name = 11882886
REMARK  2 active torsions:
REMARK  status: ('A' for Active; 'I' for Inactive)
REMARK    1  A    between atoms: N_5  and  C_8
REMARK    2  A    between atoms: C_17  and  C_20
REMARK                            x       y       z     vdW  Elec       q    Type
REMARK                         _______ _______ _______ _____ _____    ______ ____
ROOT
ATOM      1  O   UNL     1      14.018   3.382   2.088  0.00  0.00    -0.273 OA
ATOM      2  O   UNL     1      11.708   4.694  -2.399  0.00  0.00    -0.270 OA
ATOM      4  N   UNL     1      12.197   4.920  -0.142  0.00  0.00    -0.286 N 
ATOM      6  N   UNL     1      14.928   3.792   0.031  0.00  0.00    -0.283 N 
ATOM      8  C   UNL     1      11.316   5.086   2.637  0.00  0.00    +0.077 C 
ATOM      9  C   UNL     1      13.173   5.290   0.876  0.00  0.00    +0.164 C 
ATOM     10  C   UNL     1      12.567   5.832   2.177  0.00  0.00    +0.054 C 
ATOM     11  C   UNL     1      10.314   5.024   1.489  0.00  0.00    +0.041 C 
ATOM     12  C   UNL     1      10.927   4.328   0.287  0.00  0.00    +0.111 C 
ATOM     13  C   UNL     1      14.046   4.061   1.061  0.00  0.00    +0.238 C 
ATOM     14  C   UNL     1      12.522   4.899  -1.498  0.00  0.00    +0.249 C 
ATOM     15  C   UNL     1      13.947   5.063  -1.893  0.00  0.00    +0.058 A 
ATOM     16  C   UNL     1      15.016   4.440  -1.222  0.00  0.00    +0.046 A 
ATOM     18  C   UNL     1      14.179   5.708  -3.120  0.00  0.00    +0.015 A 
ATOM     19  C   UNL     1      16.281   4.423  -1.832  0.00  0.00    +0.024 A 
ATOM     21  C   UNL     1      15.453   5.724  -3.684  0.00  0.00    +0.001 A 
ATOM     22  C   UNL     1      16.501   5.070  -3.047  0.00  0.00    +0.002 A 
ATOM     28  H   UNL     1      15.660   3.119   0.242  0.00  0.00    +0.155 HD
ENDROOT
BRANCH   8   5
ATOM      3  O   UNL     1      10.167   3.768   4.851  0.00  0.00    -0.270 OA
ATOM      5  N   UNL     1      10.735   5.727   3.793  0.00  0.00    -0.308 N 
ATOM     17  C   UNL     1      10.185   5.001   4.849  0.00  0.00    +0.244 C 
ATOM     27  H   UNL     1      10.729   6.741   3.803  0.00  0.00    +0.149 HD
BRANCH  17  20
ATOM      7  N   UNL     1       8.667   7.295   8.086  0.00  0.00    -0.263 NA
ATOM     20  C   UNL     1       9.661   5.795   5.969  0.00  0.00    +0.040 A 
ATOM     23  C   UNL     1       8.759   6.813   5.719  0.00  0.00    +0.033 A 
ATOM     24  C   UNL     1      10.074   5.514   7.258  0.00  0.00    +0.033 A 
ATOM     25  C   UNL     1       8.294   7.531   6.809  0.00  0.00    +0.111 A 
ATOM     26  C   UNL     1       9.550   6.290   8.278  0.00  0.00    +0.111 A 
ENDBRANCH  17  20
ENDBRANCH   8   5
TORSDOF 2
ENDMDL
