MODEL 1
REMARK VINA RESULT:      -7.8      0.000      0.000
REMARK  Name = 40779459
REMARK  6 active torsions:
REMARK  status: ('A' for Active; 'I' for Inactive)
REMARK    1  A    between atoms: N_5  and  C_19
REMARK    2  A    between atoms: N_6  and  C_16
REMARK    3  A    between atoms: C_9  and  C_15
REMARK    4  A    between atoms: C_10  and  C_16
REMARK    5  A    between atoms: C_18  and  C_21
REMARK    6  A    between atoms: C_20  and  C_22
REMARK                            x       y       z     vdW  Elec       q    Type
REMARK                         _______ _______ _______ _____ _____    ______ ____
ROOT
ATOM      4  N   UNL     1     -10.247   9.509  17.110  0.00  0.00    -0.297 NA
ATOM      8  C   UNL     1     -12.549  10.722  17.238  0.00  0.00    +0.002 C 
ATOM      9  C   UNL     1     -11.578  11.285  18.311  0.00  0.00    +0.055 C 
ATOM     10  C   UNL     1     -11.347   8.509  17.153  0.00  0.00    +0.074 C 
ATOM     11  C   UNL     1     -12.699   9.198  17.436  0.00  0.00    +0.024 C 
ATOM     12  C   UNL     1     -11.871  10.936  15.868  0.00  0.00    +0.019 C 
ATOM     13  C   UNL     1     -10.310  10.384  18.308  0.00  0.00    +0.094 C 
ATOM     14  C   UNL     1     -10.447  10.354  15.910  0.00  0.00    +0.085 C 
ENDROOT
BRANCH   9  15
ATOM      5  N   UNL     1     -12.950  12.554  20.028  0.00  0.00    -0.270 N 
ATOM      7  N   UNL     1     -13.311  12.586  21.322  0.00  0.00    -0.171 NA
ATOM     15  C   UNL     1     -12.116  11.521  19.715  0.00  0.00    +0.044 A 
ATOM     17  C   UNL     1     -11.917  10.830  20.886  0.00  0.00    +0.053 A 
ATOM     18  C   UNL     1     -12.677  11.532  21.842  0.00  0.00    +0.093 A 
ATOM     19  C   UNL     1     -13.452  13.567  19.129  0.00  0.00    +0.172 C 
BRANCH  18  21
ATOM     21  C   UNL     1     -12.808  11.214  23.239  0.00  0.00    +0.003 A 
ATOM     23  C   UNL     1     -11.669  11.067  24.031  0.00  0.00    +0.018 A 
ATOM     24  C   UNL     1     -14.072  11.054  23.800  0.00  0.00    +0.011 A 
ATOM     25  C   UNL     1     -11.779  10.757  25.397  0.00  0.00    -0.017 A 
ATOM     28  C   UNL     1     -14.201  10.746  25.154  0.00  0.00    +0.009 A 
ATOM     29  C   UNL     1     -13.064  10.594  25.966  0.00  0.00    -0.018 A 
ATOM     32  C   UNL     1     -10.644  10.605  26.208  0.00  0.00    +0.008 A 
ATOM     34  C   UNL     1     -13.176  10.285  27.331  0.00  0.00    +0.008 A 
ATOM     35  C   UNL     1     -10.773  10.297  27.563  0.00  0.00    +0.001 A 
ATOM     36  C   UNL     1     -12.037  10.137  28.123  0.00  0.00    +0.001 A 
ENDBRANCH  18  21
ENDBRANCH   9  15
BRANCH  10  16
ATOM     16  C   UNL     1     -11.066   7.377  18.142  0.00  0.00    +0.123 C 
BRANCH  16   6
ATOM      1  O   UNL     1     -10.881   7.301  21.007  0.00  0.00    -0.270 OA
ATOM      6  N   UNL     1     -12.149   7.225  19.065  0.00  0.00    -0.310 N 
ATOM     20  C   UNL     1     -11.970   7.199  20.447  0.00  0.00    +0.244 C 
ATOM     38  H   UNL     1     -13.066   7.048  18.666  0.00  0.00    +0.149 HD
BRANCH  20  22
ATOM      2  O   UNL     1     -14.953   4.539  23.334  0.00  0.00    -0.453 OA
ATOM      3  O   UNL     1     -16.530   6.347  23.564  0.00  0.00    -0.453 OA
ATOM     22  C   UNL     1     -13.193   7.007  21.268  0.00  0.00    +0.040 A 
ATOM     26  C   UNL     1     -13.418   5.782  21.900  0.00  0.00    +0.062 A 
ATOM     27  C   UNL     1     -14.113   8.062  21.401  0.00  0.00    +0.017 A 
ATOM     30  C   UNL     1     -14.567   5.652  22.652  0.00  0.00    +0.167 A 
ATOM     31  C   UNL     1     -15.269   7.903  22.169  0.00  0.00    +0.050 A 
ATOM     33  C   UNL     1     -15.468   6.684  22.782  0.00  0.00    +0.166 A 
ATOM     37  C   UNL     1     -16.198   4.987  23.910  0.00  0.00    +0.466 C 
ENDBRANCH  20  22
ENDBRANCH  16   6
ENDBRANCH  10  16
TORSDOF 5
ENDMDL
MODEL 2
REMARK VINA RESULT:      -7.6     21.510     24.470
REMARK  Name = 40779459
REMARK  6 active torsions:
REMARK  status: ('A' for Active; 'I' for Inactive)
REMARK    1  A    between atoms: N_5  and  C_19
REMARK    2  A    between atoms: N_6  and  C_16
REMARK    3  A    between atoms: C_9  and  C_15
REMARK    4  A    between atoms: C_10  and  C_16
REMARK    5  A    between atoms: C_18  and  C_21
REMARK    6  A    between atoms: C_20  and  C_22
REMARK                            x       y       z     vdW  Elec       q    Type
REMARK                         _______ _______ _______ _____ _____    ______ ____
ROOT
ATOM      4  N   UNL     1      -6.045 -10.485  18.139  0.00  0.00    -0.297 NA
ATOM      8  C   UNL     1      -4.621 -12.371  17.044  0.00  0.00    +0.002 C 
ATOM      9  C   UNL     1      -4.129 -10.975  16.572  0.00  0.00    +0.055 C 
ATOM     10  C   UNL     1      -6.937 -11.510  17.537  0.00  0.00    +0.074 C 
ATOM     11  C   UNL     1      -6.120 -12.524  16.708  0.00  0.00    +0.024 C 
ATOM     12  C   UNL     1      -4.498 -12.389  18.583  0.00  0.00    +0.019 C 
ATOM     13  C   UNL     1      -5.145  -9.922  17.101  0.00  0.00    +0.094 C 
ATOM     14  C   UNL     1      -5.209 -11.154  19.163  0.00  0.00    +0.085 C 
ENDROOT
BRANCH   9  15
ATOM      5  N   UNL     1      -2.546 -10.671  14.612  0.00  0.00    -0.270 N 
ATOM      7  N   UNL     1      -2.485 -10.508  13.279  0.00  0.00    -0.171 NA
ATOM     15  C   UNL     1      -3.817 -10.785  15.095  0.00  0.00    +0.044 A 
ATOM     17  C   UNL     1      -4.645 -10.690  14.002  0.00  0.00    +0.053 A 
ATOM     18  C   UNL     1      -3.769 -10.520  12.912  0.00  0.00    +0.093 A 
ATOM     19  C   UNL     1      -1.321 -10.707  15.376  0.00  0.00    +0.172 C 
BRANCH  18  21
ATOM     21  C   UNL     1      -4.136 -10.369  11.529  0.00  0.00    +0.003 A 
ATOM     23  C   UNL     1      -3.940 -11.422  10.636  0.00  0.00    +0.018 A 
ATOM     24  C   UNL     1      -4.688  -9.171  11.083  0.00  0.00    +0.011 A 
ATOM     25  C   UNL     1      -4.294 -11.291   9.283  0.00  0.00    -0.017 A 
ATOM     28  C   UNL     1      -5.045  -9.023   9.742  0.00  0.00    +0.009 A 
ATOM     29  C   UNL     1      -4.854 -10.074   8.830  0.00  0.00    -0.018 A 
ATOM     32  C   UNL     1      -4.102 -12.341   8.370  0.00  0.00    +0.008 A 
ATOM     34  C   UNL     1      -5.207  -9.941   7.477  0.00  0.00    +0.008 A 
ATOM     35  C   UNL     1      -4.459 -12.193   7.029  0.00  0.00    +0.001 A 
ATOM     36  C   UNL     1      -5.010 -10.994   6.584  0.00  0.00    +0.001 A 
ENDBRANCH  18  21
ENDBRANCH   9  15
BRANCH  10  16
ATOM     16  C   UNL     1      -8.071 -10.889  16.720  0.00  0.00    +0.123 C 
BRANCH  16   6
ATOM      1  O   UNL     1      -8.747  -9.208  14.492  0.00  0.00    -0.270 OA
ATOM      6  N   UNL     1      -7.938 -11.214  15.333  0.00  0.00    -0.310 N 
ATOM     20  C   UNL     1      -8.292 -10.334  14.311  0.00  0.00    +0.244 C 
ATOM     38  H   UNL     1      -7.650 -12.161  15.113  0.00  0.00    +0.149 HD
BRANCH  20  22
ATOM      2  O   UNL     1      -7.176 -13.808  10.996  0.00  0.00    -0.453 OA
ATOM      3  O   UNL     1      -7.603 -12.334   9.138  0.00  0.00    -0.453 OA
ATOM     22  C   UNL     1      -8.119 -10.832  12.923  0.00  0.00    +0.040 A 
ATOM     26  C   UNL     1      -7.710 -12.150  12.705  0.00  0.00    +0.062 A 
ATOM     27  C   UNL     1      -8.368  -9.972  11.838  0.00  0.00    +0.017 A 
ATOM     30  C   UNL     1      -7.564 -12.568  11.398  0.00  0.00    +0.167 A 
ATOM     31  C   UNL     1      -8.212 -10.420  10.525  0.00  0.00    +0.050 A 
ATOM     33  C   UNL     1      -7.808 -11.725  10.337  0.00  0.00    +0.166 A 
ATOM     37  C   UNL     1      -7.203 -13.654   9.562  0.00  0.00    +0.466 C 
ENDBRANCH  20  22
ENDBRANCH  16   6
ENDBRANCH  10  16
TORSDOF 5
ENDMDL
MODEL 3
REMARK VINA RESULT:      -7.4      2.641      5.614
REMARK  Name = 40779459
REMARK  6 active torsions:
REMARK  status: ('A' for Active; 'I' for Inactive)
REMARK    1  A    between atoms: N_5  and  C_19
REMARK    2  A    between atoms: N_6  and  C_16
REMARK    3  A    between atoms: C_9  and  C_15
REMARK    4  A    between atoms: C_10  and  C_16
REMARK    5  A    between atoms: C_18  and  C_21
REMARK    6  A    between atoms: C_20  and  C_22
REMARK                            x       y       z     vdW  Elec       q    Type
REMARK                         _______ _______ _______ _____ _____    ______ ____
ROOT
ATOM      4  N   UNL     1     -11.080  13.839  15.671  0.00  0.00    -0.297 NA
ATOM      8  C   UNL     1      -9.327  12.278  16.800  0.00  0.00    +0.002 C 
ATOM      9  C   UNL     1     -10.372  11.441  16.012  0.00  0.00    +0.055 C 
ATOM     10  C   UNL     1     -10.931  14.197  17.106  0.00  0.00    +0.074 C 
ATOM     11  C   UNL     1     -10.056  13.157  17.839  0.00  0.00    +0.024 C 
ATOM     12  C   UNL     1      -8.664  13.232  15.784  0.00  0.00    +0.019 C 
ATOM     13  C   UNL     1     -11.488  12.417  15.542  0.00  0.00    +0.094 C 
ATOM     14  C   UNL     1      -9.758  14.001  15.021  0.00  0.00    +0.085 C 
ENDROOT
BRANCH   9  15
ATOM      5  N   UNL     1     -11.124   9.017  16.005  0.00  0.00    -0.270 N 
ATOM      7  N   UNL     1     -11.634   8.035  16.768  0.00  0.00    -0.171 NA
ATOM     15  C   UNL     1     -10.938  10.192  16.673  0.00  0.00    +0.044 A 
ATOM     17  C   UNL     1     -11.357   9.963  17.961  0.00  0.00    +0.053 A 
ATOM     18  C   UNL     1     -11.775   8.618  17.961  0.00  0.00    +0.093 A 
ATOM     19  C   UNL     1     -10.832   8.753  14.615  0.00  0.00    +0.172 C 
BRANCH  18  21
ATOM     21  C   UNL     1     -12.306   7.882  19.077  0.00  0.00    +0.003 A 
ATOM     23  C   UNL     1     -13.684   7.705  19.204  0.00  0.00    +0.018 A 
ATOM     24  C   UNL     1     -11.444   7.346  20.030  0.00  0.00    +0.011 A 
ATOM     25  C   UNL     1     -14.219   6.988  20.288  0.00  0.00    -0.017 A 
ATOM     28  C   UNL     1     -11.957   6.632  21.113  0.00  0.00    +0.009 A 
ATOM     29  C   UNL     1     -13.342   6.444  21.256  0.00  0.00    -0.018 A 
ATOM     32  C   UNL     1     -15.602   6.801  20.431  0.00  0.00    +0.008 A 
ATOM     34  C   UNL     1     -13.876   5.728  22.340  0.00  0.00    +0.008 A 
ATOM     35  C   UNL     1     -16.116   6.086  21.514  0.00  0.00    +0.001 A 
ATOM     36  C   UNL     1     -15.253   5.551  22.467  0.00  0.00    +0.001 A 
ENDBRANCH  18  21
ENDBRANCH   9  15
BRANCH  10  16
ATOM     16  C   UNL     1     -12.279  14.397  17.800  0.00  0.00    +0.123 C 
BRANCH  16   6
ATOM      1  O   UNL     1     -14.481  12.592  18.173  0.00  0.00    -0.270 OA
ATOM      6  N   UNL     1     -12.446  13.462  18.870  0.00  0.00    -0.310 N 
ATOM     20  C   UNL     1     -13.551  12.619  18.975  0.00  0.00    +0.244 C 
ATOM     38  H   UNL     1     -11.756  13.494  19.614  0.00  0.00    +0.149 HD
BRANCH  20  22
ATOM      2  O   UNL     1     -15.887   9.843  22.314  0.00  0.00    -0.453 OA
ATOM      3  O   UNL     1     -13.832   9.247  23.424  0.00  0.00    -0.453 OA
ATOM     22  C   UNL     1     -13.588  11.725  20.160  0.00  0.00    +0.040 A 
ATOM     26  C   UNL     1     -14.814  11.237  20.622  0.00  0.00    +0.062 A 
ATOM     27  C   UNL     1     -12.390  11.377  20.808  0.00  0.00    +0.017 A 
ATOM     30  C   UNL     1     -14.798  10.409  21.726  0.00  0.00    +0.167 A 
ATOM     31  C   UNL     1     -12.402  10.537  21.924  0.00  0.00    +0.050 A 
ATOM     33  C   UNL     1     -13.625  10.069  22.359  0.00  0.00    +0.166 A 
ATOM     37  C   UNL     1     -15.268   9.107  23.389  0.00  0.00    +0.466 C 
ENDBRANCH  20  22
ENDBRANCH  16   6
ENDBRANCH  10  16
TORSDOF 5
ENDMDL
MODEL 4
REMARK VINA RESULT:      -7.4     17.897     20.853
REMARK  Name = 40779459
REMARK  6 active torsions:
REMARK  status: ('A' for Active; 'I' for Inactive)
REMARK    1  A    between atoms: N_5  and  C_19
REMARK    2  A    between atoms: N_6  and  C_16
REMARK    3  A    between atoms: C_9  and  C_15
REMARK    4  A    between atoms: C_10  and  C_16
REMARK    5  A    between atoms: C_18  and  C_21
REMARK    6  A    between atoms: C_20  and  C_22
REMARK                            x       y       z     vdW  Elec       q    Type
REMARK                         _______ _______ _______ _____ _____    ______ ____
ROOT
ATOM      4  N   UNL     1      -5.302 -12.229  17.409  0.00  0.00    -0.297 NA
ATOM      8  C   UNL     1      -6.143 -10.944  19.512  0.00  0.00    +0.002 C 
ATOM      9  C   UNL     1      -7.045 -12.177  19.232  0.00  0.00    +0.055 C 
ATOM     10  C   UNL     1      -5.430 -10.779  17.102  0.00  0.00    +0.074 C 
ATOM     11  C   UNL     1      -6.119 -10.035  18.265  0.00  0.00    +0.024 C 
ATOM     12  C   UNL     1      -4.709 -11.478  19.711  0.00  0.00    +0.019 C 
ATOM     13  C   UNL     1      -6.609 -12.769  17.861  0.00  0.00    +0.094 C 
ATOM     14  C   UNL     1      -4.332 -12.375  18.519  0.00  0.00    +0.085 C 
ENDROOT
BRANCH   9  15
ATOM      5  N   UNL     1      -9.362 -12.874  20.000  0.00  0.00    -0.270 N 
ATOM      7  N   UNL     1     -10.663 -12.541  19.969  0.00  0.00    -0.171 NA
ATOM     15  C   UNL     1      -8.554 -12.002  19.331  0.00  0.00    +0.044 A 
ATOM     17  C   UNL     1      -9.385 -11.031  18.827  0.00  0.00    +0.053 A 
ATOM     18  C   UNL     1     -10.672 -11.415  19.251  0.00  0.00    +0.093 A 
ATOM     19  C   UNL     1      -8.955 -14.069  20.703  0.00  0.00    +0.172 C 
BRANCH  18  21
ATOM     21  C   UNL     1     -11.907 -10.727  18.983  0.00  0.00    +0.003 A 
ATOM     23  C   UNL     1     -12.706 -10.291  20.040  0.00  0.00    +0.018 A 
ATOM     24  C   UNL     1     -12.304 -10.497  17.668  0.00  0.00    +0.011 A 
ATOM     25  C   UNL     1     -13.914  -9.617  19.795  0.00  0.00    -0.017 A 
ATOM     28  C   UNL     1     -13.501  -9.831  17.406  0.00  0.00    +0.009 A 
ATOM     29  C   UNL     1     -14.318  -9.384  18.459  0.00  0.00    -0.018 A 
ATOM     32  C   UNL     1     -14.731  -9.171  20.847  0.00  0.00    +0.008 A 
ATOM     34  C   UNL     1     -15.526  -8.712  18.213  0.00  0.00    +0.008 A 
ATOM     35  C   UNL     1     -15.928  -8.504  20.585  0.00  0.00    +0.001 A 
ATOM     36  C   UNL     1     -16.325  -8.275  19.270  0.00  0.00    +0.001 A 
ENDBRANCH  18  21
ENDBRANCH   9  15
BRANCH  10  16
ATOM     16  C   UNL     1      -6.132 -10.526  15.767  0.00  0.00    +0.123 C 
BRANCH  16   6
ATOM      1  O   UNL     1      -8.742 -10.874  14.622  0.00  0.00    -0.270 OA
ATOM      6  N   UNL     1      -7.262  -9.666  15.940  0.00  0.00    -0.310 N 
ATOM     20  C   UNL     1      -8.499  -9.911  15.345  0.00  0.00    +0.244 C 
ATOM     38  H   UNL     1      -7.105  -8.806  16.455  0.00  0.00    +0.149 HD
BRANCH  20  22
ATOM      2  O   UNL     1     -12.572  -7.417  14.122  0.00  0.00    -0.453 OA
ATOM      3  O   UNL     1     -12.565  -6.169  16.184  0.00  0.00    -0.453 OA
ATOM     22  C   UNL     1      -9.564  -8.908  15.601  0.00  0.00    +0.040 A 
ATOM     26  C   UNL     1     -10.561  -8.697  14.645  0.00  0.00    +0.062 A 
ATOM     27  C   UNL     1      -9.560  -8.180  16.804  0.00  0.00    +0.017 A 
ATOM     30  C   UNL     1     -11.530  -7.757  14.928  0.00  0.00    +0.167 A 
ATOM     31  C   UNL     1     -10.553  -7.233  17.065  0.00  0.00    +0.050 A 
ATOM     33  C   UNL     1     -11.525  -7.044  16.106  0.00  0.00    +0.166 A 
ATOM     37  C   UNL     1     -13.225  -6.411  14.924  0.00  0.00    +0.466 C 
ENDBRANCH  20  22
ENDBRANCH  16   6
ENDBRANCH  10  16
TORSDOF 5
ENDMDL
MODEL 5
REMARK VINA RESULT:      -7.3     32.238     34.853
REMARK  Name = 40779459
REMARK  6 active torsions:
REMARK  status: ('A' for Active; 'I' for Inactive)
REMARK    1  A    between atoms: N_5  and  C_19
REMARK    2  A    between atoms: N_6  and  C_16
REMARK    3  A    between atoms: C_9  and  C_15
REMARK    4  A    between atoms: C_10  and  C_16
REMARK    5  A    between atoms: C_18  and  C_21
REMARK    6  A    between atoms: C_20  and  C_22
REMARK                            x       y       z     vdW  Elec       q    Type
REMARK                         _______ _______ _______ _____ _____    ______ ____
ROOT
ATOM      4  N   UNL     1      17.861  -3.366  32.201  0.00  0.00    -0.297 NA
ATOM      8  C   UNL     1      15.578  -3.629  30.975  0.00  0.00    +0.002 C 
ATOM      9  C   UNL     1      16.493  -4.851  30.687  0.00  0.00    +0.055 C 
ATOM     10  C   UNL     1      17.544  -2.126  31.444  0.00  0.00    +0.074 C 
ATOM     11  C   UNL     1      16.305  -2.336  30.549  0.00  0.00    +0.024 C 
ATOM     12  C   UNL     1      15.394  -3.562  32.506  0.00  0.00    +0.019 C 
ATOM     13  C   UNL     1      17.895  -4.529  31.279  0.00  0.00    +0.094 C 
ATOM     14  C   UNL     1      16.775  -3.588  33.185  0.00  0.00    +0.085 C 
ENDROOT
BRANCH   9  15
ATOM      5  N   UNL     1      15.728  -6.315  28.760  0.00  0.00    -0.270 N 
ATOM      7  N   UNL     1      15.965  -6.634  27.477  0.00  0.00    -0.171 NA
ATOM     15  C   UNL     1      16.574  -5.368  29.258  0.00  0.00    +0.044 A 
ATOM     17  C   UNL     1      17.426  -5.046  28.229  0.00  0.00    +0.053 A 
ATOM     18  C   UNL     1      17.004  -5.857  27.157  0.00  0.00    +0.093 A 
ATOM     19  C   UNL     1      14.650  -6.971  29.464  0.00  0.00    +0.172 C 
BRANCH  18  21
ATOM     21  C   UNL     1      17.574  -5.903  25.837  0.00  0.00    +0.003 A 
ATOM     23  C   UNL     1      18.957  -5.972  25.676  0.00  0.00    +0.018 A 
ATOM     24  C   UNL     1      16.743  -5.880  24.720  0.00  0.00    +0.011 A 
ATOM     25  C   UNL     1      19.529  -6.019  24.394  0.00  0.00    -0.017 A 
ATOM     28  C   UNL     1      17.293  -5.924  23.439  0.00  0.00    +0.009 A 
ATOM     29  C   UNL     1      18.684  -5.994  23.259  0.00  0.00    -0.018 A 
ATOM     32  C   UNL     1      20.920  -6.088  24.214  0.00  0.00    +0.008 A 
ATOM     34  C   UNL     1      19.255  -6.040  21.977  0.00  0.00    +0.008 A 
ATOM     35  C   UNL     1      21.470  -6.133  22.932  0.00  0.00    +0.001 A 
ATOM     36  C   UNL     1      20.639  -6.109  21.816  0.00  0.00    +0.001 A 
ENDBRANCH  18  21
ENDBRANCH   9  15
BRANCH  10  16
ATOM     16  C   UNL     1      18.743  -1.610  30.645  0.00  0.00    +0.123 C 
BRANCH  16   6
ATOM      1  O   UNL     1      20.719  -2.269  28.669  0.00  0.00    -0.270 OA
ATOM      6  N   UNL     1      18.526  -1.768  29.241  0.00  0.00    -0.310 N 
ATOM     20  C   UNL     1      19.547  -2.091  28.347  0.00  0.00    +0.244 C 
ATOM     38  H   UNL     1      17.597  -1.550  28.895  0.00  0.00    +0.149 HD
BRANCH  20  22
ATOM      2  O   UNL     1      16.263  -2.149  24.671  0.00  0.00    -0.453 OA
ATOM      3  O   UNL     1      17.970  -2.460  22.998  0.00  0.00    -0.453 OA
ATOM     22  C   UNL     1      19.164  -2.193  26.916  0.00  0.00    +0.040 A 
ATOM     26  C   UNL     1      17.818  -2.108  26.552  0.00  0.00    +0.062 A 
ATOM     27  C   UNL     1      20.160  -2.375  25.940  0.00  0.00    +0.017 A 
ATOM     30  C   UNL     1      17.511  -2.208  25.210  0.00  0.00    +0.167 A 
ATOM     31  C   UNL     1      19.821  -2.472  24.589  0.00  0.00    +0.050 A 
ATOM     33  C   UNL     1      18.486  -2.386  24.255  0.00  0.00    +0.166 A 
ATOM     37  C   UNL     1      16.561  -2.309  23.268  0.00  0.00    +0.466 C 
ENDBRANCH  20  22
ENDBRANCH  16   6
ENDBRANCH  10  16
TORSDOF 5
ENDMDL
MODEL 6
REMARK VINA RESULT:      -7.1     27.972     32.556
REMARK  Name = 40779459
REMARK  6 active torsions:
REMARK  status: ('A' for Active; 'I' for Inactive)
REMARK    1  A    between atoms: N_5  and  C_19
REMARK    2  A    between atoms: N_6  and  C_16
REMARK    3  A    between atoms: C_9  and  C_15
REMARK    4  A    between atoms: C_10  and  C_16
REMARK    5  A    between atoms: C_18  and  C_21
REMARK    6  A    between atoms: C_20  and  C_22
REMARK                            x       y       z     vdW  Elec       q    Type
REMARK                         _______ _______ _______ _____ _____    ______ ____
ROOT
ATOM      4  N   UNL     1      12.166   9.257   7.169  0.00  0.00    -0.297 NA
ATOM      8  C   UNL     1      10.172   9.012   5.511  0.00  0.00    +0.002 C 
ATOM      9  C   UNL     1      10.630   7.618   6.021  0.00  0.00    +0.055 C 
ATOM     10  C   UNL     1      12.439  10.030   5.928  0.00  0.00    +0.074 C 
ATOM     11  C   UNL     1      11.369   9.733   4.856  0.00  0.00    +0.024 C 
ATOM     12  C   UNL     1       9.775   9.833   6.757  0.00  0.00    +0.019 C 
ATOM     13  C   UNL     1      11.937   7.828   6.836  0.00  0.00    +0.094 C 
ATOM     14  C   UNL     1      10.927   9.795   7.777  0.00  0.00    +0.085 C 
ENDROOT
BRANCH   9  15
ATOM      5  N   UNL     1      10.358   5.209   5.269  0.00  0.00    -0.270 N 
ATOM      7  N   UNL     1      10.554   4.361   4.245  0.00  0.00    -0.171 NA
ATOM     15  C   UNL     1      10.755   6.488   5.009  0.00  0.00    +0.044 A 
ATOM     17  C   UNL     1      11.248   6.476   3.727  0.00  0.00    +0.053 A 
ATOM     18  C   UNL     1      11.099   5.140   3.305  0.00  0.00    +0.093 A 
ATOM     19  C   UNL     1       9.771   4.714   6.493  0.00  0.00    +0.172 C 
BRANCH  18  21
ATOM     21  C   UNL     1      11.466   4.595   2.026  0.00  0.00    +0.003 A 
ATOM     23  C   UNL     1      10.724   4.919   0.890  0.00  0.00    +0.018 A 
ATOM     24  C   UNL     1      12.564   3.745   1.921  0.00  0.00    +0.011 A 
ATOM     25  C   UNL     1      11.071   4.396  -0.367  0.00  0.00    -0.017 A 
ATOM     28  C   UNL     1      12.922   3.215   0.682  0.00  0.00    +0.009 A 
ATOM     29  C   UNL     1      12.185   3.531  -0.472  0.00  0.00    -0.018 A 
ATOM     32  C   UNL     1      10.334   4.711  -1.520  0.00  0.00    +0.008 A 
ATOM     34  C   UNL     1      12.532   3.007  -1.728  0.00  0.00    +0.008 A 
ATOM     35  C   UNL     1      10.693   4.181  -2.760  0.00  0.00    +0.001 A 
ATOM     36  C   UNL     1      11.790   3.330  -2.863  0.00  0.00    +0.001 A 
ENDBRANCH  18  21
ENDBRANCH   9  15
BRANCH  10  16
ATOM     16  C   UNL     1      13.855   9.803   5.399  0.00  0.00    +0.123 C 
BRANCH  16   6
ATOM      1  O   UNL     1      15.098   7.341   4.598  0.00  0.00    -0.270 OA
ATOM      6  N   UNL     1      13.825   9.215   4.095  0.00  0.00    -0.310 N 
ATOM     20  C   UNL     1      14.458   8.011   3.791  0.00  0.00    +0.244 C 
ATOM     38  H   UNL     1      13.387   9.761   3.360  0.00  0.00    +0.149 HD
BRANCH  20  22
ATOM      2  O   UNL     1      15.936   5.327  -0.072  0.00  0.00    -0.453 OA
ATOM      3  O   UNL     1      14.183   6.187  -1.485  0.00  0.00    -0.453 OA
ATOM     22  C   UNL     1      14.355   7.548   2.384  0.00  0.00    +0.040 A 
ATOM     26  C   UNL     1      15.275   6.619   1.891  0.00  0.00    +0.062 A 
ATOM     27  C   UNL     1      13.332   8.050   1.559  0.00  0.00    +0.017 A 
ATOM     30  C   UNL     1      15.138   6.218   0.578  0.00  0.00    +0.167 A 
ATOM     31  C   UNL     1      13.217   7.627   0.233  0.00  0.00    +0.050 A 
ATOM     33  C   UNL     1      14.137   6.710  -0.229  0.00  0.00    +0.166 A 
ATOM     37  C   UNL     1      15.325   5.312  -1.379  0.00  0.00    +0.466 C 
ENDBRANCH  20  22
ENDBRANCH  16   6
ENDBRANCH  10  16
TORSDOF 5
ENDMDL
MODEL 7
REMARK VINA RESULT:      -7.1     19.649     23.232
REMARK  Name = 40779459
REMARK  6 active torsions:
REMARK  status: ('A' for Active; 'I' for Inactive)
REMARK    1  A    between atoms: N_5  and  C_19
REMARK    2  A    between atoms: N_6  and  C_16
REMARK    3  A    between atoms: C_9  and  C_15
REMARK    4  A    between atoms: C_10  and  C_16
REMARK    5  A    between atoms: C_18  and  C_21
REMARK    6  A    between atoms: C_20  and  C_22
REMARK                            x       y       z     vdW  Elec       q    Type
REMARK                         _______ _______ _______ _____ _____    ______ ____
ROOT
ATOM      4  N   UNL     1      -6.246 -10.433  18.026  0.00  0.00    -0.297 NA
ATOM      8  C   UNL     1      -4.425 -12.138  17.275  0.00  0.00    +0.002 C 
ATOM      9  C   UNL     1      -4.161 -10.745  16.640  0.00  0.00    +0.055 C 
ATOM     10  C   UNL     1      -6.889 -11.677  17.527  0.00  0.00    +0.074 C 
ATOM     11  C   UNL     1      -5.842 -12.613  16.888  0.00  0.00    +0.024 C 
ATOM     12  C   UNL     1      -4.417 -11.938  18.806  0.00  0.00    +0.019 C 
ATOM     13  C   UNL     1      -5.387  -9.846  16.967  0.00  0.00    +0.094 C 
ATOM     14  C   UNL     1      -5.382 -10.796  19.174  0.00  0.00    +0.085 C 
ENDROOT
BRANCH   9  15
ATOM      5  N   UNL     1      -2.484 -10.654  14.737  0.00  0.00    -0.270 N 
ATOM      7  N   UNL     1      -2.359 -10.604  13.400  0.00  0.00    -0.171 NA
ATOM     15  C   UNL     1      -3.778 -10.687  15.168  0.00  0.00    +0.044 A 
ATOM     17  C   UNL     1      -4.553 -10.655  14.035  0.00  0.00    +0.053 A 
ATOM     18  C   UNL     1      -3.626 -10.604  12.976  0.00  0.00    +0.093 A 
ATOM     19  C   UNL     1      -1.295 -10.667  15.557  0.00  0.00    +0.172 C 
BRANCH  18  21
ATOM     21  C   UNL     1      -3.927 -10.556  11.570  0.00  0.00    +0.003 A 
ATOM     23  C   UNL     1      -3.906 -11.726  10.811  0.00  0.00    +0.018 A 
ATOM     24  C   UNL     1      -4.239  -9.340  10.967  0.00  0.00    +0.011 A 
ATOM     25  C   UNL     1      -4.198 -11.695   9.437  0.00  0.00    -0.017 A 
ATOM     28  C   UNL     1      -4.531  -9.290   9.604  0.00  0.00    +0.009 A 
ATOM     29  C   UNL     1      -4.515 -10.459   8.825  0.00  0.00    -0.018 A 
ATOM     32  C   UNL     1      -4.181 -12.863   8.658  0.00  0.00    +0.008 A 
ATOM     34  C   UNL     1      -4.807 -10.428   7.452  0.00  0.00    +0.008 A 
ATOM     35  C   UNL     1      -4.474 -12.814   7.295  0.00  0.00    +0.001 A 
ATOM     36  C   UNL     1      -4.786 -11.598   6.693  0.00  0.00    +0.001 A 
ENDBRANCH  18  21
ENDBRANCH   9  15
BRANCH  10  16
ATOM     16  C   UNL     1      -8.053 -11.390  16.576  0.00  0.00    +0.123 C 
BRANCH  16   6
ATOM      1  O   UNL     1      -9.241  -8.858  17.228  0.00  0.00    -0.270 OA
ATOM      6  N   UNL     1      -9.266 -11.178  17.303  0.00  0.00    -0.310 N 
ATOM     20  C   UNL     1      -9.774  -9.908  17.577  0.00  0.00    +0.244 C 
ATOM     38  H   UNL     1      -9.711 -12.001  17.696  0.00  0.00    +0.149 HD
BRANCH  20  22
ATOM      2  O   UNL     1     -14.642  -9.293  18.055  0.00  0.00    -0.453 OA
ATOM      3  O   UNL     1     -14.574  -9.685  20.432  0.00  0.00    -0.453 OA
ATOM     22  C   UNL     1     -11.030  -9.857  18.367  0.00  0.00    +0.040 A 
ATOM     26  C   UNL     1     -12.240  -9.582  17.726  0.00  0.00    +0.062 A 
ATOM     27  C   UNL     1     -10.990 -10.085  19.754  0.00  0.00    +0.017 A 
ATOM     30  C   UNL     1     -13.382  -9.545  18.501  0.00  0.00    +0.167 A 
ATOM     31  C   UNL     1     -12.161 -10.042  20.515  0.00  0.00    +0.050 A 
ATOM     33  C   UNL     1     -13.342  -9.768  19.859  0.00  0.00    +0.166 A 
ATOM     37  C   UNL     1     -15.393  -9.384  19.283  0.00  0.00    +0.466 C 
ENDBRANCH  20  22
ENDBRANCH  16   6
ENDBRANCH  10  16
TORSDOF 5
ENDMDL
MODEL 8
REMARK VINA RESULT:      -7.0     26.870     32.078
REMARK  Name = 40779459
REMARK  6 active torsions:
REMARK  status: ('A' for Active; 'I' for Inactive)
REMARK    1  A    between atoms: N_5  and  C_19
REMARK    2  A    between atoms: N_6  and  C_16
REMARK    3  A    between atoms: C_9  and  C_15
REMARK    4  A    between atoms: C_10  and  C_16
REMARK    5  A    between atoms: C_18  and  C_21
REMARK    6  A    between atoms: C_20  and  C_22
REMARK                            x       y       z     vdW  Elec       q    Type
REMARK                         _______ _______ _______ _____ _____    ______ ____
ROOT
ATOM      4  N   UNL     1       9.047   8.441   6.558  0.00  0.00    -0.297 NA
ATOM      8  C   UNL     1      10.075   6.054   6.393  0.00  0.00    +0.002 C 
ATOM      9  C   UNL     1      11.169   7.134   6.169  0.00  0.00    +0.055 C 
ATOM     10  C   UNL     1       8.237   7.602   5.635  0.00  0.00    +0.074 C 
ATOM     11  C   UNL     1       8.942   6.256   5.364  0.00  0.00    +0.024 C 
ATOM     12  C   UNL     1       9.472   6.315   7.789  0.00  0.00    +0.019 C 
ATOM     13  C   UNL     1      10.451   8.510   6.080  0.00  0.00    +0.094 C 
ATOM     14  C   UNL     1       9.043   7.790   7.888  0.00  0.00    +0.085 C 
ENDROOT
BRANCH   9  15
ATOM      5  N   UNL     1      13.417   7.462   5.037  0.00  0.00    -0.270 N 
ATOM      7  N   UNL     1      14.138   7.161   3.943  0.00  0.00    -0.171 NA
ATOM     15  C   UNL     1      12.163   6.926   5.034  0.00  0.00    +0.044 A 
ATOM     17  C   UNL     1      12.054   6.228   3.856  0.00  0.00    +0.053 A 
ATOM     18  C   UNL     1      13.300   6.408   3.225  0.00  0.00    +0.093 A 
ATOM     19  C   UNL     1      14.008   8.285   6.067  0.00  0.00    +0.172 C 
BRANCH  18  21
ATOM     21  C   UNL     1      13.704   5.875   1.951  0.00  0.00    +0.003 A 
ATOM     23  C   UNL     1      14.174   6.730   0.954  0.00  0.00    +0.018 A 
ATOM     24  C   UNL     1      13.626   4.505   1.714  0.00  0.00    +0.011 A 
ATOM     25  C   UNL     1      14.573   6.225  -0.295  0.00  0.00    -0.017 A 
ATOM     28  C   UNL     1      14.017   3.986   0.479  0.00  0.00    +0.009 A 
ATOM     29  C   UNL     1      14.493   4.833  -0.536  0.00  0.00    -0.018 A 
ATOM     32  C   UNL     1      15.048   7.072  -1.309  0.00  0.00    +0.008 A 
ATOM     34  C   UNL     1      14.891   4.328  -1.784  0.00  0.00    +0.008 A 
ATOM     35  C   UNL     1      15.440   6.553  -2.544  0.00  0.00    +0.001 A 
ATOM     36  C   UNL     1      15.361   5.184  -2.780  0.00  0.00    +0.001 A 
ENDBRANCH  18  21
ENDBRANCH   9  15
BRANCH  10  16
ATOM     16  C   UNL     1       7.886   8.333   4.339  0.00  0.00    +0.123 C 
BRANCH  16   6
ATOM      1  O   UNL     1       9.904   9.433   2.618  0.00  0.00    -0.270 OA
ATOM      6  N   UNL     1       8.490   7.692   3.212  0.00  0.00    -0.310 N 
ATOM     20  C   UNL     1       9.468   8.301   2.427  0.00  0.00    +0.244 C 
ATOM     38  H   UNL     1       8.113   6.787   2.946  0.00  0.00    +0.149 HD
BRANCH  20  22
ATOM      2  O   UNL     1      10.262   4.085  -0.004  0.00  0.00    -0.453 OA
ATOM      3  O   UNL     1      11.336   5.214  -1.842  0.00  0.00    -0.453 OA
ATOM     22  C   UNL     1       9.976   7.512   1.276  0.00  0.00    +0.040 A 
ATOM     26  C   UNL     1       9.828   6.123   1.268  0.00  0.00    +0.062 A 
ATOM     27  C   UNL     1      10.603   8.171   0.203  0.00  0.00    +0.017 A 
ATOM     30  C   UNL     1      10.315   5.433   0.177  0.00  0.00    +0.167 A 
ATOM     31  C   UNL     1      11.088   7.448  -0.890  0.00  0.00    +0.050 A 
ATOM     33  C   UNL     1      10.929   6.078  -0.873  0.00  0.00    +0.166 A 
ATOM     37  C   UNL     1      10.910   3.953  -1.286  0.00  0.00    +0.466 C 
ENDBRANCH  20  22
ENDBRANCH  16   6
ENDBRANCH  10  16
TORSDOF 5
ENDMDL
MODEL 9
REMARK VINA RESULT:      -7.0     28.221     30.155
REMARK  Name = 40779459
REMARK  6 active torsions:
REMARK  status: ('A' for Active; 'I' for Inactive)
REMARK    1  A    between atoms: N_5  and  C_19
REMARK    2  A    between atoms: N_6  and  C_16
REMARK    3  A    between atoms: C_9  and  C_15
REMARK    4  A    between atoms: C_10  and  C_16
REMARK    5  A    between atoms: C_18  and  C_21
REMARK    6  A    between atoms: C_20  and  C_22
REMARK                            x       y       z     vdW  Elec       q    Type
REMARK                         _______ _______ _______ _____ _____    ______ ____
ROOT
ATOM      4  N   UNL     1       6.017  -4.601  38.915  0.00  0.00    -0.297 NA
ATOM      8  C   UNL     1       8.040  -6.217  38.634  0.00  0.00    +0.002 C 
ATOM      9  C   UNL     1       7.945  -5.250  37.422  0.00  0.00    +0.055 C 
ATOM     10  C   UNL     1       5.580  -6.005  39.137  0.00  0.00    +0.074 C 
ATOM     11  C   UNL     1       6.712  -6.990  38.775  0.00  0.00    +0.024 C 
ATOM     12  C   UNL     1       8.188  -5.338  39.894  0.00  0.00    +0.019 C 
ATOM     13  C   UNL     1       6.610  -4.463  37.561  0.00  0.00    +0.094 C 
ATOM     14  C   UNL     1       7.064  -4.286  39.914  0.00  0.00    +0.085 C 
ENDROOT
BRANCH   9  15
ATOM      5  N   UNL     1       9.084  -5.376  35.158  0.00  0.00    -0.270 N 
ATOM      7  N   UNL     1       9.085  -6.016  33.976  0.00  0.00    -0.171 NA
ATOM     15  C   UNL     1       8.133  -5.826  36.026  0.00  0.00    +0.044 A 
ATOM     17  C   UNL     1       7.465  -6.829  35.366  0.00  0.00    +0.053 A 
ATOM     18  C   UNL     1       8.095  -6.902  34.109  0.00  0.00    +0.093 A 
ATOM     19  C   UNL     1      10.042  -4.320  35.390  0.00  0.00    +0.172 C 
BRANCH  18  21
ATOM     21  C   UNL     1       7.768  -7.801  33.033  0.00  0.00    +0.003 A 
ATOM     23  C   UNL     1       8.561  -8.923  32.796  0.00  0.00    +0.018 A 
ATOM     24  C   UNL     1       6.658  -7.549  32.230  0.00  0.00    +0.011 A 
ATOM     25  C   UNL     1       8.255  -9.810  31.751  0.00  0.00    -0.017 A 
ATOM     28  C   UNL     1       6.340  -8.419  31.187  0.00  0.00    +0.009 A 
ATOM     29  C   UNL     1       7.128  -9.554  30.934  0.00  0.00    -0.018 A 
ATOM     32  C   UNL     1       9.042 -10.944  31.498  0.00  0.00    +0.008 A 
ATOM     34  C   UNL     1       6.821 -10.440  29.889  0.00  0.00    +0.008 A 
ATOM     35  C   UNL     1       8.723 -11.815  30.454  0.00  0.00    +0.001 A 
ATOM     36  C   UNL     1       7.615 -11.562  29.651  0.00  0.00    +0.001 A 
ENDBRANCH  18  21
ENDBRANCH   9  15
BRANCH  10  16
ATOM     16  C   UNL     1       4.280  -6.335  38.403  0.00  0.00    +0.123 C 
BRANCH  16   6
ATOM      1  O   UNL     1       2.604  -8.635  38.018  0.00  0.00    -0.270 OA
ATOM      6  N   UNL     1       4.481  -7.390  37.458  0.00  0.00    -0.310 N 
ATOM     20  C   UNL     1       3.614  -8.475  37.337  0.00  0.00    +0.244 C 
ATOM     38  H   UNL     1       5.344  -7.365  36.924  0.00  0.00    +0.149 HD
BRANCH  20  22
ATOM      2  O   UNL     1       3.040 -12.825  35.088  0.00  0.00    -0.453 OA
ATOM      3  O   UNL     1       4.877 -12.417  33.582  0.00  0.00    -0.453 OA
ATOM     22  C   UNL     1       3.977  -9.501  36.326  0.00  0.00    +0.040 A 
ATOM     26  C   UNL     1       3.251 -10.692  36.257  0.00  0.00    +0.062 A 
ATOM     27  C   UNL     1       5.049  -9.263  35.448  0.00  0.00    +0.017 A 
ATOM     30  C   UNL     1       3.625 -11.615  35.301  0.00  0.00    +0.167 A 
ATOM     31  C   UNL     1       5.407 -10.214  34.489  0.00  0.00    +0.050 A 
ATOM     33  C   UNL     1       4.675 -11.382  34.442  0.00  0.00    +0.166 A 
ATOM     37  C   UNL     1       3.837 -13.328  33.996  0.00  0.00    +0.466 C 
ENDBRANCH  20  22
ENDBRANCH  16   6
ENDBRANCH  10  16
TORSDOF 5
ENDMDL
MODEL 10
REMARK VINA RESULT:      -6.9     32.543     34.940
REMARK  Name = 40779459
REMARK  6 active torsions:
REMARK  status: ('A' for Active; 'I' for Inactive)
REMARK    1  A    between atoms: N_5  and  C_19
REMARK    2  A    between atoms: N_6  and  C_16
REMARK    3  A    between atoms: C_9  and  C_15
REMARK    4  A    between atoms: C_10  and  C_16
REMARK    5  A    between atoms: C_18  and  C_21
REMARK    6  A    between atoms: C_20  and  C_22
REMARK                            x       y       z     vdW  Elec       q    Type
REMARK                         _______ _______ _______ _____ _____    ______ ____
ROOT
ATOM      4  N   UNL     1      24.864   3.795  24.402  0.00  0.00    -0.297 NA
ATOM      8  C   UNL     1      23.237   3.764  26.436  0.00  0.00    +0.002 C 
ATOM      9  C   UNL     1      23.786   2.338  26.157  0.00  0.00    +0.055 C 
ATOM     10  C   UNL     1      23.596   4.488  24.050  0.00  0.00    +0.074 C 
ATOM     11  C   UNL     1      22.546   4.302  25.164  0.00  0.00    +0.024 C 
ATOM     12  C   UNL     1      24.460   4.667  26.703  0.00  0.00    +0.019 C 
ATOM     13  C   UNL     1      24.580   2.400  24.820  0.00  0.00    +0.094 C 
ATOM     14  C   UNL     1      25.469   4.509  25.551  0.00  0.00    +0.085 C 
ENDROOT
BRANCH   9  15
ATOM      5  N   UNL     1      22.585   0.425  27.314  0.00  0.00    -0.270 N 
ATOM      7  N   UNL     1      21.686  -0.559  27.140  0.00  0.00    -0.171 NA
ATOM     15  C   UNL     1      22.810   1.171  26.195  0.00  0.00    +0.044 A 
ATOM     17  C   UNL     1      22.002   0.638  25.219  0.00  0.00    +0.053 A 
ATOM     18  C   UNL     1      21.334  -0.425  25.858  0.00  0.00    +0.093 A 
ATOM     19  C   UNL     1      23.204   0.595  28.609  0.00  0.00    +0.172 C 
BRANCH  18  21
ATOM     21  C   UNL     1      20.367  -1.313  25.269  0.00  0.00    +0.003 A 
ATOM     23  C   UNL     1      19.183  -0.801  24.737  0.00  0.00    +0.018 A 
ATOM     24  C   UNL     1      20.615  -2.682  25.228  0.00  0.00    +0.011 A 
ATOM     25  C   UNL     1      18.230  -1.655  24.157  0.00  0.00    -0.017 A 
ATOM     28  C   UNL     1      19.679  -3.545  24.657  0.00  0.00    +0.009 A 
ATOM     29  C   UNL     1      18.482  -3.047  24.117  0.00  0.00    -0.018 A 
ATOM     32  C   UNL     1      17.033  -1.157  23.618  0.00  0.00    +0.008 A 
ATOM     34  C   UNL     1      17.529  -3.900  23.538  0.00  0.00    +0.008 A 
ATOM     35  C   UNL     1      16.097  -2.020  23.047  0.00  0.00    +0.001 A 
ATOM     36  C   UNL     1      16.345  -3.389  23.007  0.00  0.00    +0.001 A 
ENDBRANCH  18  21
ENDBRANCH   9  15
BRANCH  10  16
ATOM     16  C   UNL     1      23.059   4.061  22.683  0.00  0.00    +0.123 C 
BRANCH  16   6
ATOM      1  O   UNL     1      22.026   4.687  20.077  0.00  0.00    -0.270 OA
ATOM      6  N   UNL     1      21.826   4.724  22.389  0.00  0.00    -0.310 N 
ATOM     20  C   UNL     1      21.399   4.989  21.089  0.00  0.00    +0.244 C 
ATOM     38  H   UNL     1      21.300   5.079  23.181  0.00  0.00    +0.149 HD
BRANCH  20  22
ATOM      2  O   UNL     1      17.027   5.810  18.962  0.00  0.00    -0.453 OA
ATOM      3  O   UNL     1      16.504   7.617  20.469  0.00  0.00    -0.453 OA
ATOM     22  C   UNL     1      20.107   5.710  20.953  0.00  0.00    +0.040 A 
ATOM     26  C   UNL     1      19.206   5.334  19.954  0.00  0.00    +0.062 A 
ATOM     27  C   UNL     1      19.802   6.764  21.833  0.00  0.00    +0.017 A 
ATOM     30  C   UNL     1      18.019   6.032  19.867  0.00  0.00    +0.167 A 
ATOM     31  C   UNL     1      18.593   7.454  21.723  0.00  0.00    +0.050 A 
ATOM     33  C   UNL     1      17.721   7.064  20.728  0.00  0.00    +0.166 A 
ATOM     37  C   UNL     1      16.070   6.817  19.350  0.00  0.00    +0.466 C 
ENDBRANCH  20  22
ENDBRANCH  16   6
ENDBRANCH  10  16
TORSDOF 5
ENDMDL
