REMARK  Name = 45783488
REMARK  9 active torsions:
REMARK  status: ('A' for Active; 'I' for Inactive)
REMARK    1  A    between atoms: O_2  and  C_27
REMARK    2  A    between atoms: O_2  and  C_28
REMARK    3  A    between atoms: N_3  and  C_13
REMARK    4  A    between atoms: N_8  and  C_25
REMARK    5  A    between atoms: N_8  and  C_26
REMARK    6  A    between atoms: C_9  and  C_14
REMARK    7  A    between atoms: C_13  and  C_15
REMARK    8  A    between atoms: C_16  and  C_19
REMARK    9  A    between atoms: C_26  and  C_27
REMARK                            x       y       z     vdW  Elec       q    Type
REMARK                         _______ _______ _______ _____ _____    ______ ____
ROOT
ATOM      1  O   UNL     1      -2.282   0.400  -2.005  0.00  0.00    -0.336 OA
ATOM      4  N   UNL     1      -1.238   1.139  -0.166  0.00  0.00    -0.190 NA
ATOM      5  N   UNL     1      -0.919   0.143  -2.201  0.00  0.00    -0.056 NA
ATOM     14  C   UNL     1      -2.382   0.987  -0.783  0.00  0.00    +0.245 A 
ATOM     16  C   UNL     1      -0.369   0.607  -1.074  0.00  0.00    +0.204 A 
ENDROOT
BRANCH  16  19
ATOM      7  N   UNL     1       3.251  -0.070  -1.586  0.00  0.00    -0.240 NA
ATOM     19  C   UNL     1       1.042   0.554  -0.826  0.00  0.00    +0.041 A 
ATOM     22  C   UNL     1       1.581   1.047   0.357  0.00  0.00    +0.016 A 
ATOM     23  C   UNL     1       1.912   0.010  -1.758  0.00  0.00    +0.124 A 
ATOM     24  C   UNL     1       2.953   0.982   0.570  0.00  0.00    +0.044 A 
ATOM     25  C   UNL     1       3.738   0.419  -0.424  0.00  0.00    +0.119 A 
BRANCH  25   8
ATOM      8  N   UNL     1       5.134   0.361  -0.193  0.00  0.00    -0.327 N 
ATOM     29  H   UNL     1       5.697  -0.056  -0.926  0.00  0.00    +0.148 HD
BRANCH   8  26
ATOM     26  C   UNL     1       5.739   0.853   1.003  0.00  0.00    +0.131 C 
BRANCH  26  27
ATOM     27  C   UNL     1       7.246   0.679   0.933  0.00  0.00    +0.178 C 
BRANCH  27   2
ATOM      2  O   UNL     1       7.559  -0.704   0.820  0.00  0.00    -0.381 OA
ATOM     28  C   UNL     1       8.962  -0.918   0.758  0.00  0.00    +0.194 C 
ENDBRANCH  27   2
ENDBRANCH  26  27
ENDBRANCH   8  26
ENDBRANCH  25   8
ENDBRANCH  16  19
BRANCH  14   9
ATOM      3  N   UNL     1      -4.146   0.740   0.955  0.00  0.00    -0.287 NA
ATOM      9  C   UNL     1      -3.776   1.368  -0.329  0.00  0.00    +0.146 C 
ATOM     10  C   UNL     1      -3.929   2.880  -0.084  0.00  0.00    +0.030 C 
ATOM     11  C   UNL     1      -4.446   3.002   1.342  0.00  0.00    +0.017 C 
ATOM     12  C   UNL     1      -5.086   1.654   1.606  0.00  0.00    +0.085 C 
BRANCH   3  13
ATOM     13  C   UNL     1      -4.699  -0.599   0.802  0.00  0.00    +0.121 C 
BRANCH  13  15
ATOM      6  N   UNL     1      -2.663  -3.366  -0.787  0.00  0.00    -0.263 NA
ATOM     15  C   UNL     1      -3.623  -1.631   0.596  0.00  0.00    -0.015 A 
ATOM     17  C   UNL     1      -2.619  -1.818   1.540  0.00  0.00    +0.008 A 
ATOM     18  C   UNL     1      -3.600  -2.423  -0.541  0.00  0.00    +0.115 A 
ATOM     20  C   UNL     1      -1.638  -2.779   1.322  0.00  0.00    +0.020 A 
ATOM     21  C   UNL     1      -1.704  -3.520   0.153  0.00  0.00    +0.111 A 
ENDBRANCH  13  15
ENDBRANCH   3  13
ENDBRANCH  14   9
TORSDOF 8
