REMARK  Name = 51137411
REMARK  7 active torsions:
REMARK  status: ('A' for Active; 'I' for Inactive)
REMARK    1  A    between atoms: O_5  and  C_22
REMARK    2  A    between atoms: O_5  and  C_29
REMARK    3  A    between atoms: N_6  and  C_13
REMARK    4  A    between atoms: C_9  and  C_14
REMARK    5  A    between atoms: C_13  and  C_15
REMARK    6  A    between atoms: C_18  and  C_19
REMARK    7  A    between atoms: C_27  and  C_28
REMARK                            x       y       z     vdW  Elec       q    Type
REMARK                         _______ _______ _______ _____ _____    ______ ____
ROOT
ATOM      6  N   UNL     1      -0.845  -0.965  -0.503  0.00  0.00    -0.297 NA
ATOM      9  C   UNL     1       1.072  -2.049   0.303  0.00  0.00    +0.092 C 
ATOM     10  C   UNL     1       0.393  -1.281   1.451  0.00  0.00    +0.029 C 
ATOM     11  C   UNL     1       0.446  -1.472  -0.974  0.00  0.00    +0.097 C 
ATOM     12  C   UNL     1      -0.549  -0.300   0.765  0.00  0.00    +0.085 C 
ENDROOT
BRANCH   9  14
ATOM      4  O   UNL     1       3.144  -0.748   0.202  0.00  0.00    -0.420 OA
ATOM      7  N   UNL     1       3.460  -2.956   0.381  0.00  0.00    -0.112 NA
ATOM      8  N   UNL     1       4.702  -2.349   0.334  0.00  0.00    -0.107 NA
ATOM     14  C   UNL     1       2.582  -1.984   0.301  0.00  0.00    +0.222 A 
ATOM     18  C   UNL     1       4.468  -1.061   0.230  0.00  0.00    +0.248 A 
BRANCH  18  19
ATOM     19  C   UNL     1       5.376   0.046   0.142  0.00  0.00    +0.038 A 
ATOM     23  C   UNL     1       6.753  -0.179   0.163  0.00  0.00    +0.013 A 
ATOM     24  C   UNL     1       4.883   1.346   0.036  0.00  0.00    +0.013 A 
ATOM     25  C   UNL     1       7.636   0.897   0.078  0.00  0.00    +0.004 A 
ATOM     26  C   UNL     1       5.766   2.422  -0.049  0.00  0.00    +0.004 A 
ATOM     27  C   UNL     1       7.143   2.198  -0.028  0.00  0.00    -0.050 A 
ATOM     28  C   UNL     1       8.088   3.348  -0.119  0.00  0.00    +0.044 C 
ENDBRANCH  18  19
ENDBRANCH   9  14
BRANCH   6  13
ATOM     13  C   UNL     1      -1.474  -0.071  -1.465  0.00  0.00    +0.119 C 
BRANCH  13  15
ATOM     15  C   UNL     1      -2.946   0.094  -1.196  0.00  0.00    -0.033 A 
ATOM     16  C   UNL     1      -3.838  -0.919  -1.548  0.00  0.00    +0.008 A 
ATOM     17  C   UNL     1      -3.418   1.262  -0.595  0.00  0.00    +0.008 A 
ATOM     20  C   UNL     1      -5.202  -0.765  -1.299  0.00  0.00    +0.046 A 
ATOM     21  C   UNL     1      -4.781   1.416  -0.346  0.00  0.00    +0.046 A 
ATOM     22  C   UNL     1      -5.673   0.403  -0.698  0.00  0.00    +0.130 A 
BRANCH  22   5
ATOM      5  O   UNL     1      -7.004   0.552  -0.454  0.00  0.00    -0.406 OA
BRANCH   5  29
ATOM      1  F   UNL     1      -8.655   0.198   1.044  0.00  0.00    -0.133 F 
ATOM      2  F   UNL     1      -6.590   0.123   1.754  0.00  0.00    -0.133 F 
ATOM      3  F   UNL     1      -7.510   2.053   1.196  0.00  0.00    -0.133 F 
ATOM     29  C   UNL     1      -7.426   0.741   0.892  0.00  0.00    +0.575 C 
ENDBRANCH   5  29
ENDBRANCH  22   5
ENDBRANCH  13  15
ENDBRANCH   6  13
TORSDOF 6
