REMARK  Name = 51137131
REMARK  6 active torsions:
REMARK  status: ('A' for Active; 'I' for Inactive)
REMARK    1  A    between atoms: S_2  and  C_18
REMARK    2  A    between atoms: S_2  and  C_23
REMARK    3  A    between atoms: N_6  and  C_13
REMARK    4  A    between atoms: C_8  and  C_12
REMARK    5  A    between atoms: C_13  and  C_14
REMARK    6  A    between atoms: C_23  and  C_27
REMARK                            x       y       z     vdW  Elec       q    Type
REMARK                         _______ _______ _______ _____ _____    ______ ____
ROOT
ATOM      3  O   UNL     1       1.449  -2.023   0.549  0.00  0.00    -0.439 OA
ATOM      7  N   UNL     1       1.222   0.173   0.038  0.00  0.00    -0.213 NA
ATOM     12  C   UNL     1       0.627  -0.953   0.366  0.00  0.00    +0.201 A 
ATOM     15  C   UNL     1       2.551  -0.172  -0.002  0.00  0.00    +0.111 A 
ATOM     16  C   UNL     1       2.694  -1.516   0.311  0.00  0.00    +0.155 A 
ATOM     17  C   UNL     1       3.698   0.582  -0.290  0.00  0.00    +0.058 A 
ATOM     18  C   UNL     1       4.941  -0.066  -0.249  0.00  0.00    +0.090 A 
ATOM     21  C   UNL     1       3.907  -2.192   0.362  0.00  0.00    +0.050 A 
ATOM     22  C   UNL     1       5.040  -1.425   0.071  0.00  0.00    +0.030 A 
ENDROOT
BRANCH  12   8
ATOM      6  N   UNL     1      -2.977  -0.525  -0.140  0.00  0.00    -0.297 NA
ATOM      8  C   UNL     1      -0.849  -1.212   0.566  0.00  0.00    +0.090 C 
ATOM      9  C   UNL     1      -1.510  -0.367   1.669  0.00  0.00    +0.029 C 
ATOM     10  C   UNL     1      -1.682  -0.928  -0.692  0.00  0.00    +0.097 C 
ATOM     11  C   UNL     1      -2.652   0.363   0.976  0.00  0.00    +0.085 C 
BRANCH   6  13
ATOM     13  C   UNL     1      -3.827   0.118  -1.131  0.00  0.00    +0.119 C 
BRANCH  13  14
ATOM      1 CL   UNL     1      -7.892   2.770   0.766  0.00  0.00    -0.084 Cl
ATOM     14  C   UNL     1      -5.271   0.131  -0.707  0.00  0.00    -0.032 A 
ATOM     19  C   UNL     1      -5.846   1.307  -0.224  0.00  0.00    +0.025 A 
ATOM     20  C   UNL     1      -6.036  -1.032  -0.799  0.00  0.00    +0.005 A 
ATOM     24  C   UNL     1      -7.184   1.320   0.168  0.00  0.00    +0.041 A 
ATOM     25  C   UNL     1      -7.375  -1.019  -0.407  0.00  0.00    +0.002 A 
ATOM     26  C   UNL     1      -7.949   0.157   0.076  0.00  0.00    +0.020 A 
ENDBRANCH  13  14
ENDBRANCH   6  13
ENDBRANCH  12   8
BRANCH  18   2
ATOM      2  S   UNL     1       6.392   0.843  -0.605  0.00  0.00    -0.003 S 
ATOM      4  O   UNL     1       7.424  -0.080  -1.056  0.00  0.00    -0.169 OA
ATOM      5  O   UNL     1       6.016   1.973  -1.440  0.00  0.00    -0.169 OA
BRANCH   2  23
ATOM     23  C   UNL     1       6.913   1.475   0.973  0.00  0.00    +0.168 C 
ATOM     27  C   UNL     1       8.176   2.298   0.851  0.00  0.00    +0.028 C 
ENDBRANCH   2  23
ENDBRANCH  18   2
TORSDOF 5
