MODEL 1
REMARK VINA RESULT:      -6.4      0.000      0.000
REMARK  Name = 40778256
REMARK  11 active torsions:
REMARK  status: ('A' for Active; 'I' for Inactive)
REMARK    1  A    between atoms: O_2  and  C_8
REMARK    2  A    between atoms: O_3  and  C_9
REMARK    3  A    between atoms: N_5  and  C_12
REMARK    4  A    between atoms: N_5  and  C_15
REMARK    5  A    between atoms: N_6  and  C_16
REMARK    6  A    between atoms: C_10  and  C_12
REMARK    7  A    between atoms: C_11  and  C_13
REMARK    8  A    between atoms: C_13  and  C_14
REMARK    9  A    between atoms: C_15  and  C_17
REMARK   10  A    between atoms: C_16  and  C_18
REMARK   11  A    between atoms: C_16  and  C_19
REMARK                            x       y       z     vdW  Elec       q    Type
REMARK                         _______ _______ _______ _____ _____    ______ ____
ROOT
ATOM      1  O   UNL     1      12.705   8.552  21.950  0.00  0.00    -0.366 OA
ATOM      8  C   UNL     1      11.708   6.723  20.801  0.00  0.00    +0.175 C 
ATOM      9  C   UNL     1      10.622   7.602  21.386  0.00  0.00    +0.175 C 
ATOM     10  C   UNL     1      12.920   7.647  20.843  0.00  0.00    +0.163 C 
ATOM     11  C   UNL     1      11.382   8.342  22.474  0.00  0.00    +0.158 C 
ENDROOT
BRANCH   8   2
ATOM      2  O   UNL     1      11.965   5.614  21.662  0.00  0.00    -0.387 OA
ATOM     24  H   UNL     1      12.329   5.968  22.491  0.00  0.00    +0.210 HD
ENDBRANCH   8   2
BRANCH   9   3
ATOM      3  O   UNL     1       9.530   6.872  21.905  0.00  0.00    -0.387 OA
ATOM     25  H   UNL     1       9.694   6.739  22.854  0.00  0.00    +0.210 HD
ENDBRANCH   9   3
BRANCH  10  12
ATOM     12  C   UNL     1      13.076   8.483  19.580  0.00  0.00    +0.115 C 
BRANCH  12   5
ATOM      5  N   UNL     1      14.445   8.435  19.087  0.00  0.00    -0.308 NA
ATOM     26  H   UNL     1      14.523   9.020  18.255  0.00  0.00    +0.122 HD
BRANCH   5  15
ATOM     15  C   UNL     1      14.837   7.068  18.770  0.00  0.00    +0.136 C 
BRANCH  15  17
ATOM      7  N   UNL     1      16.855   5.709  18.742  0.00  0.00    -0.259 NA
ATOM     17  C   UNL     1      16.193   6.729  19.332  0.00  0.00    +0.055 A 
ATOM     20  C   UNL     1      16.687   7.461  20.399  0.00  0.00    +0.024 A 
ATOM     21  C   UNL     1      17.943   7.124  20.893  0.00  0.00    +0.003 A 
ATOM     22  C   UNL     1      18.071   5.410  19.250  0.00  0.00    +0.111 A 
ATOM     23  C   UNL     1      18.655   6.080  20.313  0.00  0.00    +0.020 A 
ENDBRANCH  15  17
ENDBRANCH   5  15
ENDBRANCH  12   5
ENDBRANCH  10  12
BRANCH  11  13
ATOM     13  C   UNL     1      10.759   9.676  22.843  0.00  0.00    +0.130 C 
BRANCH  13  14
ATOM      4  O   UNL     1      11.571  11.549  21.545  0.00  0.00    -0.276 OA
ATOM      6  N   UNL     1      12.629  11.012  23.543  0.00  0.00    -0.313 N 
ATOM     14  C   UNL     1      11.676  10.848  22.548  0.00  0.00    +0.216 C 
ATOM     27  H   UNL     1      12.590  10.411  24.363  0.00  0.00    +0.149 HD
BRANCH   6  16
ATOM     16  C   UNL     1      13.630  12.053  23.514  0.00  0.00    +0.067 C 
ATOM     18  C   UNL     1      14.891  11.595  24.235  0.00  0.00    +0.027 C 
ATOM     19  C   UNL     1      13.084  13.338  24.121  0.00  0.00    +0.027 C 
ENDBRANCH   6  16
ENDBRANCH  13  14
ENDBRANCH  11  13
TORSDOF 9
ENDMDL
MODEL 2
REMARK VINA RESULT:      -6.3      2.275      4.660
REMARK  Name = 40778256
REMARK  11 active torsions:
REMARK  status: ('A' for Active; 'I' for Inactive)
REMARK    1  A    between atoms: O_2  and  C_8
REMARK    2  A    between atoms: O_3  and  C_9
REMARK    3  A    between atoms: N_5  and  C_12
REMARK    4  A    between atoms: N_5  and  C_15
REMARK    5  A    between atoms: N_6  and  C_16
REMARK    6  A    between atoms: C_10  and  C_12
REMARK    7  A    between atoms: C_11  and  C_13
REMARK    8  A    between atoms: C_13  and  C_14
REMARK    9  A    between atoms: C_15  and  C_17
REMARK   10  A    between atoms: C_16  and  C_18
REMARK   11  A    between atoms: C_16  and  C_19
REMARK                            x       y       z     vdW  Elec       q    Type
REMARK                         _______ _______ _______ _____ _____    ______ ____
ROOT
ATOM      1  O   UNL     1      11.784   8.651  20.229  0.00  0.00    -0.366 OA
ATOM      8  C   UNL     1      10.993   7.626  22.224  0.00  0.00    +0.175 C 
ATOM      9  C   UNL     1      11.942   6.682  21.516  0.00  0.00    +0.175 C 
ATOM     10  C   UNL     1      11.320   8.960  21.564  0.00  0.00    +0.163 C 
ATOM     11  C   UNL     1      11.908   7.225  20.097  0.00  0.00    +0.158 C 
ENDROOT
BRANCH   8   2
ATOM      2  O   UNL     1       9.640   7.296  21.911  0.00  0.00    -0.387 OA
ATOM     24  H   UNL     1       9.315   7.966  21.285  0.00  0.00    +0.210 HD
ENDBRANCH   8   2
BRANCH   9   3
ATOM      3  O   UNL     1      11.536   5.331  21.576  0.00  0.00    -0.387 OA
ATOM     25  H   UNL     1      10.592   5.300  21.347  0.00  0.00    +0.210 HD
ENDBRANCH   9   3
BRANCH  10  12
ATOM     12  C   UNL     1      12.429   9.722  22.277  0.00  0.00    +0.115 C 
BRANCH  12   5
ATOM      5  N   UNL     1      13.616   9.825  21.440  0.00  0.00    -0.308 NA
ATOM     26  H   UNL     1      13.662   9.015  20.821  0.00  0.00    +0.122 HD
BRANCH   5  15
ATOM     15  C   UNL     1      14.822   9.897  22.253  0.00  0.00    +0.136 C 
BRANCH  15  17
ATOM      7  N   UNL     1      17.082   9.358  21.530  0.00  0.00    -0.259 NA
ATOM     17  C   UNL     1      15.850   8.884  21.822  0.00  0.00    +0.055 A 
ATOM     20  C   UNL     1      15.495   7.547  21.748  0.00  0.00    +0.024 A 
ATOM     21  C   UNL     1      16.468   6.637  21.349  0.00  0.00    +0.003 A 
ATOM     22  C   UNL     1      18.001   8.444  21.145  0.00  0.00    +0.111 A 
ATOM     23  C   UNL     1      17.747   7.086  21.040  0.00  0.00    +0.020 A 
ENDBRANCH  15  17
ENDBRANCH   5  15
ENDBRANCH  12   5
ENDBRANCH  10  12
BRANCH  11  13
ATOM     13  C   UNL     1      13.153   6.892  19.295  0.00  0.00    +0.130 C 
BRANCH  13  14
ATOM      4  O   UNL     1      14.617   8.693  18.614  0.00  0.00    -0.276 OA
ATOM      6  N   UNL     1      12.715   8.242  17.357  0.00  0.00    -0.313 N 
ATOM     14  C   UNL     1      13.599   8.039  18.407  0.00  0.00    +0.216 C 
ATOM     27  H   UNL     1      11.932   7.604  17.244  0.00  0.00    +0.149 HD
BRANCH   6  16
ATOM     16  C   UNL     1      12.898   9.272  16.361  0.00  0.00    +0.067 C 
ATOM     18  C   UNL     1      11.633   9.433  15.528  0.00  0.00    +0.027 C 
ATOM     19  C   UNL     1      14.101   8.959  15.481  0.00  0.00    +0.027 C 
ENDBRANCH   6  16
ENDBRANCH  13  14
ENDBRANCH  11  13
TORSDOF 9
ENDMDL
MODEL 3
REMARK VINA RESULT:      -5.9     29.805     31.033
REMARK  Name = 40778256
REMARK  11 active torsions:
REMARK  status: ('A' for Active; 'I' for Inactive)
REMARK    1  A    between atoms: O_2  and  C_8
REMARK    2  A    between atoms: O_3  and  C_9
REMARK    3  A    between atoms: N_5  and  C_12
REMARK    4  A    between atoms: N_5  and  C_15
REMARK    5  A    between atoms: N_6  and  C_16
REMARK    6  A    between atoms: C_10  and  C_12
REMARK    7  A    between atoms: C_11  and  C_13
REMARK    8  A    between atoms: C_13  and  C_14
REMARK    9  A    between atoms: C_15  and  C_17
REMARK   10  A    between atoms: C_16  and  C_18
REMARK   11  A    between atoms: C_16  and  C_19
REMARK                            x       y       z     vdW  Elec       q    Type
REMARK                         _______ _______ _______ _____ _____    ______ ____
ROOT
ATOM      1  O   UNL     1     -13.669   2.551  31.580  0.00  0.00    -0.366 OA
ATOM      8  C   UNL     1     -14.220   0.900  29.959  0.00  0.00    +0.175 C 
ATOM      9  C   UNL     1     -14.943   0.594  31.254  0.00  0.00    +0.175 C 
ATOM     10  C   UNL     1     -13.821   2.358  30.155  0.00  0.00    +0.163 C 
ATOM     11  C   UNL     1     -14.101   1.360  32.261  0.00  0.00    +0.158 C 
ENDROOT
BRANCH   8   2
ATOM      2  O   UNL     1     -13.027   0.123  29.862  0.00  0.00    -0.387 OA
ATOM     24  H   UNL     1     -13.065  -0.365  29.022  0.00  0.00    +0.210 HD
ENDBRANCH   8   2
BRANCH   9   3
ATOM      3  O   UNL     1     -15.000  -0.785  31.551  0.00  0.00    -0.387 OA
ATOM     25  H   UNL     1     -15.915  -1.077  31.405  0.00  0.00    +0.210 HD
ENDBRANCH   9   3
BRANCH  10  12
ATOM     12  C   UNL     1     -14.878   3.337  29.662  0.00  0.00    +0.115 C 
BRANCH  12   5
ATOM      5  N   UNL     1     -15.042   3.247  28.218  0.00  0.00    -0.308 NA
ATOM     26  H   UNL     1     -14.655   4.085  27.783  0.00  0.00    +0.122 HD
BRANCH   5  15
ATOM     15  C   UNL     1     -16.447   3.106  27.861  0.00  0.00    +0.136 C 
BRANCH  15  17
ATOM      7  N   UNL     1     -15.820   3.653  25.575  0.00  0.00    -0.259 NA
ATOM     17  C   UNL     1     -16.633   2.931  26.376  0.00  0.00    +0.055 A 
ATOM     20  C   UNL     1     -17.605   2.059  25.913  0.00  0.00    +0.024 A 
ATOM     21  C   UNL     1     -17.751   1.919  24.537  0.00  0.00    +0.003 A 
ATOM     22  C   UNL     1     -15.991   3.492  24.243  0.00  0.00    +0.111 A 
ATOM     23  C   UNL     1     -16.932   2.646  23.679  0.00  0.00    +0.020 A 
ENDBRANCH  15  17
ENDBRANCH   5  15
ENDBRANCH  12   5
ENDBRANCH  10  12
BRANCH  11  13
ATOM     13  C   UNL     1     -14.862   1.737  33.519  0.00  0.00    +0.130 C 
BRANCH  13  14
ATOM      4  O   UNL     1     -16.429   3.545  33.162  0.00  0.00    -0.276 OA
ATOM      6  N   UNL     1     -14.301   4.032  33.958  0.00  0.00    -0.313 N 
ATOM     14  C   UNL     1     -15.309   3.187  33.517  0.00  0.00    +0.216 C 
ATOM     27  H   UNL     1     -13.428   3.625  34.285  0.00  0.00    +0.149 HD
BRANCH   6  16
ATOM     16  C   UNL     1     -14.457   5.465  34.053  0.00  0.00    +0.067 C 
ATOM     18  C   UNL     1     -13.970   6.136  32.776  0.00  0.00    +0.027 C 
ATOM     19  C   UNL     1     -13.722   6.003  35.274  0.00  0.00    +0.027 C 
ENDBRANCH   6  16
ENDBRANCH  13  14
ENDBRANCH  11  13
TORSDOF 9
ENDMDL
MODEL 4
REMARK VINA RESULT:      -5.6     25.746     27.901
REMARK  Name = 40778256
REMARK  11 active torsions:
REMARK  status: ('A' for Active; 'I' for Inactive)
REMARK    1  A    between atoms: O_2  and  C_8
REMARK    2  A    between atoms: O_3  and  C_9
REMARK    3  A    between atoms: N_5  and  C_12
REMARK    4  A    between atoms: N_5  and  C_15
REMARK    5  A    between atoms: N_6  and  C_16
REMARK    6  A    between atoms: C_10  and  C_12
REMARK    7  A    between atoms: C_11  and  C_13
REMARK    8  A    between atoms: C_13  and  C_14
REMARK    9  A    between atoms: C_15  and  C_17
REMARK   10  A    between atoms: C_16  and  C_18
REMARK   11  A    between atoms: C_16  and  C_19
REMARK                            x       y       z     vdW  Elec       q    Type
REMARK                         _______ _______ _______ _____ _____    ______ ____
ROOT
ATOM      1  O   UNL     1      -3.661 -12.187  14.716  0.00  0.00    -0.366 OA
ATOM      8  C   UNL     1      -3.029 -10.621  16.392  0.00  0.00    +0.175 C 
ATOM      9  C   UNL     1      -2.010 -10.598  15.272  0.00  0.00    +0.175 C 
ATOM     10  C   UNL     1      -4.213 -11.315  15.729  0.00  0.00    +0.163 C 
ATOM     11  C   UNL     1      -2.246 -11.948  14.617  0.00  0.00    +0.158 C 
ENDROOT
BRANCH   8   2
ATOM      2  O   UNL     1      -2.571 -11.450  17.461  0.00  0.00    -0.387 OA
ATOM     24  H   UNL     1      -1.713 -11.099  17.753  0.00  0.00    +0.210 HD
ENDBRANCH   8   2
BRANCH   9   3
ATOM      3  O   UNL     1      -0.681 -10.455  15.728  0.00  0.00    -0.387 OA
ATOM     25  H   UNL     1      -0.709 -10.408  16.698  0.00  0.00    +0.210 HD
ENDBRANCH   9   3
BRANCH  10  12
ATOM     12  C   UNL     1      -5.163 -10.344  15.040  0.00  0.00    +0.115 C 
BRANCH  12   5
ATOM      5  N   UNL     1      -5.658  -9.343  15.976  0.00  0.00    -0.308 NA
ATOM     26  H   UNL     1      -5.059  -9.331  16.801  0.00  0.00    +0.122 HD
BRANCH   5  15
ATOM     15  C   UNL     1      -7.033  -9.627  16.363  0.00  0.00    +0.136 C 
BRANCH  15  17
ATOM      7  N   UNL     1      -8.036 -11.508  17.536  0.00  0.00    -0.259 NA
ATOM     17  C   UNL     1      -7.101 -10.533  17.565  0.00  0.00    +0.055 A 
ATOM     20  C   UNL     1      -6.223 -10.331  18.617  0.00  0.00    +0.024 A 
ATOM     21  C   UNL     1      -6.310 -11.186  19.710  0.00  0.00    +0.003 A 
ATOM     22  C   UNL     1      -8.092 -12.319  18.616  0.00  0.00    +0.111 A 
ATOM     23  C   UNL     1      -7.260 -12.201  19.718  0.00  0.00    +0.020 A 
ENDBRANCH  15  17
ENDBRANCH   5  15
ENDBRANCH  12   5
ENDBRANCH  10  12
BRANCH  11  13
ATOM     13  C   UNL     1      -1.820 -11.995  13.161  0.00  0.00    +0.130 C 
BRANCH  13  14
ATOM      4  O   UNL     1      -1.375  -9.814  12.214  0.00  0.00    -0.276 OA
ATOM      6  N   UNL     1      -3.496 -10.736  11.987  0.00  0.00    -0.313 N 
ATOM     14  C   UNL     1      -2.174 -10.725  12.409  0.00  0.00    +0.216 C 
ATOM     27  H   UNL     1      -4.056 -11.569  12.150  0.00  0.00    +0.149 HD
BRANCH   6  16
ATOM     16  C   UNL     1      -4.097  -9.650  11.249  0.00  0.00    +0.067 C 
ATOM     18  C   UNL     1      -5.608  -9.654  11.438  0.00  0.00    +0.027 C 
ATOM     19  C   UNL     1      -3.726  -9.734   9.774  0.00  0.00    +0.027 C 
ENDBRANCH   6  16
ENDBRANCH  13  14
ENDBRANCH  11  13
TORSDOF 9
ENDMDL
MODEL 5
REMARK VINA RESULT:      -5.6     26.808     28.092
REMARK  Name = 40778256
REMARK  11 active torsions:
REMARK  status: ('A' for Active; 'I' for Inactive)
REMARK    1  A    between atoms: O_2  and  C_8
REMARK    2  A    between atoms: O_3  and  C_9
REMARK    3  A    between atoms: N_5  and  C_12
REMARK    4  A    between atoms: N_5  and  C_15
REMARK    5  A    between atoms: N_6  and  C_16
REMARK    6  A    between atoms: C_10  and  C_12
REMARK    7  A    between atoms: C_11  and  C_13
REMARK    8  A    between atoms: C_13  and  C_14
REMARK    9  A    between atoms: C_15  and  C_17
REMARK   10  A    between atoms: C_16  and  C_18
REMARK   11  A    between atoms: C_16  and  C_19
REMARK                            x       y       z     vdW  Elec       q    Type
REMARK                         _______ _______ _______ _____ _____    ______ ____
ROOT
ATOM      1  O   UNL     1      -5.443 -10.067  17.911  0.00  0.00    -0.366 OA
ATOM      8  C   UNL     1      -4.291 -11.761  16.702  0.00  0.00    +0.175 C 
ATOM      9  C   UNL     1      -5.042 -12.390  17.857  0.00  0.00    +0.175 C 
ATOM     10  C   UNL     1      -4.968 -10.401  16.586  0.00  0.00    +0.163 C 
ATOM     11  C   UNL     1      -5.239 -11.198  18.777  0.00  0.00    +0.158 C 
ENDROOT
BRANCH   8   2
ATOM      2  O   UNL     1      -2.925 -11.547  17.057  0.00  0.00    -0.387 OA
ATOM     24  H   UNL     1      -2.712 -12.164  17.779  0.00  0.00    +0.210 HD
ENDBRANCH   8   2
BRANCH   9   3
ATOM      3  O   UNL     1      -4.328 -13.433  18.487  0.00  0.00    -0.387 OA
ATOM     25  H   UNL     1      -4.305 -13.236  19.438  0.00  0.00    +0.210 HD
ENDBRANCH   9   3
BRANCH  10  12
ATOM     12  C   UNL     1      -6.169 -10.410  15.650  0.00  0.00    +0.115 C 
BRANCH  12   5
ATOM      5  N   UNL     1      -5.892  -9.655  14.436  0.00  0.00    -0.308 NA
ATOM     26  H   UNL     1      -6.613  -8.945  14.310  0.00  0.00    +0.122 HD
BRANCH   5  15
ATOM     15  C   UNL     1      -5.852 -10.533  13.274  0.00  0.00    +0.136 C 
BRANCH  15  17
ATOM      7  N   UNL     1      -3.496 -10.627  12.673  0.00  0.00    -0.259 NA
ATOM     17  C   UNL     1      -4.726 -10.175  12.340  0.00  0.00    +0.055 A 
ATOM     20  C   UNL     1      -4.996  -9.420  11.210  0.00  0.00    +0.024 A 
ATOM     21  C   UNL     1      -3.934  -9.108  10.367  0.00  0.00    +0.003 A 
ATOM     22  C   UNL     1      -2.490 -10.303  11.830  0.00  0.00    +0.111 A 
ATOM     23  C   UNL     1      -2.654  -9.555  10.676  0.00  0.00    +0.020 A 
ENDBRANCH  15  17
ENDBRANCH   5  15
ENDBRANCH  12   5
ENDBRANCH  10  12
BRANCH  11  13
ATOM     13  C   UNL     1      -6.427 -11.347  19.711  0.00  0.00    +0.130 C 
BRANCH  13  14
ATOM      4  O   UNL     1      -8.324 -12.427  18.668  0.00  0.00    -0.276 OA
ATOM      6  N   UNL     1      -8.209 -10.106  18.683  0.00  0.00    -0.313 N 
ATOM     14  C   UNL     1      -7.750 -11.384  18.969  0.00  0.00    +0.216 C 
ATOM     27  H   UNL     1      -7.684  -9.307  19.031  0.00  0.00    +0.149 HD
BRANCH   6  16
ATOM     16  C   UNL     1      -9.445  -9.850  17.982  0.00  0.00    +0.067 C 
ATOM     18  C   UNL     1      -9.358  -8.536  17.217  0.00  0.00    +0.027 C 
ATOM     19  C   UNL     1     -10.620  -9.846  18.951  0.00  0.00    +0.027 C 
ENDBRANCH   6  16
ENDBRANCH  13  14
ENDBRANCH  11  13
TORSDOF 9
ENDMDL
MODEL 6
REMARK VINA RESULT:      -5.4     14.130     16.930
REMARK  Name = 40778256
REMARK  11 active torsions:
REMARK  status: ('A' for Active; 'I' for Inactive)
REMARK    1  A    between atoms: O_2  and  C_8
REMARK    2  A    between atoms: O_3  and  C_9
REMARK    3  A    between atoms: N_5  and  C_12
REMARK    4  A    between atoms: N_5  and  C_15
REMARK    5  A    between atoms: N_6  and  C_16
REMARK    6  A    between atoms: C_10  and  C_12
REMARK    7  A    between atoms: C_11  and  C_13
REMARK    8  A    between atoms: C_13  and  C_14
REMARK    9  A    between atoms: C_15  and  C_17
REMARK   10  A    between atoms: C_16  and  C_18
REMARK   11  A    between atoms: C_16  and  C_19
REMARK                            x       y       z     vdW  Elec       q    Type
REMARK                         _______ _______ _______ _____ _____    ______ ____
ROOT
ATOM      1  O   UNL     1       9.591   5.891   5.655  0.00  0.00    -0.366 OA
ATOM      8  C   UNL     1      10.749   6.395   7.671  0.00  0.00    +0.175 C 
ATOM      9  C   UNL     1      11.672   6.620   6.491  0.00  0.00    +0.175 C 
ATOM     10  C   UNL     1       9.380   6.372   7.002  0.00  0.00    +0.163 C 
ATOM     11  C   UNL     1      11.005   5.776   5.418  0.00  0.00    +0.158 C 
ENDROOT
BRANCH   8   2
ATOM      2  O   UNL     1      10.984   5.110   8.245  0.00  0.00    -0.387 OA
ATOM     24  H   UNL     1      11.597   5.232   8.990  0.00  0.00    +0.210 HD
ENDBRANCH   8   2
BRANCH   9   3
ATOM      3  O   UNL     1      13.002   6.213   6.735  0.00  0.00    -0.387 OA
ATOM     25  H   UNL     1      13.066   5.977   7.675  0.00  0.00    +0.210 HD
ENDBRANCH   9   3
BRANCH  10  12
ATOM     12  C   UNL     1       8.738   7.749   6.910  0.00  0.00    +0.115 C 
BRANCH  12   5
ATOM      5  N   UNL     1       9.030   8.543   8.096  0.00  0.00    -0.308 NA
ATOM     26  H   UNL     1       8.200   8.583   8.686  0.00  0.00    +0.122 HD
BRANCH   5  15
ATOM     15  C   UNL     1       9.445   9.891   7.731  0.00  0.00    +0.136 C 
BRANCH  15  17
ATOM      7  N   UNL     1       8.989  11.005   9.845  0.00  0.00    -0.259 NA
ATOM     17  C   UNL     1       9.922  10.674   8.926  0.00  0.00    +0.055 A 
ATOM     20  C   UNL     1      11.263  11.008   9.025  0.00  0.00    +0.024 A 
ATOM     21  C   UNL     1      11.672  11.730  10.142  0.00  0.00    +0.003 A 
ATOM     22  C   UNL     1       9.424  11.706  10.916  0.00  0.00    +0.111 A 
ATOM     23  C   UNL     1      10.741  12.089  11.110  0.00  0.00    +0.020 A 
ENDBRANCH  15  17
ENDBRANCH   5  15
ENDBRANCH  12   5
ENDBRANCH  10  12
BRANCH  11  13
ATOM     13  C   UNL     1      11.326   6.233   4.006  0.00  0.00    +0.130 C 
BRANCH  13  14
ATOM      4  O   UNL     1      10.410   4.385   2.742  0.00  0.00    -0.276 OA
ATOM      6  N   UNL     1      12.656   4.926   2.491  0.00  0.00    -0.313 N 
ATOM     14  C   UNL     1      11.383   5.081   3.020  0.00  0.00    +0.216 C 
ATOM     27  H   UNL     1      13.378   5.596   2.745  0.00  0.00    +0.149 HD
BRANCH   6  16
ATOM     16  C   UNL     1      12.991   3.903   1.527  0.00  0.00    +0.067 C 
ATOM     18  C   UNL     1      14.443   3.474   1.695  0.00  0.00    +0.027 C 
ATOM     19  C   UNL     1      12.721   4.393   0.111  0.00  0.00    +0.027 C 
ENDBRANCH   6  16
ENDBRANCH  13  14
ENDBRANCH  11  13
TORSDOF 9
ENDMDL
MODEL 7
REMARK VINA RESULT:      -5.3     26.137     28.302
REMARK  Name = 40778256
REMARK  11 active torsions:
REMARK  status: ('A' for Active; 'I' for Inactive)
REMARK    1  A    between atoms: O_2  and  C_8
REMARK    2  A    between atoms: O_3  and  C_9
REMARK    3  A    between atoms: N_5  and  C_12
REMARK    4  A    between atoms: N_5  and  C_15
REMARK    5  A    between atoms: N_6  and  C_16
REMARK    6  A    between atoms: C_10  and  C_12
REMARK    7  A    between atoms: C_11  and  C_13
REMARK    8  A    between atoms: C_13  and  C_14
REMARK    9  A    between atoms: C_15  and  C_17
REMARK   10  A    between atoms: C_16  and  C_18
REMARK   11  A    between atoms: C_16  and  C_19
REMARK                            x       y       z     vdW  Elec       q    Type
REMARK                         _______ _______ _______ _____ _____    ______ ____
ROOT
ATOM      1  O   UNL     1      -4.308 -12.080  14.911  0.00  0.00    -0.366 OA
ATOM      8  C   UNL     1      -3.567 -10.803  16.777  0.00  0.00    +0.175 C 
ATOM      9  C   UNL     1      -2.454 -10.891  15.754  0.00  0.00    +0.175 C 
ATOM     10  C   UNL     1      -4.787 -11.198  15.953  0.00  0.00    +0.163 C 
ATOM     11  C   UNL     1      -2.871 -12.114  14.955  0.00  0.00    +0.158 C 
ENDROOT
BRANCH   8   2
ATOM      2  O   UNL     1      -3.383 -11.786  17.795  0.00  0.00    -0.387 OA
ATOM     24  H   UNL     1      -2.554 -11.573  18.257  0.00  0.00    +0.210 HD
ENDBRANCH   8   2
BRANCH   9   3
ATOM      3  O   UNL     1      -1.175 -11.046  16.331  0.00  0.00    -0.387 OA
ATOM     25  H   UNL     1      -1.303 -11.347  17.246  0.00  0.00    +0.210 HD
ENDBRANCH   9   3
BRANCH  10  12
ATOM     12  C   UNL     1      -5.464 -10.010  15.283  0.00  0.00    +0.115 C 
BRANCH  12   5
ATOM      5  N   UNL     1      -6.233  -9.234  16.247  0.00  0.00    -0.308 NA
ATOM     26  H   UNL     1      -5.591  -8.730  16.859  0.00  0.00    +0.122 HD
BRANCH   5  15
ATOM     15  C   UNL     1      -7.099 -10.097  17.038  0.00  0.00    +0.136 C 
BRANCH  15  17
ATOM      7  N   UNL     1      -8.787  -8.464  16.403  0.00  0.00    -0.259 NA
ATOM     17  C   UNL     1      -8.478  -9.512  17.198  0.00  0.00    +0.055 A 
ATOM     20  C   UNL     1      -9.345 -10.064  18.127  0.00  0.00    +0.024 A 
ATOM     21  C   UNL     1     -10.612  -9.502  18.248  0.00  0.00    +0.003 A 
ATOM     22  C   UNL     1     -10.026  -7.944  16.550  0.00  0.00    +0.111 A 
ATOM     23  C   UNL     1     -10.967  -8.422  17.448  0.00  0.00    +0.020 A 
ENDBRANCH  15  17
ENDBRANCH   5  15
ENDBRANCH  12   5
ENDBRANCH  10  12
BRANCH  11  13
ATOM     13  C   UNL     1      -2.316 -12.129  13.542  0.00  0.00    +0.130 C 
BRANCH  13  14
ATOM      4  O   UNL     1      -1.629  -9.921  12.831  0.00  0.00    -0.276 OA
ATOM      6  N   UNL     1      -3.725 -10.710  12.210  0.00  0.00    -0.313 N 
ATOM     14  C   UNL     1      -2.489 -10.798  12.835  0.00  0.00    +0.216 C 
ATOM     27  H   UNL     1      -4.341 -11.519  12.226  0.00  0.00    +0.149 HD
BRANCH   6  16
ATOM     16  C   UNL     1      -4.151  -9.549  11.465  0.00  0.00    +0.067 C 
ATOM     18  C   UNL     1      -5.662  -9.383  11.562  0.00  0.00    +0.027 C 
ATOM     19  C   UNL     1      -3.701  -9.649  10.013  0.00  0.00    +0.027 C 
ENDBRANCH   6  16
ENDBRANCH  13  14
ENDBRANCH  11  13
TORSDOF 9
ENDMDL
MODEL 8
REMARK VINA RESULT:      -5.3     26.486     28.114
REMARK  Name = 40778256
REMARK  11 active torsions:
REMARK  status: ('A' for Active; 'I' for Inactive)
REMARK    1  A    between atoms: O_2  and  C_8
REMARK    2  A    between atoms: O_3  and  C_9
REMARK    3  A    between atoms: N_5  and  C_12
REMARK    4  A    between atoms: N_5  and  C_15
REMARK    5  A    between atoms: N_6  and  C_16
REMARK    6  A    between atoms: C_10  and  C_12
REMARK    7  A    between atoms: C_11  and  C_13
REMARK    8  A    between atoms: C_13  and  C_14
REMARK    9  A    between atoms: C_15  and  C_17
REMARK   10  A    between atoms: C_16  and  C_18
REMARK   11  A    between atoms: C_16  and  C_19
REMARK                            x       y       z     vdW  Elec       q    Type
REMARK                         _______ _______ _______ _____ _____    ______ ____
ROOT
ATOM      1  O   UNL     1      -6.449  -9.671  17.004  0.00  0.00    -0.366 OA
ATOM      8  C   UNL     1      -6.820 -10.922  18.993  0.00  0.00    +0.175 C 
ATOM      9  C   UNL     1      -8.153 -10.568  18.365  0.00  0.00    +0.175 C 
ATOM     10  C   UNL     1      -5.854 -10.693  17.837  0.00  0.00    +0.163 C 
ATOM     11  C   UNL     1      -7.772  -9.385  17.490  0.00  0.00    +0.158 C 
ENDROOT
BRANCH   8   2
ATOM      2  O   UNL     1      -6.499  -9.995  20.029  0.00  0.00    -0.387 OA
ATOM     24  H   UNL     1      -6.265 -10.512  20.819  0.00  0.00    +0.210 HD
ENDBRANCH   8   2
BRANCH   9   3
ATOM      3  O   UNL     1      -9.144 -10.229  19.311  0.00  0.00    -0.387 OA
ATOM     25  H   UNL     1      -9.734  -9.578  18.894  0.00  0.00    +0.210 HD
ENDBRANCH   9   3
BRANCH  10  12
ATOM     12  C   UNL     1      -5.649 -11.933  16.977  0.00  0.00    +0.115 C 
BRANCH  12   5
ATOM      5  N   UNL     1      -4.254 -12.351  16.986  0.00  0.00    -0.308 NA
ATOM     26  H   UNL     1      -3.998 -12.646  17.928  0.00  0.00    +0.122 HD
BRANCH   5  15
ATOM     15  C   UNL     1      -3.382 -11.268  16.552  0.00  0.00    +0.136 C 
BRANCH  15  17
ATOM      7  N   UNL     1      -2.956 -12.730  14.655  0.00  0.00    -0.259 NA
ATOM     17  C   UNL     1      -2.897 -11.470  15.141  0.00  0.00    +0.055 A 
ATOM     20  C   UNL     1      -2.425 -10.383  14.423  0.00  0.00    +0.024 A 
ATOM     21  C   UNL     1      -1.985 -10.604  13.122  0.00  0.00    +0.003 A 
ATOM     22  C   UNL     1      -2.520 -12.905  13.387  0.00  0.00    +0.111 A 
ATOM     23  C   UNL     1      -2.031 -11.886  12.587  0.00  0.00    +0.020 A 
ENDBRANCH  15  17
ENDBRANCH   5  15
ENDBRANCH  12   5
ENDBRANCH  10  12
BRANCH  11  13
ATOM     13  C   UNL     1      -8.714  -9.175  16.318  0.00  0.00    +0.130 C 
BRANCH  13  14
ATOM      4  O   UNL     1      -8.815 -11.199  14.997  0.00  0.00    -0.276 OA
ATOM      6  N   UNL     1      -7.519  -9.422  14.248  0.00  0.00    -0.313 N 
ATOM     14  C   UNL     1      -8.376 -10.061  15.133  0.00  0.00    +0.216 C 
ATOM     27  H   UNL     1      -7.261  -8.454  14.427  0.00  0.00    +0.149 HD
BRANCH   6  16
ATOM     16  C   UNL     1      -7.035 -10.038  13.034  0.00  0.00    +0.067 C 
ATOM     18  C   UNL     1      -5.975 -11.082  13.357  0.00  0.00    +0.027 C 
ATOM     19  C   UNL     1      -6.496  -8.983  12.077  0.00  0.00    +0.027 C 
ENDBRANCH   6  16
ENDBRANCH  13  14
ENDBRANCH  11  13
TORSDOF 9
ENDMDL
MODEL 9
REMARK VINA RESULT:      -5.2     25.970     28.729
REMARK  Name = 40778256
REMARK  11 active torsions:
REMARK  status: ('A' for Active; 'I' for Inactive)
REMARK    1  A    between atoms: O_2  and  C_8
REMARK    2  A    between atoms: O_3  and  C_9
REMARK    3  A    between atoms: N_5  and  C_12
REMARK    4  A    between atoms: N_5  and  C_15
REMARK    5  A    between atoms: N_6  and  C_16
REMARK    6  A    between atoms: C_10  and  C_12
REMARK    7  A    between atoms: C_11  and  C_13
REMARK    8  A    between atoms: C_13  and  C_14
REMARK    9  A    between atoms: C_15  and  C_17
REMARK   10  A    between atoms: C_16  and  C_18
REMARK   11  A    between atoms: C_16  and  C_19
REMARK                            x       y       z     vdW  Elec       q    Type
REMARK                         _______ _______ _______ _____ _____    ______ ____
ROOT
ATOM      1  O   UNL     1      -4.927 -11.194  16.179  0.00  0.00    -0.366 OA
ATOM      8  C   UNL     1      -5.611 -11.886  18.349  0.00  0.00    +0.175 C 
ATOM      9  C   UNL     1      -4.158 -11.463  18.391  0.00  0.00    +0.175 C 
ATOM     10  C   UNL     1      -6.086 -11.262  17.041  0.00  0.00    +0.163 C 
ATOM     11  C   UNL     1      -3.763 -11.583  16.929  0.00  0.00    +0.158 C 
ENDROOT
BRANCH   8   2
ATOM      2  O   UNL     1      -5.711 -13.304  18.226  0.00  0.00    -0.387 OA
ATOM     24  H   UNL     1      -6.594 -13.504  17.870  0.00  0.00    +0.210 HD
ENDBRANCH   8   2
BRANCH   9   3
ATOM      3  O   UNL     1      -3.361 -12.279  19.223  0.00  0.00    -0.387 OA
ATOM     25  H   UNL     1      -2.432 -12.087  19.016  0.00  0.00    +0.210 HD
ENDBRANCH   9   3
BRANCH  10  12
ATOM     12  C   UNL     1      -6.622  -9.848  17.215  0.00  0.00    +0.115 C 
BRANCH  12   5
ATOM      5  N   UNL     1      -7.618  -9.793  18.277  0.00  0.00    -0.308 NA
ATOM     26  H   UNL     1      -7.301 -10.357  19.065  0.00  0.00    +0.122 HD
BRANCH   5  15
ATOM     15  C   UNL     1      -8.908 -10.279  17.806  0.00  0.00    +0.136 C 
BRANCH  15  17
ATOM      7  N   UNL     1      -9.834  -9.680  15.637  0.00  0.00    -0.259 NA
ATOM     17  C   UNL     1      -9.588  -9.282  16.905  0.00  0.00    +0.055 A 
ATOM     20  C   UNL     1      -9.922  -8.034  17.405  0.00  0.00    +0.024 A 
ATOM     21  C   UNL     1     -10.551  -7.137  16.547  0.00  0.00    +0.003 A 
ATOM     22  C   UNL     1     -10.446  -8.781  14.833  0.00  0.00    +0.111 A 
ATOM     23  C   UNL     1     -10.821  -7.510  15.236  0.00  0.00    +0.020 A 
ENDBRANCH  15  17
ENDBRANCH   5  15
ENDBRANCH  12   5
ENDBRANCH  10  12
BRANCH  11  13
ATOM     13  C   UNL     1      -2.589 -10.700  16.547  0.00  0.00    +0.130 C 
BRANCH  13  14
ATOM      4  O   UNL     1      -1.481 -10.192  14.458  0.00  0.00    -0.276 OA
ATOM      6  N   UNL     1      -2.264 -12.348  14.829  0.00  0.00    -0.313 N 
ATOM     14  C   UNL     1      -2.043 -11.021  15.168  0.00  0.00    +0.216 C 
ATOM     27  H   UNL     1      -2.688 -12.966  15.517  0.00  0.00    +0.149 HD
BRANCH   6  16
ATOM     16  C   UNL     1      -1.847 -12.921  13.570  0.00  0.00    +0.067 C 
ATOM     18  C   UNL     1      -2.871 -12.616  12.485  0.00  0.00    +0.027 C 
ATOM     19  C   UNL     1      -1.625 -14.421  13.712  0.00  0.00    +0.027 C 
ENDBRANCH   6  16
ENDBRANCH  13  14
ENDBRANCH  11  13
TORSDOF 9
ENDMDL
MODEL 10
REMARK VINA RESULT:      -5.2     26.883     30.018
REMARK  Name = 40778256
REMARK  11 active torsions:
REMARK  status: ('A' for Active; 'I' for Inactive)
REMARK    1  A    between atoms: O_2  and  C_8
REMARK    2  A    between atoms: O_3  and  C_9
REMARK    3  A    between atoms: N_5  and  C_12
REMARK    4  A    between atoms: N_5  and  C_15
REMARK    5  A    between atoms: N_6  and  C_16
REMARK    6  A    between atoms: C_10  and  C_12
REMARK    7  A    between atoms: C_11  and  C_13
REMARK    8  A    between atoms: C_13  and  C_14
REMARK    9  A    between atoms: C_15  and  C_17
REMARK   10  A    between atoms: C_16  and  C_18
REMARK   11  A    between atoms: C_16  and  C_19
REMARK                            x       y       z     vdW  Elec       q    Type
REMARK                         _______ _______ _______ _____ _____    ______ ____
ROOT
ATOM      1  O   UNL     1     -15.356   3.420  25.197  0.00  0.00    -0.366 OA
ATOM      8  C   UNL     1     -17.326   3.108  23.901  0.00  0.00    +0.175 C 
ATOM      9  C   UNL     1     -17.639   2.855  25.361  0.00  0.00    +0.175 C 
ATOM     10  C   UNL     1     -16.008   3.869  23.987  0.00  0.00    +0.163 C 
ATOM     11  C   UNL     1     -16.258   2.567  25.923  0.00  0.00    +0.158 C 
ENDROOT
BRANCH   8   2
ATOM      2  O   UNL     1     -17.083   1.875  23.225  0.00  0.00    -0.387 OA
ATOM     24  H   UNL     1     -17.448   1.164  23.779  0.00  0.00    +0.210 HD
ENDBRANCH   8   2
BRANCH   9   3
ATOM      3  O   UNL     1     -18.529   1.778  25.563  0.00  0.00    -0.387 OA
ATOM     25  H   UNL     1     -19.392   2.041  25.201  0.00  0.00    +0.210 HD
ENDBRANCH   9   3
BRANCH  10  12
ATOM     12  C   UNL     1     -16.195   5.377  24.089  0.00  0.00    +0.115 C 
BRANCH  12   5
ATOM      5  N   UNL     1     -15.123   6.085  23.402  0.00  0.00    -0.308 NA
ATOM     26  H   UNL     1     -15.419   7.043  23.216  0.00  0.00    +0.122 HD
BRANCH   5  15
ATOM     15  C   UNL     1     -14.777   5.421  22.153  0.00  0.00    +0.136 C 
BRANCH  15  17
ATOM      7  N   UNL     1     -14.468   7.084  20.404  0.00  0.00    -0.259 NA
ATOM     17  C   UNL     1     -13.870   6.268  21.300  0.00  0.00    +0.055 A 
ATOM     20  C   UNL     1     -12.498   6.175  21.471  0.00  0.00    +0.024 A 
ATOM     21  C   UNL     1     -11.688   6.973  20.669  0.00  0.00    +0.003 A 
ATOM     22  C   UNL     1     -13.648   7.843  19.643  0.00  0.00    +0.111 A 
ATOM     23  C   UNL     1     -12.266   7.825  19.735  0.00  0.00    +0.020 A 
ENDBRANCH  15  17
ENDBRANCH   5  15
ENDBRANCH  12   5
ENDBRANCH  10  12
BRANCH  11  13
ATOM     13  C   UNL     1     -16.142   2.847  27.410  0.00  0.00    +0.130 C 
BRANCH  13  14
ATOM      4  O   UNL     1     -16.823   0.590  27.953  0.00  0.00    -0.276 OA
ATOM      6  N   UNL     1     -15.335   1.693  29.357  0.00  0.00    -0.313 N 
ATOM     14  C   UNL     1     -16.156   1.579  28.245  0.00  0.00    +0.216 C 
ATOM     27  H   UNL     1     -14.780   2.537  29.473  0.00  0.00    +0.149 HD
BRANCH   6  16
ATOM     16  C   UNL     1     -15.164   0.632  30.323  0.00  0.00    +0.067 C 
ATOM     18  C   UNL     1     -14.919   1.214  31.709  0.00  0.00    +0.027 C 
ATOM     19  C   UNL     1     -14.030  -0.294  29.906  0.00  0.00    +0.027 C 
ENDBRANCH   6  16
ENDBRANCH  13  14
ENDBRANCH  11  13
TORSDOF 9
ENDMDL
