MODEL 1
REMARK VINA RESULT:      -7.2      0.000      0.000
REMARK  Name = 7144115
REMARK  5 active torsions:
REMARK  status: ('A' for Active; 'I' for Inactive)
REMARK    1  A    between atoms: S_1  and  N_6
REMARK    2  A    between atoms: S_1  and  C_19
REMARK    3  A    between atoms: O_5  and  C_29
REMARK    4  A    between atoms: O_5  and  C_31
REMARK    5  A    between atoms: C_15  and  C_20
REMARK                            x       y       z     vdW  Elec       q    Type
REMARK                         _______ _______ _______ _____ _____    ______ ____
ROOT
ATOM      4  O   UNL     1      16.158   6.174  18.865  0.00  0.00    -0.268 OA
ATOM      6  N   UNL     1      14.426  10.687  17.789  0.00  0.00    -0.176 NA
ATOM      7  N   UNL     1      14.433   7.757  18.941  0.00  0.00    -0.311 N 
ATOM      8  C   UNL     1      13.351   8.669  16.803  0.00  0.00    +0.025 C 
ATOM      9  C   UNL     1      12.611   9.488  18.996  0.00  0.00    +0.053 C 
ATOM     10  C   UNL     1      12.129   8.874  17.684  0.00  0.00    +0.017 C 
ATOM     11  C   UNL     1      14.050  10.005  16.518  0.00  0.00    +0.114 C 
ATOM     12  C   UNL     1      13.267  10.853  18.712  0.00  0.00    +0.119 C 
ATOM     13  C   UNL     1      14.279   7.661  17.483  0.00  0.00    +0.130 C 
ATOM     14  C   UNL     1      13.585   8.561  19.728  0.00  0.00    +0.034 A 
ATOM     15  C   UNL     1      13.668   8.506  21.084  0.00  0.00    +0.002 A 
ATOM     16  C   UNL     1      15.402   6.906  19.503  0.00  0.00    +0.252 A 
ATOM     17  C   UNL     1      14.658   7.643  21.699  0.00  0.00    +0.015 A 
ATOM     18  C   UNL     1      15.494   6.893  20.981  0.00  0.00    +0.071 A 
ENDROOT
BRANCH  15  20
ATOM     20  C   UNL     1      12.785   9.315  21.951  0.00  0.00    -0.016 A 
ATOM     23  C   UNL     1      13.243  10.521  22.471  0.00  0.00    +0.012 A 
ATOM     24  C   UNL     1      11.501   8.864  22.243  0.00  0.00    +0.012 A 
ATOM     25  C   UNL     1      12.411  11.284  23.291  0.00  0.00    +0.046 A 
ATOM     26  C   UNL     1      10.669   9.627  23.062  0.00  0.00    +0.046 A 
ATOM     29  C   UNL     1      11.123  10.836  23.585  0.00  0.00    +0.120 A 
BRANCH  29   5
ATOM      5  O   UNL     1      10.311  11.581  24.385  0.00  0.00    -0.495 OA
ATOM     31  C   UNL     1      10.940  12.374  25.389  0.00  0.00    +0.277 C 
ENDBRANCH  29   5
ENDBRANCH  15  20
BRANCH   6   1
ATOM      1  S   UNL     1      15.445  12.051  17.624  0.00  0.00    +0.061 S 
ATOM      2  O   UNL     1      14.695  13.246  17.949  0.00  0.00    -0.153 OA
ATOM      3  O   UNL     1      16.177  11.946  16.379  0.00  0.00    -0.153 OA
BRANCH   1  19
ATOM     19  C   UNL     1      16.579  11.752  18.946  0.00  0.00    +0.105 A 
ATOM     21  C   UNL     1      16.275  10.790  19.894  0.00  0.00    +0.028 A 
ATOM     22  C   UNL     1      17.751  12.487  19.012  0.00  0.00    +0.028 A 
ATOM     27  C   UNL     1      17.169  10.555  20.939  0.00  0.00    +0.002 A 
ATOM     28  C   UNL     1      18.645  12.253  20.057  0.00  0.00    +0.002 A 
ATOM     30  C   UNL     1      18.355  11.287  21.019  0.00  0.00    +0.000 A 
ENDBRANCH   1  19
ENDBRANCH   6   1
TORSDOF 4
ENDMDL
MODEL 2
REMARK VINA RESULT:      -7.1      2.416      3.711
REMARK  Name = 7144115
REMARK  5 active torsions:
REMARK  status: ('A' for Active; 'I' for Inactive)
REMARK    1  A    between atoms: S_1  and  N_6
REMARK    2  A    between atoms: S_1  and  C_19
REMARK    3  A    between atoms: O_5  and  C_29
REMARK    4  A    between atoms: O_5  and  C_31
REMARK    5  A    between atoms: C_15  and  C_20
REMARK                            x       y       z     vdW  Elec       q    Type
REMARK                         _______ _______ _______ _____ _____    ______ ____
ROOT
ATOM      4  O   UNL     1      12.008   7.623  18.440  0.00  0.00    -0.268 OA
ATOM      6  N   UNL     1      15.266  10.874  20.268  0.00  0.00    -0.176 NA
ATOM      7  N   UNL     1      12.475   9.715  19.383  0.00  0.00    -0.311 N 
ATOM      8  C   UNL     1      13.988  11.414  18.200  0.00  0.00    +0.025 C 
ATOM      9  C   UNL     1      13.026  11.950  20.394  0.00  0.00    +0.053 C 
ATOM     10  C   UNL     1      13.172  12.449  18.958  0.00  0.00    +0.017 C 
ATOM     11  C   UNL     1      15.378  11.245  18.829  0.00  0.00    +0.114 C 
ATOM     12  C   UNL     1      14.420  11.830  21.039  0.00  0.00    +0.119 C 
ATOM     13  C   UNL     1      13.202  10.103  18.166  0.00  0.00    +0.130 C 
ATOM     14  C   UNL     1      12.284  10.612  20.453  0.00  0.00    +0.034 A 
ATOM     15  C   UNL     1      11.482  10.262  21.493  0.00  0.00    +0.002 A 
ATOM     16  C   UNL     1      11.886   8.438  19.354  0.00  0.00    +0.252 A 
ATOM     17  C   UNL     1      10.861   8.952  21.500  0.00  0.00    +0.015 A 
ATOM     18  C   UNL     1      11.046   8.071  20.516  0.00  0.00    +0.071 A 
ENDROOT
BRANCH  15  20
ATOM     20  C   UNL     1      11.235  11.178  22.627  0.00  0.00    -0.016 A 
ATOM     23  C   UNL     1      11.321  10.700  23.931  0.00  0.00    +0.012 A 
ATOM     24  C   UNL     1      10.918  12.511  22.384  0.00  0.00    +0.012 A 
ATOM     25  C   UNL     1      11.087  11.564  25.003  0.00  0.00    +0.046 A 
ATOM     26  C   UNL     1      10.684  13.373  23.454  0.00  0.00    +0.046 A 
ATOM     29  C   UNL     1      10.769  12.901  24.763  0.00  0.00    +0.120 A 
BRANCH  29   5
ATOM      5  O   UNL     1      10.540  13.743  25.808  0.00  0.00    -0.495 OA
ATOM     31  C   UNL     1      10.923  15.106  25.638  0.00  0.00    +0.277 C 
ENDBRANCH  29   5
ENDBRANCH  15  20
BRANCH   6   1
ATOM      1  S   UNL     1      16.722  10.394  21.026  0.00  0.00    +0.061 S 
ATOM      2  O   UNL     1      16.569  10.503  22.461  0.00  0.00    -0.153 OA
ATOM      3  O   UNL     1      17.836  11.021  20.346  0.00  0.00    -0.153 OA
BRANCH   1  19
ATOM     19  C   UNL     1      16.734   8.676  20.615  0.00  0.00    +0.105 A 
ATOM     21  C   UNL     1      17.882   7.934  20.838  0.00  0.00    +0.028 A 
ATOM     22  C   UNL     1      15.596   8.101  20.075  0.00  0.00    +0.028 A 
ATOM     27  C   UNL     1      17.892   6.578  20.511  0.00  0.00    +0.002 A 
ATOM     28  C   UNL     1      15.606   6.745  19.748  0.00  0.00    +0.002 A 
ATOM     30  C   UNL     1      16.754   5.983  19.967  0.00  0.00    +0.000 A 
ENDBRANCH   1  19
ENDBRANCH   6   1
TORSDOF 4
ENDMDL
MODEL 3
REMARK VINA RESULT:      -6.9     27.819     29.870
REMARK  Name = 7144115
REMARK  5 active torsions:
REMARK  status: ('A' for Active; 'I' for Inactive)
REMARK    1  A    between atoms: S_1  and  N_6
REMARK    2  A    between atoms: S_1  and  C_19
REMARK    3  A    between atoms: O_5  and  C_29
REMARK    4  A    between atoms: O_5  and  C_31
REMARK    5  A    between atoms: C_15  and  C_20
REMARK                            x       y       z     vdW  Elec       q    Type
REMARK                         _______ _______ _______ _____ _____    ______ ____
ROOT
ATOM      4  O   UNL     1      -4.264 -13.007  18.994  0.00  0.00    -0.268 OA
ATOM      6  N   UNL     1      -6.046 -12.084  14.466  0.00  0.00    -0.176 NA
ATOM      7  N   UNL     1      -6.083 -12.628  17.568  0.00  0.00    -0.311 N 
ATOM      8  C   UNL     1      -6.620 -14.213  15.624  0.00  0.00    +0.025 C 
ATOM      9  C   UNL     1      -8.003 -12.219  15.997  0.00  0.00    +0.053 C 
ATOM     10  C   UNL     1      -8.049 -13.735  15.822  0.00  0.00    +0.017 C 
ATOM     11  C   UNL     1      -5.996 -13.571  14.377  0.00  0.00    +0.114 C 
ATOM     12  C   UNL     1      -7.424 -11.574  14.723  0.00  0.00    +0.119 C 
ATOM     13  C   UNL     1      -5.824 -13.908  16.894  0.00  0.00    +0.130 C 
ATOM     14  C   UNL     1      -7.185 -11.818  17.227  0.00  0.00    +0.034 A 
ATOM     15  C   UNL     1      -7.471 -10.718  17.973  0.00  0.00    +0.002 A 
ATOM     16  C   UNL     1      -5.230 -12.328  18.645  0.00  0.00    +0.252 A 
ATOM     17  C   UNL     1      -6.611 -10.375  19.089  0.00  0.00    +0.015 A 
ATOM     18  C   UNL     1      -5.545 -11.105  19.418  0.00  0.00    +0.071 A 
ENDROOT
BRANCH  15  20
ATOM     20  C   UNL     1      -8.629  -9.851  17.667  0.00  0.00    -0.016 A 
ATOM     23  C   UNL     1      -8.482  -8.792  16.776  0.00  0.00    +0.012 A 
ATOM     24  C   UNL     1      -9.857 -10.097  18.275  0.00  0.00    +0.012 A 
ATOM     25  C   UNL     1      -9.574  -7.972  16.488  0.00  0.00    +0.046 A 
ATOM     26  C   UNL     1     -10.947  -9.277  17.987  0.00  0.00    +0.046 A 
ATOM     29  C   UNL     1     -10.807  -8.216  17.094  0.00  0.00    +0.120 A 
BRANCH  29   5
ATOM      5  O   UNL     1     -11.872  -7.415  16.814  0.00  0.00    -0.495 OA
ATOM     31  C   UNL     1     -11.596  -6.165  16.186  0.00  0.00    +0.277 C 
ENDBRANCH  29   5
ENDBRANCH  15  20
BRANCH   6   1
ATOM      1  S   UNL     1      -5.152 -11.239  13.278  0.00  0.00    +0.061 S 
ATOM      2  O   UNL     1      -5.829  -9.997  12.968  0.00  0.00    -0.153 OA
ATOM      3  O   UNL     1      -4.773 -12.162  12.229  0.00  0.00    -0.153 OA
BRANCH   1  19
ATOM     19  C   UNL     1      -3.701 -10.844  14.203  0.00  0.00    +0.105 A 
ATOM     21  C   UNL     1      -3.736 -10.923  15.585  0.00  0.00    +0.028 A 
ATOM     22  C   UNL     1      -2.552 -10.462  13.531  0.00  0.00    +0.028 A 
ATOM     27  C   UNL     1      -2.591 -10.609  16.317  0.00  0.00    +0.002 A 
ATOM     28  C   UNL     1      -1.406 -10.147  14.262  0.00  0.00    +0.002 A 
ATOM     30  C   UNL     1      -1.425 -10.222  15.655  0.00  0.00    +0.000 A 
ENDBRANCH   1  19
ENDBRANCH   6   1
TORSDOF 4
ENDMDL
MODEL 4
REMARK VINA RESULT:      -6.7     13.515     17.028
REMARK  Name = 7144115
REMARK  5 active torsions:
REMARK  status: ('A' for Active; 'I' for Inactive)
REMARK    1  A    between atoms: S_1  and  N_6
REMARK    2  A    between atoms: S_1  and  C_19
REMARK    3  A    between atoms: O_5  and  C_29
REMARK    4  A    between atoms: O_5  and  C_31
REMARK    5  A    between atoms: C_15  and  C_20
REMARK                            x       y       z     vdW  Elec       q    Type
REMARK                         _______ _______ _______ _____ _____    ______ ____
ROOT
ATOM      4  O   UNL     1       8.762  10.582   1.964  0.00  0.00    -0.268 OA
ATOM      6  N   UNL     1      12.947   8.304   3.316  0.00  0.00    -0.176 NA
ATOM      7  N   UNL     1      10.141   9.695   3.638  0.00  0.00    -0.311 N 
ATOM      8  C   UNL     1      12.488  10.630   4.080  0.00  0.00    +0.025 C 
ATOM      9  C   UNL     1      11.655   8.733   5.398  0.00  0.00    +0.053 C 
ATOM     10  C   UNL     1      12.259  10.132   5.498  0.00  0.00    +0.017 C 
ATOM     11  C   UNL     1      13.454   9.706   3.325  0.00  0.00    +0.114 C 
ATOM     12  C   UNL     1      12.650   7.796   4.686  0.00  0.00    +0.119 C 
ATOM     13  C   UNL     1      11.132  10.749   3.380  0.00  0.00    +0.130 C 
ATOM     14  C   UNL     1      10.309   8.751   4.670  0.00  0.00    +0.034 A 
ATOM     15  C   UNL     1       9.302   7.889   4.968  0.00  0.00    +0.002 A 
ATOM     16  C   UNL     1       8.967   9.769   2.866  0.00  0.00    +0.252 A 
ATOM     17  C   UNL     1       8.078   7.932   4.190  0.00  0.00    +0.015 A 
ATOM     18  C   UNL     1       7.900   8.795   3.190  0.00  0.00    +0.071 A 
ENDROOT
BRANCH  15  20
ATOM     20  C   UNL     1       9.424   6.895   6.055  0.00  0.00    -0.016 A 
ATOM     23  C   UNL     1       9.770   5.581   5.755  0.00  0.00    +0.012 A 
ATOM     24  C   UNL     1       9.192   7.279   7.373  0.00  0.00    +0.012 A 
ATOM     25  C   UNL     1       9.884   4.642   6.781  0.00  0.00    +0.046 A 
ATOM     26  C   UNL     1       9.307   6.341   8.398  0.00  0.00    +0.046 A 
ATOM     29  C   UNL     1       9.653   5.023   8.103  0.00  0.00    +0.120 A 
BRANCH  29   5
ATOM      5  O   UNL     1       9.764   4.107   9.104  0.00  0.00    -0.495 OA
ATOM     31  C   UNL     1       9.093   4.399  10.328  0.00  0.00    +0.277 C 
ENDBRANCH  29   5
ENDBRANCH  15  20
BRANCH   6   1
ATOM      1  S   UNL     1      13.781   7.221   2.288  0.00  0.00    +0.061 S 
ATOM      2  O   UNL     1      14.841   6.578   3.036  0.00  0.00    -0.153 OA
ATOM      3  O   UNL     1      14.054   7.881   1.028  0.00  0.00    -0.153 OA
BRANCH   1  19
ATOM     19  C   UNL     1      12.515   6.022   2.008  0.00  0.00    +0.105 A 
ATOM     21  C   UNL     1      12.848   4.678   1.989  0.00  0.00    +0.028 A 
ATOM     22  C   UNL     1      11.212   6.446   1.811  0.00  0.00    +0.028 A 
ATOM     27  C   UNL     1      11.849   3.730   1.765  0.00  0.00    +0.002 A 
ATOM     28  C   UNL     1      10.212   5.499   1.588  0.00  0.00    +0.002 A 
ATOM     30  C   UNL     1      10.530   4.141   1.565  0.00  0.00    +0.000 A 
ENDBRANCH   1  19
ENDBRANCH   6   1
TORSDOF 4
ENDMDL
MODEL 5
REMARK VINA RESULT:      -6.7     13.448     17.239
REMARK  Name = 7144115
REMARK  5 active torsions:
REMARK  status: ('A' for Active; 'I' for Inactive)
REMARK    1  A    between atoms: S_1  and  N_6
REMARK    2  A    between atoms: S_1  and  C_19
REMARK    3  A    between atoms: O_5  and  C_29
REMARK    4  A    between atoms: O_5  and  C_31
REMARK    5  A    between atoms: C_15  and  C_20
REMARK                            x       y       z     vdW  Elec       q    Type
REMARK                         _______ _______ _______ _____ _____    ______ ____
ROOT
ATOM      4  O   UNL     1       6.957   9.432   4.339  0.00  0.00    -0.268 OA
ATOM      6  N   UNL     1      11.146   8.328   6.737  0.00  0.00    -0.176 NA
ATOM      7  N   UNL     1       8.572   7.864   4.985  0.00  0.00    -0.311 N 
ATOM      8  C   UNL     1       8.991   7.306   7.453  0.00  0.00    +0.025 C 
ATOM      9  C   UNL     1      10.329   6.217   5.706  0.00  0.00    +0.053 C 
ATOM     10  C   UNL     1       9.440   5.955   6.920  0.00  0.00    +0.017 C 
ATOM     11  C   UNL     1      10.198   8.157   7.874  0.00  0.00    +0.114 C 
ATOM     12  C   UNL     1      11.565   7.026   6.142  0.00  0.00    +0.119 C 
ATOM     13  C   UNL     1       8.140   7.994   6.384  0.00  0.00    +0.130 C 
ATOM     14  C   UNL     1       9.567   6.945   4.596  0.00  0.00    +0.034 A 
ATOM     15  C   UNL     1       9.830   6.752   3.277  0.00  0.00    +0.002 A 
ATOM     16  C   UNL     1       7.845   8.628   4.055  0.00  0.00    +0.252 A 
ATOM     17  C   UNL     1       9.103   7.526   2.289  0.00  0.00    +0.015 A 
ATOM     18  C   UNL     1       8.176   8.423   2.627  0.00  0.00    +0.071 A 
ENDROOT
BRANCH  15  20
ATOM     20  C   UNL     1      10.850   5.785   2.820  0.00  0.00    -0.016 A 
ATOM     23  C   UNL     1      10.547   4.428   2.780  0.00  0.00    +0.012 A 
ATOM     24  C   UNL     1      12.109   6.238   2.434  0.00  0.00    +0.012 A 
ATOM     25  C   UNL     1      11.510   3.514   2.351  0.00  0.00    +0.046 A 
ATOM     26  C   UNL     1      13.071   5.325   2.005  0.00  0.00    +0.046 A 
ATOM     29  C   UNL     1      12.773   3.964   1.963  0.00  0.00    +0.120 A 
BRANCH  29   5
ATOM      5  O   UNL     1      13.713   3.072   1.544  0.00  0.00    -0.495 OA
ATOM     31  C   UNL     1      15.057   3.541   1.454  0.00  0.00    +0.277 C 
ENDBRANCH  29   5
ENDBRANCH  15  20
BRANCH   6   1
ATOM      1  S   UNL     1      12.398   9.469   6.981  0.00  0.00    +0.061 S 
ATOM      2  O   UNL     1      13.674   8.786   6.953  0.00  0.00    -0.153 OA
ATOM      3  O   UNL     1      12.039  10.332   8.087  0.00  0.00    -0.153 OA
BRANCH   1  19
ATOM     19  C   UNL     1      12.256  10.408   5.492  0.00  0.00    +0.105 A 
ATOM     21  C   UNL     1      11.101  10.307   4.735  0.00  0.00    +0.028 A 
ATOM     22  C   UNL     1      13.304  11.228   5.107  0.00  0.00    +0.028 A 
ATOM     27  C   UNL     1      10.990  11.047   3.558  0.00  0.00    +0.002 A 
ATOM     28  C   UNL     1      13.193  11.968   3.929  0.00  0.00    +0.002 A 
ATOM     30  C   UNL     1      12.036  11.879   3.155  0.00  0.00    +0.000 A 
ENDBRANCH   1  19
ENDBRANCH   6   1
TORSDOF 4
ENDMDL
MODEL 6
REMARK VINA RESULT:      -6.6     27.588     29.727
REMARK  Name = 7144115
REMARK  5 active torsions:
REMARK  status: ('A' for Active; 'I' for Inactive)
REMARK    1  A    between atoms: S_1  and  N_6
REMARK    2  A    between atoms: S_1  and  C_19
REMARK    3  A    between atoms: O_5  and  C_29
REMARK    4  A    between atoms: O_5  and  C_31
REMARK    5  A    between atoms: C_15  and  C_20
REMARK                            x       y       z     vdW  Elec       q    Type
REMARK                         _______ _______ _______ _____ _____    ______ ____
ROOT
ATOM      4  O   UNL     1      -1.134 -11.735  14.505  0.00  0.00    -0.268 OA
ATOM      6  N   UNL     1      -5.828 -12.361  13.054  0.00  0.00    -0.176 NA
ATOM      7  N   UNL     1      -3.312 -12.476  14.945  0.00  0.00    -0.311 N 
ATOM      8  C   UNL     1      -4.402 -14.340  13.561  0.00  0.00    +0.025 C 
ATOM      9  C   UNL     1      -5.663 -13.259  15.369  0.00  0.00    +0.053 C 
ATOM     10  C   UNL     1      -5.203 -14.609  14.825  0.00  0.00    +0.017 C 
ATOM     11  C   UNL     1      -5.264 -13.628  12.508  0.00  0.00    +0.114 C 
ATOM     12  C   UNL     1      -6.570 -12.571  14.331  0.00  0.00    +0.119 C 
ATOM     13  C   UNL     1      -3.158 -13.532  13.935  0.00  0.00    +0.130 C 
ATOM     14  C   UNL     1      -4.476 -12.363  15.731  0.00  0.00    +0.034 A 
ATOM     15  C   UNL     1      -4.517 -11.466  16.752  0.00  0.00    +0.002 A 
ATOM     16  C   UNL     1      -2.180 -11.668  15.152  0.00  0.00    +0.252 A 
ATOM     17  C   UNL     1      -3.370 -10.613  16.992  0.00  0.00    +0.015 A 
ATOM     18  C   UNL     1      -2.266 -10.677  16.248  0.00  0.00    +0.071 A 
ENDROOT
BRANCH  15  20
ATOM     20  C   UNL     1      -5.708 -11.326  17.617  0.00  0.00    -0.016 A 
ATOM     23  C   UNL     1      -6.644 -10.332  17.347  0.00  0.00    +0.012 A 
ATOM     24  C   UNL     1      -5.885 -12.187  18.696  0.00  0.00    +0.012 A 
ATOM     25  C   UNL     1      -7.768 -10.198  18.164  0.00  0.00    +0.046 A 
ATOM     26  C   UNL     1      -7.007 -12.053  19.512  0.00  0.00    +0.046 A 
ATOM     29  C   UNL     1      -7.949 -11.060  19.246  0.00  0.00    +0.120 A 
BRANCH  29   5
ATOM      5  O   UNL     1      -9.045 -10.929  20.043  0.00  0.00    -0.495 OA
ATOM     31  C   UNL     1      -9.965 -12.019  20.064  0.00  0.00    +0.277 C 
ENDBRANCH  29   5
ENDBRANCH  15  20
BRANCH   6   1
ATOM      1  S   UNL     1      -6.586 -11.336  11.914  0.00  0.00    +0.061 S 
ATOM      2  O   UNL     1      -7.375 -10.346  12.617  0.00  0.00    -0.153 OA
ATOM      3  O   UNL     1      -7.170 -12.146  10.866  0.00  0.00    -0.153 OA
BRANCH   1  19
ATOM     19  C   UNL     1      -5.171 -10.519  11.243  0.00  0.00    +0.105 A 
ATOM     21  C   UNL     1      -3.961 -10.600  11.912  0.00  0.00    +0.028 A 
ATOM     22  C   UNL     1      -5.297  -9.809  10.061  0.00  0.00    +0.028 A 
ATOM     27  C   UNL     1      -2.844  -9.953  11.383  0.00  0.00    +0.002 A 
ATOM     28  C   UNL     1      -4.180  -9.161   9.532  0.00  0.00    +0.002 A 
ATOM     30  C   UNL     1      -2.953  -9.234  10.192  0.00  0.00    +0.000 A 
ENDBRANCH   1  19
ENDBRANCH   6   1
TORSDOF 4
ENDMDL
MODEL 7
REMARK VINA RESULT:      -6.4     13.316     16.134
REMARK  Name = 7144115
REMARK  5 active torsions:
REMARK  status: ('A' for Active; 'I' for Inactive)
REMARK    1  A    between atoms: S_1  and  N_6
REMARK    2  A    between atoms: S_1  and  C_19
REMARK    3  A    between atoms: O_5  and  C_29
REMARK    4  A    between atoms: O_5  and  C_31
REMARK    5  A    between atoms: C_15  and  C_20
REMARK                            x       y       z     vdW  Elec       q    Type
REMARK                         _______ _______ _______ _____ _____    ______ ____
ROOT
ATOM      4  O   UNL     1      19.473  -5.048  21.320  0.00  0.00    -0.268 OA
ATOM      6  N   UNL     1      18.955  -1.998  25.186  0.00  0.00    -0.176 NA
ATOM      7  N   UNL     1      18.216  -4.271  23.137  0.00  0.00    -0.311 N 
ATOM      8  C   UNL     1      17.386  -1.847  23.258  0.00  0.00    +0.025 C 
ATOM      9  C   UNL     1      16.903  -3.401  25.096  0.00  0.00    +0.053 C 
ATOM     10  C   UNL     1      16.267  -2.427  24.107  0.00  0.00    +0.017 C 
ATOM     11  C   UNL     1      18.405  -1.101  24.131  0.00  0.00    +0.114 C 
ATOM     12  C   UNL     1      17.885  -2.639  26.005  0.00  0.00    +0.119 C 
ATOM     13  C   UNL     1      18.029  -2.981  22.457  0.00  0.00    +0.130 C 
ATOM     14  C   UNL     1      17.610  -4.553  24.378  0.00  0.00    +0.034 A 
ATOM     15  C   UNL     1      17.688  -5.806  24.898  0.00  0.00    +0.002 A 
ATOM     16  C   UNL     1      18.937  -5.237  22.412  0.00  0.00    +0.252 A 
ATOM     17  C   UNL     1      18.428  -6.827  24.181  0.00  0.00    +0.015 A 
ATOM     18  C   UNL     1      19.035  -6.583  23.020  0.00  0.00    +0.071 A 
ENDROOT
BRANCH  15  20
ATOM     20  C   UNL     1      17.051  -6.154  26.186  0.00  0.00    -0.016 A 
ATOM     23  C   UNL     1      15.749  -6.645  26.203  0.00  0.00    +0.012 A 
ATOM     24  C   UNL     1      17.757  -5.988  27.374  0.00  0.00    +0.012 A 
ATOM     25  C   UNL     1      15.147  -6.972  27.419  0.00  0.00    +0.046 A 
ATOM     26  C   UNL     1      17.156  -6.315  28.588  0.00  0.00    +0.046 A 
ATOM     29  C   UNL     1      15.852  -6.807  28.611  0.00  0.00    +0.120 A 
BRANCH  29   5
ATOM      5  O   UNL     1      15.264  -7.126  29.798  0.00  0.00    -0.495 OA
ATOM     31  C   UNL     1      14.036  -6.472  30.109  0.00  0.00    +0.277 C 
ENDBRANCH  29   5
ENDBRANCH  15  20
BRANCH   6   1
ATOM      1  S   UNL     1      20.290  -1.382  26.061  0.00  0.00    +0.061 S 
ATOM      2  O   UNL     1      19.984  -1.409  27.476  0.00  0.00    -0.153 OA
ATOM      3  O   UNL     1      20.752  -0.167  25.422  0.00  0.00    -0.153 OA
BRANCH   1  19
ATOM     19  C   UNL     1      21.480  -2.648  25.743  0.00  0.00    +0.105 A 
ATOM     21  C   UNL     1      21.064  -3.841  25.178  0.00  0.00    +0.028 A 
ATOM     22  C   UNL     1      22.808  -2.425  26.066  0.00  0.00    +0.028 A 
ATOM     27  C   UNL     1      22.003  -4.842  24.929  0.00  0.00    +0.002 A 
ATOM     28  C   UNL     1      23.747  -3.426  25.817  0.00  0.00    +0.002 A 
ATOM     30  C   UNL     1      23.346  -4.634  25.248  0.00  0.00    +0.000 A 
ENDBRANCH   1  19
ENDBRANCH   6   1
TORSDOF 4
ENDMDL
MODEL 8
REMARK VINA RESULT:      -6.3      2.334      5.961
REMARK  Name = 7144115
REMARK  5 active torsions:
REMARK  status: ('A' for Active; 'I' for Inactive)
REMARK    1  A    between atoms: S_1  and  N_6
REMARK    2  A    between atoms: S_1  and  C_19
REMARK    3  A    between atoms: O_5  and  C_29
REMARK    4  A    between atoms: O_5  and  C_31
REMARK    5  A    between atoms: C_15  and  C_20
REMARK                            x       y       z     vdW  Elec       q    Type
REMARK                         _______ _______ _______ _____ _____    ______ ____
ROOT
ATOM      4  O   UNL     1      11.266  10.670  22.131  0.00  0.00    -0.268 OA
ATOM      6  N   UNL     1      14.150   7.776  19.332  0.00  0.00    -0.176 NA
ATOM      7  N   UNL     1      12.273  10.194  20.070  0.00  0.00    -0.311 N 
ATOM      8  C   UNL     1      11.737   8.045  18.777  0.00  0.00    +0.025 C 
ATOM      9  C   UNL     1      13.373   9.641  17.879  0.00  0.00    +0.053 C 
ATOM     10  C   UNL     1      12.098   8.868  17.551  0.00  0.00    +0.017 C 
ATOM     11  C   UNL     1      12.861   7.058  19.124  0.00  0.00    +0.114 C 
ATOM     12  C   UNL     1      14.512   8.646  18.175  0.00  0.00    +0.119 C 
ATOM     13  C   UNL     1      11.427   9.001  19.931  0.00  0.00    +0.130 C 
ATOM     14  C   UNL     1      13.166  10.595  19.057  0.00  0.00    +0.034 A 
ATOM     15  C   UNL     1      13.819  11.783  19.163  0.00  0.00    +0.002 A 
ATOM     16  C   UNL     1      12.044  10.966  21.224  0.00  0.00    +0.252 A 
ATOM     17  C   UNL     1      13.611  12.603  20.341  0.00  0.00    +0.015 A 
ATOM     18  C   UNL     1      12.795  12.237  21.329  0.00  0.00    +0.071 A 
ENDROOT
BRANCH  15  20
ATOM     20  C   UNL     1      14.750  12.256  18.116  0.00  0.00    -0.016 A 
ATOM     23  C   UNL     1      14.247  12.743  16.914  0.00  0.00    +0.012 A 
ATOM     24  C   UNL     1      16.123  12.208  18.339  0.00  0.00    +0.012 A 
ATOM     25  C   UNL     1      15.125  13.188  15.924  0.00  0.00    +0.046 A 
ATOM     26  C   UNL     1      17.000  12.653  17.351  0.00  0.00    +0.046 A 
ATOM     29  C   UNL     1      16.502  13.143  16.144  0.00  0.00    +0.120 A 
BRANCH  29   5
ATOM      5  O   UNL     1      17.359  13.576  15.179  0.00  0.00    -0.495 OA
ATOM     31  C   UNL     1      17.645  12.673  14.113  0.00  0.00    +0.277 C 
ENDBRANCH  29   5
ENDBRANCH  15  20
BRANCH   6   1
ATOM      1  S   UNL     1      15.425   6.839  19.982  0.00  0.00    +0.061 S 
ATOM      2  O   UNL     1      16.160   6.221  18.899  0.00  0.00    -0.153 OA
ATOM      3  O   UNL     1      14.914   6.047  21.082  0.00  0.00    -0.153 OA
BRANCH   1  19
ATOM     19  C   UNL     1      16.437   8.118  20.659  0.00  0.00    +0.105 A 
ATOM     21  C   UNL     1      15.851   9.310  21.049  0.00  0.00    +0.028 A 
ATOM     22  C   UNL     1      17.800   7.907  20.788  0.00  0.00    +0.028 A 
ATOM     27  C   UNL     1      16.650  10.322  21.582  0.00  0.00    +0.002 A 
ATOM     28  C   UNL     1      18.599   8.918  21.320  0.00  0.00    +0.002 A 
ATOM     30  C   UNL     1      18.025  10.125  21.718  0.00  0.00    +0.000 A 
ENDBRANCH   1  19
ENDBRANCH   6   1
TORSDOF 4
ENDMDL
MODEL 9
REMARK VINA RESULT:      -6.1     27.611     30.312
REMARK  Name = 7144115
REMARK  5 active torsions:
REMARK  status: ('A' for Active; 'I' for Inactive)
REMARK    1  A    between atoms: S_1  and  N_6
REMARK    2  A    between atoms: S_1  and  C_19
REMARK    3  A    between atoms: O_5  and  C_29
REMARK    4  A    between atoms: O_5  and  C_31
REMARK    5  A    between atoms: C_15  and  C_20
REMARK                            x       y       z     vdW  Elec       q    Type
REMARK                         _______ _______ _______ _____ _____    ______ ____
ROOT
ATOM      4  O   UNL     1      -1.842 -10.658  16.357  0.00  0.00    -0.268 OA
ATOM      6  N   UNL     1      -5.815 -12.964  14.508  0.00  0.00    -0.176 NA
ATOM      7  N   UNL     1      -3.697 -10.672  14.927  0.00  0.00    -0.311 N 
ATOM      8  C   UNL     1      -6.088 -10.872  15.832  0.00  0.00    +0.025 C 
ATOM      9  C   UNL     1      -5.701 -10.734  13.411  0.00  0.00    +0.053 C 
ATOM     10  C   UNL     1      -6.471 -10.111  14.573  0.00  0.00    +0.017 C 
ATOM     11  C   UNL     1      -6.459 -12.357  15.707  0.00  0.00    +0.114 C 
ATOM     12  C   UNL     1      -6.114 -12.210  13.256  0.00  0.00    +0.119 C 
ATOM     13  C   UNL     1      -4.595 -10.667  16.091  0.00  0.00    +0.130 C 
ATOM     14  C   UNL     1      -4.188 -10.611  13.608  0.00  0.00    +0.034 A 
ATOM     15  C   UNL     1      -3.321 -10.469  12.571  0.00  0.00    +0.002 A 
ATOM     16  C   UNL     1      -2.323 -10.623  15.224  0.00  0.00    +0.252 A 
ATOM     17  C   UNL     1      -1.897 -10.420  12.838  0.00  0.00    +0.015 A 
ATOM     18  C   UNL     1      -1.401 -10.504  14.073  0.00  0.00    +0.071 A 
ENDROOT
BRANCH  15  20
ATOM     20  C   UNL     1      -3.791 -10.380  11.171  0.00  0.00    -0.016 A 
ATOM     23  C   UNL     1      -3.914 -11.537  10.409  0.00  0.00    +0.012 A 
ATOM     24  C   UNL     1      -4.105  -9.139  10.626  0.00  0.00    +0.012 A 
ATOM     25  C   UNL     1      -4.356 -11.453   9.087  0.00  0.00    +0.046 A 
ATOM     26  C   UNL     1      -4.547  -9.055   9.306  0.00  0.00    +0.046 A 
ATOM     29  C   UNL     1      -4.672 -10.211   8.537  0.00  0.00    +0.120 A 
BRANCH  29   5
ATOM      5  O   UNL     1      -5.103 -10.129   7.248  0.00  0.00    -0.495 OA
ATOM     31  C   UNL     1      -5.015 -11.314   6.458  0.00  0.00    +0.277 C 
ENDBRANCH  29   5
ENDBRANCH  15  20
BRANCH   6   1
ATOM      1  S   UNL     1      -5.922 -14.667  14.391  0.00  0.00    +0.061 S 
ATOM      2  O   UNL     1      -6.494 -15.020  13.109  0.00  0.00    -0.153 OA
ATOM      3  O   UNL     1      -6.475 -15.191  15.622  0.00  0.00    -0.153 OA
BRANCH   1  19
ATOM     19  C   UNL     1      -4.206 -15.084  14.347  0.00  0.00    +0.105 A 
ATOM     21  C   UNL     1      -3.801 -16.333  14.785  0.00  0.00    +0.028 A 
ATOM     22  C   UNL     1      -3.295 -14.152  13.878  0.00  0.00    +0.028 A 
ATOM     27  C   UNL     1      -2.446 -16.662  14.753  0.00  0.00    +0.002 A 
ATOM     28  C   UNL     1      -1.939 -14.481  13.846  0.00  0.00    +0.002 A 
ATOM     30  C   UNL     1      -1.515 -15.735  14.283  0.00  0.00    +0.000 A 
ENDBRANCH   1  19
ENDBRANCH   6   1
TORSDOF 4
ENDMDL
MODEL 10
REMARK VINA RESULT:      -6.1     25.424     28.200
REMARK  Name = 7144115
REMARK  5 active torsions:
REMARK  status: ('A' for Active; 'I' for Inactive)
REMARK    1  A    between atoms: S_1  and  N_6
REMARK    2  A    between atoms: S_1  and  C_19
REMARK    3  A    between atoms: O_5  and  C_29
REMARK    4  A    between atoms: O_5  and  C_31
REMARK    5  A    between atoms: C_15  and  C_20
REMARK                            x       y       z     vdW  Elec       q    Type
REMARK                         _______ _______ _______ _____ _____    ______ ____
ROOT
ATOM      4  O   UNL     1     -11.202  13.073  18.736  0.00  0.00    -0.268 OA
ATOM      6  N   UNL     1     -12.950   9.346  15.984  0.00  0.00    -0.176 NA
ATOM      7  N   UNL     1     -11.403  10.776  18.324  0.00  0.00    -0.311 N 
ATOM      8  C   UNL     1     -10.494   9.712  16.175  0.00  0.00    +0.025 C 
ATOM      9  C   UNL     1     -11.646   8.322  17.839  0.00  0.00    +0.053 C 
ATOM     10  C   UNL     1     -10.361   8.459  17.026  0.00  0.00    +0.017 C 
ATOM     11  C   UNL     1     -11.694   9.602  15.224  0.00  0.00    +0.114 C 
ATOM     12  C   UNL     1     -12.842   8.159  16.881  0.00  0.00    +0.119 C 
ATOM     13  C   UNL     1     -10.598  10.923  17.103  0.00  0.00    +0.130 C 
ATOM     14  C   UNL     1     -11.855   9.518  18.770  0.00  0.00    +0.034 A 
ATOM     15  C   UNL     1     -12.468   9.410  19.978  0.00  0.00    +0.002 A 
ATOM     16  C   UNL     1     -11.588  11.953  19.071  0.00  0.00    +0.252 A 
ATOM     17  C   UNL     1     -12.680  10.603  20.775  0.00  0.00    +0.015 A 
ATOM     18  C   UNL     1     -12.290  11.811  20.367  0.00  0.00    +0.071 A 
ENDROOT
BRANCH  15  20
ATOM     20  C   UNL     1     -12.941   8.109  20.497  0.00  0.00    -0.016 A 
ATOM     23  C   UNL     1     -12.032   7.220  21.064  0.00  0.00    +0.012 A 
ATOM     24  C   UNL     1     -14.290   7.780  20.414  0.00  0.00    +0.012 A 
ATOM     25  C   UNL     1     -12.478   5.991  21.552  0.00  0.00    +0.046 A 
ATOM     26  C   UNL     1     -14.735   6.552  20.903  0.00  0.00    +0.046 A 
ATOM     29  C   UNL     1     -13.830   5.658  21.472  0.00  0.00    +0.120 A 
BRANCH  29   5
ATOM      5  O   UNL     1     -14.264   4.459  21.948  0.00  0.00    -0.495 OA
ATOM     31  C   UNL     1     -15.231   4.490  22.996  0.00  0.00    +0.277 C 
ENDBRANCH  29   5
ENDBRANCH  15  20
BRANCH   6   1
ATOM      1  S   UNL     1     -14.399   9.465  15.083  0.00  0.00    +0.061 S 
ATOM      2  O   UNL     1     -14.450   8.385  14.119  0.00  0.00    -0.153 OA
ATOM      3  O   UNL     1     -14.587  10.840  14.671  0.00  0.00    -0.153 OA
BRANCH   1  19
ATOM     19  C   UNL     1     -15.581   9.113  16.348  0.00  0.00    +0.105 A 
ATOM     21  C   UNL     1     -16.229   7.889  16.347  0.00  0.00    +0.028 A 
ATOM     22  C   UNL     1     -15.839  10.067  17.318  0.00  0.00    +0.028 A 
ATOM     27  C   UNL     1     -17.164   7.612  17.344  0.00  0.00    +0.002 A 
ATOM     28  C   UNL     1     -16.774   9.790  18.315  0.00  0.00    +0.002 A 
ATOM     30  C   UNL     1     -17.436   8.562  18.329  0.00  0.00    +0.000 A 
ENDBRANCH   1  19
ENDBRANCH   6   1
TORSDOF 4
ENDMDL
