MODEL 1
REMARK VINA RESULT:      -7.4      0.000      0.000
REMARK  Name = 40780217
REMARK  7 active torsions:
REMARK  status: ('A' for Active; 'I' for Inactive)
REMARK    1  A    between atoms: N_4  and  C_16
REMARK    2  A    between atoms: N_5  and  C_17
REMARK    3  A    between atoms: N_6  and  C_23
REMARK    4  A    between atoms: N_7  and  C_26
REMARK    5  A    between atoms: C_10  and  C_16
REMARK    6  A    between atoms: C_11  and  C_17
REMARK    7  A    between atoms: C_32  and  C_35
REMARK                            x       y       z     vdW  Elec       q    Type
REMARK                         _______ _______ _______ _____ _____    ______ ____
ROOT
ATOM      3  N   UNL     1      -4.685  -9.789  10.261  0.00  0.00    -0.298 NA
ATOM      9  C   UNL     1      -5.783 -11.592   8.741  0.00  0.00    -0.003 C 
ATOM     10  C   UNL     1      -5.705 -10.229   8.015  0.00  0.00    +0.020 C 
ATOM     11  C   UNL     1      -5.801 -10.455  10.985  0.00  0.00    +0.074 C 
ATOM     12  C   UNL     1      -6.566 -11.423  10.056  0.00  0.00    +0.024 C 
ATOM     13  C   UNL     1      -5.181  -9.170   9.009  0.00  0.00    +0.089 C 
ATOM     14  C   UNL     1      -4.340 -11.982   9.115  0.00  0.00    +0.019 C 
ATOM     15  C   UNL     1      -3.691 -10.829   9.900  0.00  0.00    +0.085 C 
ENDROOT
BRANCH  10  16
ATOM     16  C   UNL     1      -7.031  -9.806   7.386  0.00  0.00    +0.089 C 
BRANCH  16   4
ATOM      4  N   UNL     1      -7.673  -8.755   8.175  0.00  0.00    -0.299 NA
ATOM      6  N   UNL     1      -9.694  -6.839   8.812  0.00  0.00    -0.327 N 
ATOM     18  C   UNL     1      -8.994  -9.194   8.642  0.00  0.00    +0.103 C 
ATOM     19  C   UNL     1      -7.807  -7.526   7.383  0.00  0.00    +0.103 C 
ATOM     20  C   UNL     1      -9.654  -8.124   9.516  0.00  0.00    +0.120 C 
ATOM     21  C   UNL     1      -8.426  -6.401   8.216  0.00  0.00    +0.120 C 
BRANCH   6  23
ATOM      1  F   UNL     1     -13.295  -2.956  10.401  0.00  0.00    -0.205 F 
ATOM     23  C   UNL     1     -10.606  -5.856   9.214  0.00  0.00    +0.030 A 
ATOM     24  C   UNL     1     -11.725  -6.209   9.968  0.00  0.00    +0.026 A 
ATOM     25  C   UNL     1     -10.395  -4.523   8.861  0.00  0.00    +0.026 A 
ATOM     27  C   UNL     1     -12.633  -5.230  10.369  0.00  0.00    +0.040 A 
ATOM     28  C   UNL     1     -11.304  -3.544   9.262  0.00  0.00    +0.040 A 
ATOM     29  C   UNL     1     -12.422  -3.897  10.016  0.00  0.00    +0.124 A 
ENDBRANCH   6  23
ENDBRANCH  16   4
ENDBRANCH  10  16
BRANCH  11  17
ATOM     17  C   UNL     1      -6.741  -9.451  11.658  0.00  0.00    +0.124 C 
BRANCH  17   5
ATOM      2  O   UNL     1      -7.426 -10.939  14.007  0.00  0.00    -0.253 OA
ATOM      5  N   UNL     1      -6.320  -9.176  12.997  0.00  0.00    -0.298 N 
ATOM      7  N   UNL     1      -6.137  -9.449  15.282  0.00  0.00    -0.269 N 
ATOM     22  C   UNL     1      -6.699  -9.955  14.106  0.00  0.00    +0.304 C 
ATOM     36  H   UNL     1      -5.719  -8.375  13.156  0.00  0.00    +0.150 HD
ATOM     37  H   UNL     1      -5.555  -8.620  15.189  0.00  0.00    +0.156 HD
BRANCH   7  26
ATOM     26  C   UNL     1      -6.279  -9.948  16.597  0.00  0.00    +0.036 A 
ATOM     30  C   UNL     1      -5.198 -10.555  17.235  0.00  0.00    +0.042 A 
ATOM     31  C   UNL     1      -7.503  -9.832  17.258  0.00  0.00    +0.023 A 
ATOM     32  C   UNL     1      -5.338 -11.047  18.532  0.00  0.00    +0.054 A 
ATOM     33  C   UNL     1      -7.643 -10.324  18.555  0.00  0.00    +0.003 A 
ATOM     34  C   UNL     1      -6.562 -10.931  19.192  0.00  0.00    +0.019 A 
BRANCH  32  35
ATOM      8  N   UNL     1      -3.329 -12.174  19.716  0.00  0.00    -0.191 NA
ATOM     35  C   UNL     1      -4.230 -11.669  19.185  0.00  0.00    +0.099 C 
ENDBRANCH  32  35
ENDBRANCH   7  26
ENDBRANCH  17   5
ENDBRANCH  11  17
TORSDOF 7
ENDMDL
MODEL 2
REMARK VINA RESULT:      -7.3      5.778      8.501
REMARK  Name = 40780217
REMARK  7 active torsions:
REMARK  status: ('A' for Active; 'I' for Inactive)
REMARK    1  A    between atoms: N_4  and  C_16
REMARK    2  A    between atoms: N_5  and  C_17
REMARK    3  A    between atoms: N_6  and  C_23
REMARK    4  A    between atoms: N_7  and  C_26
REMARK    5  A    between atoms: C_10  and  C_16
REMARK    6  A    between atoms: C_11  and  C_17
REMARK    7  A    between atoms: C_32  and  C_35
REMARK                            x       y       z     vdW  Elec       q    Type
REMARK                         _______ _______ _______ _____ _____    ______ ____
ROOT
ATOM      3  N   UNL     1     -14.112 -11.993  19.573  0.00  0.00    -0.298 NA
ATOM      9  C   UNL     1     -14.042  -9.399  19.764  0.00  0.00    -0.003 C 
ATOM     10  C   UNL     1     -13.622  -9.861  18.349  0.00  0.00    +0.020 C 
ATOM     11  C   UNL     1     -13.304 -11.590  20.756  0.00  0.00    +0.074 C 
ATOM     12  C   UNL     1     -13.121 -10.058  20.808  0.00  0.00    +0.024 C 
ATOM     13  C   UNL     1     -13.542 -11.403  18.337  0.00  0.00    +0.089 C 
ATOM     14  C   UNL     1     -15.465  -9.938  20.006  0.00  0.00    +0.019 C 
ATOM     15  C   UNL     1     -15.483 -11.455  19.752  0.00  0.00    +0.085 C 
ENDROOT
BRANCH  10  16
ATOM     16  C   UNL     1     -12.318  -9.225  17.871  0.00  0.00    +0.089 C 
BRANCH  16   4
ATOM      4  N   UNL     1     -12.498  -8.567  16.579  0.00  0.00    -0.299 NA
ATOM      6  N   UNL     1     -13.082  -6.394  14.817  0.00  0.00    -0.327 N 
ATOM     18  C   UNL     1     -11.551  -7.455  16.429  0.00  0.00    +0.103 C 
ATOM     19  C   UNL     1     -13.874  -8.072  16.439  0.00  0.00    +0.103 C 
ATOM     20  C   UNL     1     -11.691  -6.792  15.056  0.00  0.00    +0.120 C 
ATOM     21  C   UNL     1     -14.091  -7.432  15.067  0.00  0.00    +0.120 C 
BRANCH   6  23
ATOM      1  F   UNL     1     -14.216  -2.527  11.032  0.00  0.00    -0.205 F 
ATOM     23  C   UNL     1     -13.369  -5.416  13.859  0.00  0.00    +0.030 A 
ATOM     24  C   UNL     1     -14.689  -5.180  13.476  0.00  0.00    +0.026 A 
ATOM     25  C   UNL     1     -12.334  -4.676  13.287  0.00  0.00    +0.026 A 
ATOM     27  C   UNL     1     -14.976  -4.205  12.522  0.00  0.00    +0.040 A 
ATOM     28  C   UNL     1     -12.621  -3.700  12.332  0.00  0.00    +0.040 A 
ATOM     29  C   UNL     1     -13.941  -3.465  11.950  0.00  0.00    +0.124 A 
ENDBRANCH   6  23
ENDBRANCH  16   4
ENDBRANCH  10  16
BRANCH  11  17
ATOM     17  C   UNL     1     -11.963 -12.326  20.825  0.00  0.00    +0.124 C 
BRANCH  17   5
ATOM      2  O   UNL     1      -9.664 -12.868  19.206  0.00  0.00    -0.253 OA
ATOM      5  N   UNL     1     -10.878 -11.434  20.555  0.00  0.00    -0.298 N 
ATOM      7  N   UNL     1      -8.877 -10.705  19.665  0.00  0.00    -0.269 N 
ATOM     22  C   UNL     1      -9.777 -11.771  19.747  0.00  0.00    +0.304 C 
ATOM     36  H   UNL     1     -10.901 -10.510  20.973  0.00  0.00    +0.150 HD
ATOM     37  H   UNL     1      -9.122  -9.861  20.178  0.00  0.00    +0.156 HD
BRANCH   7  26
ATOM     26  C   UNL     1      -7.656 -10.652  18.953  0.00  0.00    +0.036 A 
ATOM     30  C   UNL     1      -6.509 -11.237  19.488  0.00  0.00    +0.042 A 
ATOM     31  C   UNL     1      -7.600 -10.014  17.713  0.00  0.00    +0.023 A 
ATOM     32  C   UNL     1      -5.306 -11.184  18.785  0.00  0.00    +0.054 A 
ATOM     33  C   UNL     1      -6.397  -9.961  17.010  0.00  0.00    +0.003 A 
ATOM     34  C   UNL     1      -5.250 -10.546  17.546  0.00  0.00    +0.019 A 
BRANCH  32  35
ATOM      8  N   UNL     1      -3.175 -12.269  19.781  0.00  0.00    -0.191 NA
ATOM     35  C   UNL     1      -4.130 -11.783  19.334  0.00  0.00    +0.099 C 
ENDBRANCH  32  35
ENDBRANCH   7  26
ENDBRANCH  17   5
ENDBRANCH  11  17
TORSDOF 7
ENDMDL
MODEL 3
REMARK VINA RESULT:      -7.1     18.969     21.915
REMARK  Name = 40780217
REMARK  7 active torsions:
REMARK  status: ('A' for Active; 'I' for Inactive)
REMARK    1  A    between atoms: N_4  and  C_16
REMARK    2  A    between atoms: N_5  and  C_17
REMARK    3  A    between atoms: N_6  and  C_23
REMARK    4  A    between atoms: N_7  and  C_26
REMARK    5  A    between atoms: C_10  and  C_16
REMARK    6  A    between atoms: C_11  and  C_17
REMARK    7  A    between atoms: C_32  and  C_35
REMARK                            x       y       z     vdW  Elec       q    Type
REMARK                         _______ _______ _______ _____ _____    ______ ____
ROOT
ATOM      3  N   UNL     1     -11.894  12.222  17.606  0.00  0.00    -0.298 NA
ATOM      9  C   UNL     1      -9.995  10.464  17.340  0.00  0.00    -0.003 C 
ATOM     10  C   UNL     1     -11.240  10.062  16.516  0.00  0.00    +0.020 C 
ATOM     11  C   UNL     1     -11.416  11.781  18.944  0.00  0.00    +0.074 C 
ATOM     12  C   UNL     1     -10.395  10.629  18.817  0.00  0.00    +0.024 C 
ATOM     13  C   UNL     1     -12.379  11.059  16.824  0.00  0.00    +0.089 C 
ATOM     14  C   UNL     1      -9.549  11.848  16.830  0.00  0.00    +0.019 C 
ATOM     15  C   UNL     1     -10.743  12.817  16.884  0.00  0.00    +0.085 C 
ENDROOT
BRANCH  10  16
ATOM     16  C   UNL     1     -11.677   8.618  16.751  0.00  0.00    +0.089 C 
BRANCH  16   4
ATOM      4  N   UNL     1     -12.177   8.436  18.112  0.00  0.00    -0.299 NA
ATOM      6  N   UNL     1     -13.417   7.032  20.270  0.00  0.00    -0.327 N 
ATOM     18  C   UNL     1     -11.482   7.325  18.774  0.00  0.00    +0.103 C 
ATOM     19  C   UNL     1     -13.624   8.184  18.101  0.00  0.00    +0.103 C 
ATOM     20  C   UNL     1     -11.957   7.160  20.220  0.00  0.00    +0.120 C 
ATOM     21  C   UNL     1     -14.169   8.049  19.524  0.00  0.00    +0.120 C 
BRANCH   6  23
ATOM      1  F   UNL     1     -15.819   4.753  24.697  0.00  0.00    -0.205 F 
ATOM     23  C   UNL     1     -14.025   6.455  21.390  0.00  0.00    +0.030 A 
ATOM     24  C   UNL     1     -15.259   6.928  21.836  0.00  0.00    +0.026 A 
ATOM     25  C   UNL     1     -13.396   5.407  22.063  0.00  0.00    +0.026 A 
ATOM     27  C   UNL     1     -15.865   6.354  22.952  0.00  0.00    +0.040 A 
ATOM     28  C   UNL     1     -14.002   4.833  23.180  0.00  0.00    +0.040 A 
ATOM     29  C   UNL     1     -15.237   5.306  23.624  0.00  0.00    +0.124 A 
ENDBRANCH   6  23
ENDBRANCH  16   4
ENDBRANCH  10  16
BRANCH  11  17
ATOM     17  C   UNL     1     -12.568  11.418  19.884  0.00  0.00    +0.124 C 
BRANCH  17   5
ATOM      2  O   UNL     1     -12.765   9.827  22.258  0.00  0.00    -0.253 OA
ATOM      5  N   UNL     1     -12.288  11.840  21.222  0.00  0.00    -0.298 N 
ATOM      7  N   UNL     1     -12.068  11.682  23.514  0.00  0.00    -0.269 N 
ATOM     22  C   UNL     1     -12.407  10.999  22.344  0.00  0.00    +0.304 C 
ATOM     36  H   UNL     1     -11.990  12.798  21.370  0.00  0.00    +0.150 HD
ATOM     37  H   UNL     1     -11.792  12.656  23.410  0.00  0.00    +0.156 HD
BRANCH   7  26
ATOM     26  C   UNL     1     -12.061  11.186  24.839  0.00  0.00    +0.036 A 
ATOM     30  C   UNL     1     -13.262  11.021  25.529  0.00  0.00    +0.042 A 
ATOM     31  C   UNL     1     -10.852  10.861  25.455  0.00  0.00    +0.023 A 
ATOM     32  C   UNL     1     -13.254  10.532  26.835  0.00  0.00    +0.054 A 
ATOM     33  C   UNL     1     -10.845  10.372  26.761  0.00  0.00    +0.003 A 
ATOM     34  C   UNL     1     -12.046  10.207  27.451  0.00  0.00    +0.019 A 
BRANCH  32  35
ATOM      8  N   UNL     1     -15.484  10.226  28.117  0.00  0.00    -0.191 NA
ATOM     35  C   UNL     1     -14.485  10.363  27.542  0.00  0.00    +0.099 C 
ENDBRANCH  32  35
ENDBRANCH   7  26
ENDBRANCH  17   5
ENDBRANCH  11  17
TORSDOF 7
ENDMDL
MODEL 4
REMARK VINA RESULT:      -7.1      3.862      7.284
REMARK  Name = 40780217
REMARK  7 active torsions:
REMARK  status: ('A' for Active; 'I' for Inactive)
REMARK    1  A    between atoms: N_4  and  C_16
REMARK    2  A    between atoms: N_5  and  C_17
REMARK    3  A    between atoms: N_6  and  C_23
REMARK    4  A    between atoms: N_7  and  C_26
REMARK    5  A    between atoms: C_10  and  C_16
REMARK    6  A    between atoms: C_11  and  C_17
REMARK    7  A    between atoms: C_32  and  C_35
REMARK                            x       y       z     vdW  Elec       q    Type
REMARK                         _______ _______ _______ _____ _____    ______ ____
ROOT
ATOM      3  N   UNL     1      -8.791 -11.870  17.534  0.00  0.00    -0.298 NA
ATOM      9  C   UNL     1     -11.037 -11.251  18.691  0.00  0.00    -0.003 C 
ATOM     10  C   UNL     1     -10.803 -10.378  17.437  0.00  0.00    +0.020 C 
ATOM     11  C   UNL     1      -8.562 -11.597  18.978  0.00  0.00    +0.074 C 
ATOM     12  C   UNL     1      -9.850 -11.083  19.657  0.00  0.00    +0.024 C 
ATOM     13  C   UNL     1      -9.397 -10.686  16.877  0.00  0.00    +0.089 C 
ATOM     14  C   UNL     1     -11.038 -12.719  18.221  0.00  0.00    +0.019 C 
ATOM     15  C   UNL     1      -9.748 -12.998  17.429  0.00  0.00    +0.085 C 
ENDROOT
BRANCH  10  16
ATOM     16  C   UNL     1     -10.990  -8.885  17.699  0.00  0.00    +0.089 C 
BRANCH  16   4
ATOM      4  N   UNL     1     -11.244  -8.162  16.455  0.00  0.00    -0.299 NA
ATOM      6  N   UNL     1     -12.466  -6.191  14.786  0.00  0.00    -0.327 N 
ATOM     18  C   UNL     1     -10.897  -6.743  16.602  0.00  0.00    +0.103 C 
ATOM     19  C   UNL     1     -12.652  -8.292  16.059  0.00  0.00    +0.103 C 
ATOM     20  C   UNL     1     -11.104  -5.985  15.288  0.00  0.00    +0.120 C 
ATOM     21  C   UNL     1     -12.917  -7.587  14.728  0.00  0.00    +0.120 C 
BRANCH   6  23
ATOM      1  F   UNL     1     -14.622  -2.614  11.163  0.00  0.00    -0.205 F 
ATOM     23  C   UNL     1     -13.012  -5.286  13.869  0.00  0.00    +0.030 A 
ATOM     24  C   UNL     1     -14.394  -5.212  13.699  0.00  0.00    +0.026 A 
ATOM     25  C   UNL     1     -12.173  -4.457  13.124  0.00  0.00    +0.026 A 
ATOM     27  C   UNL     1     -14.939  -4.311  12.786  0.00  0.00    +0.040 A 
ATOM     28  C   UNL     1     -12.717  -3.555  12.210  0.00  0.00    +0.040 A 
ATOM     29  C   UNL     1     -14.100  -3.481  12.041  0.00  0.00    +0.124 A 
ENDBRANCH   6  23
ENDBRANCH  16   4
ENDBRANCH  10  16
BRANCH  11  17
ATOM     17  C   UNL     1      -7.379 -10.654  19.213  0.00  0.00    +0.124 C 
BRANCH  17   5
ATOM      2  O   UNL     1      -6.025  -9.488  16.975  0.00  0.00    -0.253 OA
ATOM      5  N   UNL     1      -6.197 -11.148  18.578  0.00  0.00    -0.298 N 
ATOM      7  N   UNL     1      -4.451 -11.228  17.070  0.00  0.00    -0.269 N 
ATOM     22  C   UNL     1      -5.586 -10.520  17.477  0.00  0.00    +0.304 C 
ATOM     36  H   UNL     1      -5.780 -12.000  18.937  0.00  0.00    +0.150 HD
ATOM     37  H   UNL     1      -4.225 -12.068  17.596  0.00  0.00    +0.156 HD
BRANCH   7  26
ATOM     26  C   UNL     1      -3.571 -10.920  16.007  0.00  0.00    +0.036 A 
ATOM     30  C   UNL     1      -4.039 -10.909  14.693  0.00  0.00    +0.042 A 
ATOM     31  C   UNL     1      -2.233 -10.626  16.273  0.00  0.00    +0.023 A 
ATOM     32  C   UNL     1      -3.170 -10.605  13.645  0.00  0.00    +0.054 A 
ATOM     33  C   UNL     1      -1.365 -10.322  15.225  0.00  0.00    +0.003 A 
ATOM     34  C   UNL     1      -1.833 -10.311  13.912  0.00  0.00    +0.019 A 
BRANCH  32  35
ATOM      8  N   UNL     1      -4.040 -10.585  11.206  0.00  0.00    -0.191 NA
ATOM     35  C   UNL     1      -3.650 -10.594  12.299  0.00  0.00    +0.099 C 
ENDBRANCH  32  35
ENDBRANCH   7  26
ENDBRANCH  17   5
ENDBRANCH  11  17
TORSDOF 7
ENDMDL
MODEL 5
REMARK VINA RESULT:      -7.0      4.443      7.247
REMARK  Name = 40780217
REMARK  7 active torsions:
REMARK  status: ('A' for Active; 'I' for Inactive)
REMARK    1  A    between atoms: N_4  and  C_16
REMARK    2  A    between atoms: N_5  and  C_17
REMARK    3  A    between atoms: N_6  and  C_23
REMARK    4  A    between atoms: N_7  and  C_26
REMARK    5  A    between atoms: C_10  and  C_16
REMARK    6  A    between atoms: C_11  and  C_17
REMARK    7  A    between atoms: C_32  and  C_35
REMARK                            x       y       z     vdW  Elec       q    Type
REMARK                         _______ _______ _______ _____ _____    ______ ____
ROOT
ATOM      3  N   UNL     1      -5.793 -10.593   9.463  0.00  0.00    -0.298 NA
ATOM      9  C   UNL     1      -3.773  -9.375  10.560  0.00  0.00    -0.003 C 
ATOM     10  C   UNL     1      -3.472 -10.879  10.366  0.00  0.00    +0.020 C 
ATOM     11  C   UNL     1      -6.246  -9.827  10.655  0.00  0.00    +0.074 C 
ATOM     12  C   UNL     1      -5.046  -9.216  11.411  0.00  0.00    +0.024 C 
ATOM     13  C   UNL     1      -4.751 -11.574   9.848  0.00  0.00    +0.089 C 
ATOM     14  C   UNL     1      -4.082  -8.797   9.165  0.00  0.00    +0.019 C 
ATOM     15  C   UNL     1      -5.192  -9.633   8.505  0.00  0.00    +0.085 C 
ENDROOT
BRANCH  10  16
ATOM     16  C   UNL     1      -2.935 -11.552  11.627  0.00  0.00    +0.089 C 
BRANCH  16   4
ATOM      4  N   UNL     1      -3.857 -11.378  12.748  0.00  0.00    -0.299 NA
ATOM      6  N   UNL     1      -4.792 -11.694  15.429  0.00  0.00    -0.327 N 
ATOM     18  C   UNL     1      -3.198 -10.672  13.853  0.00  0.00    +0.103 C 
ATOM     19  C   UNL     1      -4.355 -12.679  13.213  0.00  0.00    +0.103 C 
ATOM     20  C   UNL     1      -4.170 -10.433  15.012  0.00  0.00    +0.120 C 
ATOM     21  C   UNL     1      -5.365 -12.507  14.349  0.00  0.00    +0.120 C 
BRANCH   6  23
ATOM      1  F   UNL     1      -7.039 -12.108  20.464  0.00  0.00    -0.205 F 
ATOM     23  C   UNL     1      -5.360 -11.798  16.703  0.00  0.00    +0.030 A 
ATOM     24  C   UNL     1      -6.273 -12.817  16.979  0.00  0.00    +0.026 A 
ATOM     25  C   UNL     1      -5.014 -10.884  17.699  0.00  0.00    +0.026 A 
ATOM     27  C   UNL     1      -6.840 -12.922  18.248  0.00  0.00    +0.040 A 
ATOM     28  C   UNL     1      -5.582 -10.989  18.969  0.00  0.00    +0.040 A 
ATOM     29  C   UNL     1      -6.494 -12.007  19.243  0.00  0.00    +0.124 A 
ENDBRANCH   6  23
ENDBRANCH  16   4
ENDBRANCH  10  16
BRANCH  11  17
ATOM     17  C   UNL     1      -7.137 -10.660  11.579  0.00  0.00    +0.124 C 
BRANCH  17   5
ATOM      2  O   UNL     1      -9.401 -10.455  13.323  0.00  0.00    -0.253 OA
ATOM      5  N   UNL     1      -7.151 -10.115  12.902  0.00  0.00    -0.298 N 
ATOM      7  N   UNL     1      -8.017  -9.468  14.941  0.00  0.00    -0.269 N 
ATOM     22  C   UNL     1      -8.306 -10.047  13.703  0.00  0.00    +0.304 C 
ATOM     36  H   UNL     1      -6.282  -9.755  13.281  0.00  0.00    +0.150 HD
ATOM     37  H   UNL     1      -7.054  -9.181  15.097  0.00  0.00    +0.156 HD
BRANCH   7  26
ATOM     26  C   UNL     1      -8.905  -9.226  16.015  0.00  0.00    +0.036 A 
ATOM     30  C   UNL     1      -9.002 -10.143  17.062  0.00  0.00    +0.042 A 
ATOM     31  C   UNL     1      -9.683  -8.068  16.028  0.00  0.00    +0.023 A 
ATOM     32  C   UNL     1      -9.877  -9.903  18.120  0.00  0.00    +0.054 A 
ATOM     33  C   UNL     1     -10.559  -7.829  17.087  0.00  0.00    +0.003 A 
ATOM     34  C   UNL     1     -10.655  -8.746  18.133  0.00  0.00    +0.019 A 
BRANCH  32  35
ATOM      8  N   UNL     1     -10.057 -11.607  20.064  0.00  0.00    -0.191 NA
ATOM     35  C   UNL     1      -9.977 -10.843  19.192  0.00  0.00    +0.099 C 
ENDBRANCH  32  35
ENDBRANCH   7  26
ENDBRANCH  17   5
ENDBRANCH  11  17
TORSDOF 7
ENDMDL
MODEL 6
REMARK VINA RESULT:      -7.0      4.083      7.732
REMARK  Name = 40780217
REMARK  7 active torsions:
REMARK  status: ('A' for Active; 'I' for Inactive)
REMARK    1  A    between atoms: N_4  and  C_16
REMARK    2  A    between atoms: N_5  and  C_17
REMARK    3  A    between atoms: N_6  and  C_23
REMARK    4  A    between atoms: N_7  and  C_26
REMARK    5  A    between atoms: C_10  and  C_16
REMARK    6  A    between atoms: C_11  and  C_17
REMARK    7  A    between atoms: C_32  and  C_35
REMARK                            x       y       z     vdW  Elec       q    Type
REMARK                         _______ _______ _______ _____ _____    ______ ____
ROOT
ATOM      3  N   UNL     1     -12.205 -12.098  18.974  0.00  0.00    -0.298 NA
ATOM      9  C   UNL     1     -12.076  -9.501  19.048  0.00  0.00    -0.003 C 
ATOM     10  C   UNL     1     -11.721 -10.032  17.640  0.00  0.00    +0.020 C 
ATOM     11  C   UNL     1     -11.344 -11.663  20.106  0.00  0.00    +0.074 C 
ATOM     12  C   UNL     1     -11.129 -10.134  20.084  0.00  0.00    +0.024 C 
ATOM     13  C   UNL     1     -11.673 -11.575  17.693  0.00  0.00    +0.089 C 
ATOM     14  C   UNL     1     -13.500  -9.998  19.368  0.00  0.00    +0.019 C 
ATOM     15  C   UNL     1     -13.557 -11.524  19.182  0.00  0.00    +0.085 C 
ENDROOT
BRANCH  10  16
ATOM     16  C   UNL     1     -10.425  -9.446  17.086  0.00  0.00    +0.089 C 
BRANCH  16   4
ATOM      4  N   UNL     1     -10.698  -8.470  16.032  0.00  0.00    -0.299 NA
ATOM      6  N   UNL     1     -12.206  -6.471  14.656  0.00  0.00    -0.327 N 
ATOM     18  C   UNL     1     -10.840  -7.123  16.599  0.00  0.00    +0.103 C 
ATOM     19  C   UNL     1     -11.917  -8.833  15.297  0.00  0.00    +0.103 C 
ATOM     20  C   UNL     1     -11.072  -6.083  15.499  0.00  0.00    +0.120 C 
ATOM     21  C   UNL     1     -12.182  -7.851  14.154  0.00  0.00    +0.120 C 
BRANCH   6  23
ATOM      1  F   UNL     1     -14.794  -2.647  11.615  0.00  0.00    -0.205 F 
ATOM     23  C   UNL     1     -12.861  -5.503  13.886  0.00  0.00    +0.030 A 
ATOM     24  C   UNL     1     -14.255  -5.461  13.856  0.00  0.00    +0.026 A 
ATOM     25  C   UNL     1     -12.120  -4.580  13.148  0.00  0.00    +0.026 A 
ATOM     27  C   UNL     1     -14.908  -4.497  13.090  0.00  0.00    +0.040 A 
ATOM     28  C   UNL     1     -12.773  -3.616  12.381  0.00  0.00    +0.040 A 
ATOM     29  C   UNL     1     -14.167  -3.574  12.352  0.00  0.00    +0.124 A 
ENDBRANCH   6  23
ENDBRANCH  16   4
ENDBRANCH  10  16
BRANCH  11  17
ATOM     17  C   UNL     1     -10.017 -12.423  20.155  0.00  0.00    +0.124 C 
BRANCH  17   5
ATOM      2  O   UNL     1      -8.271 -12.796  17.916  0.00  0.00    -0.253 OA
ATOM      5  N   UNL     1      -8.930 -11.578  19.769  0.00  0.00    -0.298 N 
ATOM      7  N   UNL     1      -7.135 -10.833  18.522  0.00  0.00    -0.269 N 
ATOM     22  C   UNL     1      -8.111 -11.825  18.651  0.00  0.00    +0.304 C 
ATOM     36  H   UNL     1      -8.736 -10.757  20.333  0.00  0.00    +0.150 HD
ATOM     37  H   UNL     1      -7.140 -10.095  19.221  0.00  0.00    +0.156 HD
BRANCH   7  26
ATOM     26  C   UNL     1      -6.130 -10.727  17.532  0.00  0.00    +0.036 A 
ATOM     30  C   UNL     1      -6.470 -10.368  16.228  0.00  0.00    +0.042 A 
ATOM     31  C   UNL     1      -4.799 -10.982  17.862  0.00  0.00    +0.023 A 
ATOM     32  C   UNL     1      -5.478 -10.263  15.253  0.00  0.00    +0.054 A 
ATOM     33  C   UNL     1      -3.808 -10.877  16.887  0.00  0.00    +0.003 A 
ATOM     34  C   UNL     1      -4.147 -10.518  15.583  0.00  0.00    +0.019 A 
BRANCH  32  35
ATOM      8  N   UNL     1      -6.108  -9.597  12.830  0.00  0.00    -0.191 NA
ATOM     35  C   UNL     1      -5.826  -9.895  13.917  0.00  0.00    +0.099 C 
ENDBRANCH  32  35
ENDBRANCH   7  26
ENDBRANCH  17   5
ENDBRANCH  11  17
TORSDOF 7
ENDMDL
MODEL 7
REMARK VINA RESULT:      -6.9     19.686     21.379
REMARK  Name = 40780217
REMARK  7 active torsions:
REMARK  status: ('A' for Active; 'I' for Inactive)
REMARK    1  A    between atoms: N_4  and  C_16
REMARK    2  A    between atoms: N_5  and  C_17
REMARK    3  A    between atoms: N_6  and  C_23
REMARK    4  A    between atoms: N_7  and  C_26
REMARK    5  A    between atoms: C_10  and  C_16
REMARK    6  A    between atoms: C_11  and  C_17
REMARK    7  A    between atoms: C_32  and  C_35
REMARK                            x       y       z     vdW  Elec       q    Type
REMARK                         _______ _______ _______ _____ _____    ______ ____
ROOT
ATOM      3  N   UNL     1     -16.345   3.717  24.186  0.00  0.00    -0.298 NA
ATOM      9  C   UNL     1     -17.675   5.119  22.443  0.00  0.00    -0.003 C 
ATOM     10  C   UNL     1     -16.183   5.523  22.455  0.00  0.00    +0.020 C 
ATOM     11  C   UNL     1     -17.536   4.334  24.829  0.00  0.00    +0.074 C 
ATOM     12  C   UNL     1     -18.260   5.291  23.857  0.00  0.00    +0.024 C 
ATOM     13  C   UNL     1     -15.476   4.766  23.601  0.00  0.00    +0.089 C 
ATOM     14  C   UNL     1     -17.728   3.616  22.107  0.00  0.00    +0.019 C 
ATOM     15  C   UNL     1     -16.822   2.845  23.084  0.00  0.00    +0.085 C 
ENDROOT
BRANCH  10  16
ATOM     16  C   UNL     1     -15.969   7.032  22.560  0.00  0.00    +0.089 C 
BRANCH  16   4
ATOM      4  N   UNL     1     -14.696   7.424  21.959  0.00  0.00    -0.299 NA
ATOM      6  N   UNL     1     -12.955   9.001  20.331  0.00  0.00    -0.327 N 
ATOM     18  C   UNL     1     -14.332   8.788  22.362  0.00  0.00    +0.103 C 
ATOM     19  C   UNL     1     -14.768   7.340  20.494  0.00  0.00    +0.103 C 
ATOM     20  C   UNL     1     -12.973   9.191  21.784  0.00  0.00    +0.120 C 
ATOM     21  C   UNL     1     -13.424   7.693  19.856  0.00  0.00    +0.120 C 
BRANCH   6  23
ATOM      1  F   UNL     1      -9.235  11.700  17.259  0.00  0.00    -0.205 F 
ATOM     23  C   UNL     1     -12.014   9.684  19.553  0.00  0.00    +0.030 A 
ATOM     24  C   UNL     1     -12.104  11.068  19.405  0.00  0.00    +0.026 A 
ATOM     25  C   UNL     1     -10.985   8.980  18.926  0.00  0.00    +0.026 A 
ATOM     27  C   UNL     1     -11.166  11.749  18.630  0.00  0.00    +0.040 A 
ATOM     28  C   UNL     1     -10.047   9.662  18.151  0.00  0.00    +0.040 A 
ATOM     29  C   UNL     1     -10.137  11.046  18.003  0.00  0.00    +0.124 A 
ENDBRANCH   6  23
ENDBRANCH  16   4
ENDBRANCH  10  16
BRANCH  11  17
ATOM     17  C   UNL     1     -17.194   5.021  26.153  0.00  0.00    +0.124 C 
BRANCH  17   5
ATOM      2  O   UNL     1     -17.358   4.123  28.868  0.00  0.00    -0.253 OA
ATOM      5  N   UNL     1     -16.202   4.281  26.871  0.00  0.00    -0.298 N 
ATOM      7  N   UNL     1     -15.226   3.169  28.642  0.00  0.00    -0.269 N 
ATOM     22  C   UNL     1     -16.353   3.873  28.209  0.00  0.00    +0.304 C 
ATOM     36  H   UNL     1     -15.342   4.040  26.390  0.00  0.00    +0.150 HD
ATOM     37  H   UNL     1     -14.475   3.049  27.967  0.00  0.00    +0.156 HD
BRANCH   7  26
ATOM     26  C   UNL     1     -14.996   2.598  29.916  0.00  0.00    +0.036 A 
ATOM     30  C   UNL     1     -14.792   3.420  31.023  0.00  0.00    +0.042 A 
ATOM     31  C   UNL     1     -14.974   1.211  30.064  0.00  0.00    +0.023 A 
ATOM     32  C   UNL     1     -14.564   2.857  32.279  0.00  0.00    +0.054 A 
ATOM     33  C   UNL     1     -14.747   0.648  31.319  0.00  0.00    +0.003 A 
ATOM     34  C   UNL     1     -14.543   1.470  32.427  0.00  0.00    +0.019 A 
BRANCH  32  35
ATOM      8  N   UNL     1     -14.184   4.386  34.335  0.00  0.00    -0.191 NA
ATOM     35  C   UNL     1     -14.355   3.700  33.414  0.00  0.00    +0.099 C 
ENDBRANCH  32  35
ENDBRANCH   7  26
ENDBRANCH  17   5
ENDBRANCH  11  17
TORSDOF 7
ENDMDL
MODEL 8
REMARK VINA RESULT:      -6.9      3.768      7.112
REMARK  Name = 40780217
REMARK  7 active torsions:
REMARK  status: ('A' for Active; 'I' for Inactive)
REMARK    1  A    between atoms: N_4  and  C_16
REMARK    2  A    between atoms: N_5  and  C_17
REMARK    3  A    between atoms: N_6  and  C_23
REMARK    4  A    between atoms: N_7  and  C_26
REMARK    5  A    between atoms: C_10  and  C_16
REMARK    6  A    between atoms: C_11  and  C_17
REMARK    7  A    between atoms: C_32  and  C_35
REMARK                            x       y       z     vdW  Elec       q    Type
REMARK                         _______ _______ _______ _____ _____    ______ ____
ROOT
ATOM      3  N   UNL     1     -12.291  -9.362  16.326  0.00  0.00    -0.298 NA
ATOM      9  C   UNL     1     -10.540  -7.663  15.421  0.00  0.00    -0.003 C 
ATOM     10  C   UNL     1     -10.363  -9.047  14.755  0.00  0.00    +0.020 C 
ATOM     11  C   UNL     1     -11.574  -8.717  17.459  0.00  0.00    +0.074 C 
ATOM     12  C   UNL     1     -10.428  -7.816  16.949  0.00  0.00    +0.024 C 
ATOM     13  C   UNL     1     -11.328 -10.047  15.431  0.00  0.00    +0.089 C 
ATOM     14  C   UNL     1     -11.978  -7.200  15.114  0.00  0.00    +0.019 C 
ATOM     15  C   UNL     1     -12.967  -8.295  15.548  0.00  0.00    +0.085 C 
ENDROOT
BRANCH  10  16
ATOM     16  C   UNL     1      -8.921  -9.548  14.784  0.00  0.00    +0.089 C 
BRANCH  16   4
ATOM      4  N   UNL     1      -8.262  -9.326  13.498  0.00  0.00    -0.299 NA
ATOM      6  N   UNL     1      -7.005 -10.082  11.046  0.00  0.00    -0.327 N 
ATOM     18  C   UNL     1      -9.051  -9.909  12.406  0.00  0.00    +0.103 C 
ATOM     19  C   UNL     1      -6.913  -9.905  13.503  0.00  0.00    +0.103 C 
ATOM     20  C   UNL     1      -8.401  -9.634  11.047  0.00  0.00    +0.120 C 
ATOM     21  C   UNL     1      -6.192  -9.628  12.182  0.00  0.00    +0.120 C 
BRANCH   6  23
ATOM      1  F   UNL     1      -4.444 -11.059   6.245  0.00  0.00    -0.205 F 
ATOM     23  C   UNL     1      -6.357 -10.329   9.831  0.00  0.00    +0.030 A 
ATOM     24  C   UNL     1      -6.774  -9.676   8.672  0.00  0.00    +0.026 A 
ATOM     25  C   UNL     1      -5.293 -11.230   9.779  0.00  0.00    +0.026 A 
ATOM     27  C   UNL     1      -6.129  -9.922   7.461  0.00  0.00    +0.040 A 
ATOM     28  C   UNL     1      -4.647 -11.477   8.567  0.00  0.00    +0.040 A 
ATOM     29  C   UNL     1      -5.065 -10.822   7.409  0.00  0.00    +0.124 A 
ENDBRANCH   6  23
ENDBRANCH  16   4
ENDBRANCH  10  16
BRANCH  11  17
ATOM     17  C   UNL     1     -11.083  -9.733  18.492  0.00  0.00    +0.124 C 
BRANCH  17   5
ATOM      2  O   UNL     1      -8.911 -11.425  17.701  0.00  0.00    -0.253 OA
ATOM      5  N   UNL     1      -9.696  -9.536  18.782  0.00  0.00    -0.298 N 
ATOM      7  N   UNL     1      -7.428  -9.966  18.788  0.00  0.00    -0.269 N 
ATOM     22  C   UNL     1      -8.680 -10.414  18.359  0.00  0.00    +0.304 C 
ATOM     36  H   UNL     1      -9.430  -8.722  19.326  0.00  0.00    +0.150 HD
ATOM     37  H   UNL     1      -7.412  -9.105  19.328  0.00  0.00    +0.156 HD
BRANCH   7  26
ATOM     26  C   UNL     1      -6.167 -10.568  18.565  0.00  0.00    +0.036 A 
ATOM     30  C   UNL     1      -5.512 -10.387  17.347  0.00  0.00    +0.042 A 
ATOM     31  C   UNL     1      -5.579 -11.343  19.565  0.00  0.00    +0.023 A 
ATOM     32  C   UNL     1      -4.270 -10.980  17.128  0.00  0.00    +0.054 A 
ATOM     33  C   UNL     1      -4.336 -11.936  19.345  0.00  0.00    +0.003 A 
ATOM     34  C   UNL     1      -3.681 -11.755  18.128  0.00  0.00    +0.019 A 
BRANCH  32  35
ATOM      8  N   UNL     1      -3.053 -10.643  14.866  0.00  0.00    -0.191 NA
ATOM     35  C   UNL     1      -3.599 -10.795  15.880  0.00  0.00    +0.099 C 
ENDBRANCH  32  35
ENDBRANCH   7  26
ENDBRANCH  17   5
ENDBRANCH  11  17
TORSDOF 7
ENDMDL
MODEL 9
REMARK VINA RESULT:      -6.8      3.519      7.930
REMARK  Name = 40780217
REMARK  7 active torsions:
REMARK  status: ('A' for Active; 'I' for Inactive)
REMARK    1  A    between atoms: N_4  and  C_16
REMARK    2  A    between atoms: N_5  and  C_17
REMARK    3  A    between atoms: N_6  and  C_23
REMARK    4  A    between atoms: N_7  and  C_26
REMARK    5  A    between atoms: C_10  and  C_16
REMARK    6  A    between atoms: C_11  and  C_17
REMARK    7  A    between atoms: C_32  and  C_35
REMARK                            x       y       z     vdW  Elec       q    Type
REMARK                         _______ _______ _______ _____ _____    ______ ____
ROOT
ATOM      3  N   UNL     1      -6.835 -12.827  18.231  0.00  0.00    -0.298 NA
ATOM      9  C   UNL     1      -6.341 -10.325  18.748  0.00  0.00    -0.003 C 
ATOM     10  C   UNL     1      -7.478 -10.461  17.709  0.00  0.00    +0.020 C 
ATOM     11  C   UNL     1      -5.383 -12.550  18.068  0.00  0.00    +0.074 C 
ATOM     12  C   UNL     1      -5.084 -11.043  18.222  0.00  0.00    +0.024 C 
ATOM     13  C   UNL     1      -7.629 -11.952  17.335  0.00  0.00    +0.089 C 
ATOM     14  C   UNL     1      -6.799 -11.076  20.013  0.00  0.00    +0.019 C 
ATOM     15  C   UNL     1      -7.205 -12.511  19.632  0.00  0.00    +0.085 C 
ENDROOT
BRANCH  10  16
ATOM     16  C   UNL     1      -7.272  -9.588  16.474  0.00  0.00    +0.089 C 
BRANCH  16   4
ATOM      4  N   UNL     1      -8.446  -8.754  16.218  0.00  0.00    -0.299 NA
ATOM      6  N   UNL     1     -11.235  -8.155  16.061  0.00  0.00    -0.327 N 
ATOM     18  C   UNL     1      -9.243  -8.595  17.441  0.00  0.00    +0.103 C 
ATOM     19  C   UNL     1      -9.273  -9.340  15.156  0.00  0.00    +0.103 C 
ATOM     20  C   UNL     1     -10.445  -7.678  17.200  0.00  0.00    +0.120 C 
ATOM     21  C   UNL     1     -10.474  -8.448  14.839  0.00  0.00    +0.120 C 
BRANCH   6  23
ATOM      1  F   UNL     1     -16.503  -6.567  15.522  0.00  0.00    -0.205 F 
ATOM     23  C   UNL     1     -12.568  -7.753  15.924  0.00  0.00    +0.030 A 
ATOM     24  C   UNL     1     -12.903  -6.741  15.025  0.00  0.00    +0.026 A 
ATOM     25  C   UNL     1     -13.562  -8.365  16.688  0.00  0.00    +0.026 A 
ATOM     27  C   UNL     1     -14.231  -6.340  14.889  0.00  0.00    +0.040 A 
ATOM     28  C   UNL     1     -14.891  -7.964  16.552  0.00  0.00    +0.040 A 
ATOM     29  C   UNL     1     -15.226  -6.952  15.652  0.00  0.00    +0.124 A 
ENDBRANCH   6  23
ENDBRANCH  16   4
ENDBRANCH  10  16
BRANCH  11  17
ATOM     17  C   UNL     1      -4.826 -13.108  16.756  0.00  0.00    +0.124 C 
BRANCH  17   5
ATOM      2  O   UNL     1      -5.244 -12.646  13.960  0.00  0.00    -0.253 OA
ATOM      5  N   UNL     1      -4.244 -12.068  15.965  0.00  0.00    -0.298 N 
ATOM      7  N   UNL     1      -3.792 -10.807  14.086  0.00  0.00    -0.269 N 
ATOM     22  C   UNL     1      -4.496 -11.903  14.591  0.00  0.00    +0.304 C 
ATOM     36  H   UNL     1      -3.611 -11.418  16.418  0.00  0.00    +0.150 HD
ATOM     37  H   UNL     1      -3.212 -10.294  14.746  0.00  0.00    +0.156 HD
BRANCH   7  26
ATOM     26  C   UNL     1      -3.782 -10.317  12.759  0.00  0.00    +0.036 A 
ATOM     30  C   UNL     1      -4.961  -9.850  12.178  0.00  0.00    +0.042 A 
ATOM     31  C   UNL     1      -2.592 -10.300  12.032  0.00  0.00    +0.023 A 
ATOM     32  C   UNL     1      -4.950  -9.367  10.870  0.00  0.00    +0.054 A 
ATOM     33  C   UNL     1      -2.581  -9.817  10.724  0.00  0.00    +0.003 A 
ATOM     34  C   UNL     1      -3.760  -9.350  10.143  0.00  0.00    +0.019 A 
BRANCH  32  35
ATOM      8  N   UNL     1      -7.140  -8.500   9.791  0.00  0.00    -0.191 NA
ATOM     35  C   UNL     1      -6.158  -8.889  10.275  0.00  0.00    +0.099 C 
ENDBRANCH  32  35
ENDBRANCH   7  26
ENDBRANCH  17   5
ENDBRANCH  11  17
TORSDOF 7
ENDMDL
MODEL 10
REMARK VINA RESULT:      -6.8     19.217     21.190
REMARK  Name = 40780217
REMARK  7 active torsions:
REMARK  status: ('A' for Active; 'I' for Inactive)
REMARK    1  A    between atoms: N_4  and  C_16
REMARK    2  A    between atoms: N_5  and  C_17
REMARK    3  A    between atoms: N_6  and  C_23
REMARK    4  A    between atoms: N_7  and  C_26
REMARK    5  A    between atoms: C_10  and  C_16
REMARK    6  A    between atoms: C_11  and  C_17
REMARK    7  A    between atoms: C_32  and  C_35
REMARK                            x       y       z     vdW  Elec       q    Type
REMARK                         _______ _______ _______ _____ _____    ______ ____
ROOT
ATOM      3  N   UNL     1     -17.484   1.581  25.799  0.00  0.00    -0.298 NA
ATOM      9  C   UNL     1     -18.476   2.267  23.494  0.00  0.00    -0.003 C 
ATOM     10  C   UNL     1     -17.088   2.913  23.713  0.00  0.00    +0.020 C 
ATOM     11  C   UNL     1     -18.859   2.121  25.977  0.00  0.00    +0.074 C 
ATOM     12  C   UNL     1     -19.414   2.674  24.646  0.00  0.00    +0.024 C 
ATOM     13  C   UNL     1     -16.615   2.590  25.148  0.00  0.00    +0.089 C 
ATOM     14  C   UNL     1     -18.279   0.742  23.584  0.00  0.00    +0.019 C 
ATOM     15  C   UNL     1     -17.570   0.399  24.906  0.00  0.00    +0.085 C 
ENDROOT
BRANCH  10  16
ATOM     16  C   UNL     1     -17.074   4.415  23.440  0.00  0.00    +0.089 C 
BRANCH  16   4
ATOM      4  N   UNL     1     -16.079   4.754  22.423  0.00  0.00    -0.299 NA
ATOM      6  N   UNL     1     -14.155   6.403  21.105  0.00  0.00    -0.327 N 
ATOM     18  C   UNL     1     -14.775   5.017  23.043  0.00  0.00    +0.103 C 
ATOM     19  C   UNL     1     -16.510   5.927  21.651  0.00  0.00    +0.103 C 
ATOM     20  C   UNL     1     -13.711   5.318  21.984  0.00  0.00    +0.120 C 
ATOM     21  C   UNL     1     -15.505   6.256  20.546  0.00  0.00    +0.120 C 
BRANCH   6  23
ATOM      1  F   UNL     1     -10.430   9.255  18.179  0.00  0.00    -0.205 F 
ATOM     23  C   UNL     1     -13.212   7.125  20.364  0.00  0.00    +0.030 A 
ATOM     24  C   UNL     1     -13.597   7.780  19.194  0.00  0.00    +0.026 A 
ATOM     25  C   UNL     1     -11.887   7.189  20.796  0.00  0.00    +0.026 A 
ATOM     27  C   UNL     1     -12.658   8.500  18.456  0.00  0.00    +0.040 A 
ATOM     28  C   UNL     1     -10.948   7.909  20.057  0.00  0.00    +0.040 A 
ATOM     29  C   UNL     1     -11.333   8.564  18.888  0.00  0.00    +0.124 A 
ENDBRANCH   6  23
ENDBRANCH  16   4
ENDBRANCH  10  16
BRANCH  11  17
ATOM     17  C   UNL     1     -18.938   3.157  27.101  0.00  0.00    +0.124 C 
BRANCH  17   5
ATOM      2  O   UNL     1     -16.627   4.363  28.289  0.00  0.00    -0.253 OA
ATOM      5  N   UNL     1     -18.239   2.703  28.263  0.00  0.00    -0.298 N 
ATOM      7  N   UNL     1     -16.638   2.682  29.926  0.00  0.00    -0.269 N 
ATOM     22  C   UNL     1     -17.106   3.350  28.791  0.00  0.00    +0.304 C 
ATOM     36  H   UNL     1     -18.575   1.868  28.730  0.00  0.00    +0.150 HD
ATOM     37  H   UNL     1     -17.152   1.852  30.211  0.00  0.00    +0.156 HD
BRANCH   7  26
ATOM     26  C   UNL     1     -15.528   3.018  30.736  0.00  0.00    +0.036 A 
ATOM     30  C   UNL     1     -15.728   3.585  31.995  0.00  0.00    +0.042 A 
ATOM     31  C   UNL     1     -14.233   2.782  30.275  0.00  0.00    +0.023 A 
ATOM     32  C   UNL     1     -14.633   3.916  32.792  0.00  0.00    +0.054 A 
ATOM     33  C   UNL     1     -13.138   3.113  31.073  0.00  0.00    +0.003 A 
ATOM     34  C   UNL     1     -13.338   3.679  32.331  0.00  0.00    +0.019 A 
BRANCH  32  35
ATOM      8  N   UNL     1     -15.003   4.968  35.130  0.00  0.00    -0.191 NA
ATOM     35  C   UNL     1     -14.837   4.497  34.082  0.00  0.00    +0.099 C 
ENDBRANCH  32  35
ENDBRANCH   7  26
ENDBRANCH  17   5
ENDBRANCH  11  17
TORSDOF 7
ENDMDL
