REMARK  Name = 11884253
REMARK  3 active torsions:
REMARK  status: ('A' for Active; 'I' for Inactive)
REMARK    1  A    between atoms: C_11  and  C_18
REMARK    2  A    between atoms: C_27  and  C_29
REMARK    3  A    between atoms: C_32  and  C_35
REMARK                            x       y       z     vdW  Elec       q    Type
REMARK                         _______ _______ _______ _____ _____    ______ ____
ROOT
ATOM      4  O   UNL     1      -5.581   0.157   2.110  0.00  0.00    -0.275 OA
ATOM      5  O   UNL     1      -2.841   2.432   0.343  0.00  0.00    -0.273 OA
ATOM      6  O   UNL     1       0.484  -1.073  -1.800  0.00  0.00    -0.270 OA
ATOM      7  N   UNL     1      -3.946  -0.345   0.530  0.00  0.00    -0.298 N 
ATOM      8  N   UNL     1      -1.196  -0.326  -0.397  0.00  0.00    -0.283 N 
ATOM     10  N   UNL     1      -0.592   2.542   0.006  0.00  0.00    -0.283 N 
ATOM     12  C   UNL     1      -1.579   0.423   0.792  0.00  0.00    +0.180 C 
ATOM     13  C   UNL     1      -2.838  -0.137   1.465  0.00  0.00    +0.139 C 
ATOM     14  C   UNL     1      -3.596  -0.740  -0.837  0.00  0.00    +0.127 C 
ATOM     15  C   UNL     1      -2.174  -1.271  -0.939  0.00  0.00    +0.128 C 
ATOM     18  C   UNL     1      -5.262  -0.173   0.971  0.00  0.00    +0.219 C 
ATOM     21  C   UNL     1      -1.746   1.865   0.337  0.00  0.00    +0.239 C 
ATOM     22  C   UNL     1       0.094  -0.306  -0.918  0.00  0.00    +0.249 C 
ATOM     23  C   UNL     1       1.058   0.708  -0.415  0.00  0.00    +0.059 A 
ATOM     24  C   UNL     1       0.719   2.033  -0.097  0.00  0.00    +0.046 A 
ATOM     25  C   UNL     1       2.414   0.332  -0.442  0.00  0.00    +0.023 A 
ATOM     26  C   UNL     1       1.749   2.967   0.116  0.00  0.00    +0.024 A 
ATOM     27  C   UNL     1       3.421   1.260  -0.180  0.00  0.00    -0.017 A 
ATOM     28  C   UNL     1       3.088   2.582   0.086  0.00  0.00    +0.010 A 
ATOM     37  H   UNL     1      -0.687   3.551  -0.079  0.00  0.00    +0.155 HD
ENDROOT
BRANCH  18  11
ATOM      9  N   UNL     1      -9.095  -1.310  -0.521  0.00  0.00    -0.316 NA
ATOM     11  C   UNL     1      -6.353  -0.429  -0.024  0.00  0.00    +0.078 C 
ATOM     16  C   UNL     1      -7.563   0.456   0.280  0.00  0.00    +0.028 C 
ATOM     17  C   UNL     1      -6.753  -1.905  -0.003  0.00  0.00    +0.028 C 
ATOM     19  C   UNL     1      -8.746   0.107  -0.621  0.00  0.00    +0.081 C 
ATOM     20  C   UNL     1      -7.967  -2.165  -0.892  0.00  0.00    +0.081 C 
ATOM     36  H   UNL     1      -9.364  -1.518   0.441  0.00  0.00    +0.122 HD
ENDBRANCH  18  11
BRANCH  27  29
ATOM     29  C   UNL     1       4.809   0.852  -0.207  0.00  0.00    -0.017 A 
ATOM     30  C   UNL     1       5.161  -0.449   0.151  0.00  0.00    +0.021 A 
ATOM     31  C   UNL     1       5.795   1.761  -0.592  0.00  0.00    +0.008 A 
ATOM     32  C   UNL     1       6.500  -0.841   0.126  0.00  0.00    +0.055 A 
ATOM     33  C   UNL     1       7.133   1.369  -0.617  0.00  0.00    +0.001 A 
ATOM     34  C   UNL     1       7.486   0.068  -0.259  0.00  0.00    +0.012 A 
BRANCH  32  35
ATOM      1  F   UNL     1       8.220  -2.474   0.438  0.00  0.00    -0.166 F 
ATOM      2  F   UNL     1       6.524  -2.562   1.787  0.00  0.00    -0.166 F 
ATOM      3  F   UNL     1       6.293  -3.173  -0.287  0.00  0.00    -0.166 F 
ATOM     35  C   UNL     1       6.878  -2.232   0.509  0.00  0.00    +0.417 C 
ENDBRANCH  32  35
ENDBRANCH  27  29
TORSDOF 3
