MODEL 1
REMARK VINA RESULT:      -7.5      0.000      0.000
REMARK  Name = 75536677
REMARK  8 active torsions:
REMARK  status: ('A' for Active; 'I' for Inactive)
REMARK    1  A    between atoms: S_1  and  N_9
REMARK    2  A    between atoms: S_1  and  C_22
REMARK    3  A    between atoms: O_3  and  C_12
REMARK    4  A    between atoms: N_7  and  C_10
REMARK    5  A    between atoms: N_7  and  C_11
REMARK    6  A    between atoms: N_9  and  C_19
REMARK    7  A    between atoms: C_13  and  C_19
REMARK    8  A    between atoms: C_20  and  C_21
REMARK                            x       y       z     vdW  Elec       q    Type
REMARK                         _______ _______ _______ _____ _____    ______ ____
ROOT
ATOM      2  O   UNL     1      16.272   5.894  19.052  0.00  0.00    -0.371 OA
ATOM     10  C   UNL     1      18.310   6.163  20.243  0.00  0.00    +0.111 C 
ATOM     12  C   UNL     1      17.408   7.347  20.532  0.00  0.00    +0.164 C 
ATOM     13  C   UNL     1      16.045   6.776  20.164  0.00  0.00    +0.164 C 
ATOM     14  C   UNL     1      17.680   5.608  18.976  0.00  0.00    +0.181 C 
ENDROOT
BRANCH  12   3
ATOM      3  O   UNL     1      17.460   7.755  21.886  0.00  0.00    -0.388 OA
ATOM     29  H   UNL     1      16.594   7.584  22.290  0.00  0.00    +0.210 HD
ENDBRANCH  12   3
BRANCH  10   7
ATOM      7  N   UNL     1      19.708   6.522  20.069  0.00  0.00    -0.306 NA
ATOM     28  H   UNL     1      19.838   7.520  20.229  0.00  0.00    +0.123 HD
BRANCH   7  11
ATOM      4  O   UNL     1      25.235   4.108  21.269  0.00  0.00    -0.276 OA
ATOM      8  N   UNL     1      22.919   4.154  21.461  0.00  0.00    -0.302 N 
ATOM     11  C   UNL     1      20.557   5.756  20.978  0.00  0.00    +0.057 C 
ATOM     15  C   UNL     1      20.648   4.297  20.511  0.00  0.00    +0.037 C 
ATOM     16  C   UNL     1      21.955   6.385  21.048  0.00  0.00    +0.037 C 
ATOM     17  C   UNL     1      21.608   3.498  21.393  0.00  0.00    +0.109 C 
ATOM     18  C   UNL     1      22.888   5.544  21.919  0.00  0.00    +0.109 C 
ATOM     20  C   UNL     1      24.140   3.546  21.170  0.00  0.00    +0.212 C 
ATOM     21  C   UNL     1      24.088   2.114  20.701  0.00  0.00    +0.109 C 
ENDBRANCH   7  11
ENDBRANCH  10   7
BRANCH  13  19
ATOM     19  C   UNL     1      15.033   7.840  19.777  0.00  0.00    +0.140 C 
BRANCH  19   9
ATOM      9  N   UNL     1      14.170   7.330  18.694  0.00  0.00    -0.187 NA
ATOM     30  H   UNL     1      14.652   6.828  17.939  0.00  0.00    +0.148 HD
BRANCH   9   1
ATOM      1  S   UNL     1      12.699   8.109  18.340  0.00  0.00    +0.058 S 
ATOM      5  O   UNL     1      11.905   7.264  17.468  0.00  0.00    -0.153 OA
ATOM      6  O   UNL     1      12.970   9.486  17.974  0.00  0.00    -0.153 OA
BRANCH   1  22
ATOM     22  C   UNL     1      11.916   8.142  19.925  0.00  0.00    +0.105 A 
ATOM     23  C   UNL     1      11.623   9.363  20.533  0.00  0.00    +0.028 A 
ATOM     24  C   UNL     1      11.597   6.948  20.570  0.00  0.00    +0.028 A 
ATOM     25  C   UNL     1      11.009   9.389  21.786  0.00  0.00    +0.002 A 
ATOM     26  C   UNL     1      10.982   6.974  21.823  0.00  0.00    +0.002 A 
ATOM     27  C   UNL     1      10.689   8.195  22.430  0.00  0.00    +0.000 A 
ENDBRANCH   1  22
ENDBRANCH   9   1
ENDBRANCH  19   9
ENDBRANCH  13  19
TORSDOF 7
ENDMDL
MODEL 2
REMARK VINA RESULT:      -7.1      3.849      9.541
REMARK  Name = 75536677
REMARK  8 active torsions:
REMARK  status: ('A' for Active; 'I' for Inactive)
REMARK    1  A    between atoms: S_1  and  N_9
REMARK    2  A    between atoms: S_1  and  C_22
REMARK    3  A    between atoms: O_3  and  C_12
REMARK    4  A    between atoms: N_7  and  C_10
REMARK    5  A    between atoms: N_7  and  C_11
REMARK    6  A    between atoms: N_9  and  C_19
REMARK    7  A    between atoms: C_13  and  C_19
REMARK    8  A    between atoms: C_20  and  C_21
REMARK                            x       y       z     vdW  Elec       q    Type
REMARK                         _______ _______ _______ _____ _____    ______ ____
ROOT
ATOM      2  O   UNL     1      12.379   6.651  21.418  0.00  0.00    -0.371 OA
ATOM     10  C   UNL     1      10.594   8.219  21.405  0.00  0.00    +0.111 C 
ATOM     12  C   UNL     1      11.372   8.342  20.108  0.00  0.00    +0.164 C 
ATOM     13  C   UNL     1      12.074   6.992  20.056  0.00  0.00    +0.164 C 
ATOM     14  C   UNL     1      11.594   7.489  22.286  0.00  0.00    +0.181 C 
ENDROOT
BRANCH  12   3
ATOM      3  O   UNL     1      10.534   8.544  18.986  0.00  0.00    -0.388 OA
ATOM     29  H   UNL     1      10.922   9.246  18.437  0.00  0.00    +0.210 HD
ENDBRANCH  12   3
BRANCH  10   7
ATOM      7  N   UNL     1      10.178   9.496  21.960  0.00  0.00    -0.306 NA
ATOM     28  H   UNL     1       9.491   9.352  22.698  0.00  0.00    +0.123 HD
BRANCH   7  11
ATOM      4  O   UNL     1      12.285  14.366  25.067  0.00  0.00    -0.276 OA
ATOM      8  N   UNL     1      12.497  12.688  23.474  0.00  0.00    -0.302 N 
ATOM     11  C   UNL     1      11.326  10.233  22.483  0.00  0.00    +0.057 C 
ATOM     15  C   UNL     1      11.682  11.391  21.541  0.00  0.00    +0.037 C 
ATOM     16  C   UNL     1      11.015  10.762  23.889  0.00  0.00    +0.037 C 
ATOM     17  C   UNL     1      12.821  12.234  22.116  0.00  0.00    +0.109 C 
ATOM     18  C   UNL     1      12.166  11.618  24.417  0.00  0.00    +0.109 C 
ATOM     20  C   UNL     1      12.526  14.012  23.910  0.00  0.00    +0.212 C 
ATOM     21  C   UNL     1      12.872  15.056  22.878  0.00  0.00    +0.109 C 
ENDBRANCH   7  11
ENDBRANCH  10   7
BRANCH  13  19
ATOM     19  C   UNL     1      13.350   7.010  19.233  0.00  0.00    +0.140 C 
BRANCH  19   9
ATOM      9  N   UNL     1      14.515   6.846  20.125  0.00  0.00    -0.187 NA
ATOM     30  H   UNL     1      14.491   6.026  20.743  0.00  0.00    +0.148 HD
BRANCH   9   1
ATOM      1  S   UNL     1      15.408   8.208  20.618  0.00  0.00    +0.058 S 
ATOM      5  O   UNL     1      15.024   8.571  21.969  0.00  0.00    -0.153 OA
ATOM      6  O   UNL     1      15.378   9.200  19.560  0.00  0.00    -0.153 OA
BRANCH   1  22
ATOM     22  C   UNL     1      17.053   7.563  20.673  0.00  0.00    +0.105 A 
ATOM     23  C   UNL     1      18.039   8.227  21.402  0.00  0.00    +0.028 A 
ATOM     24  C   UNL     1      17.365   6.392  19.983  0.00  0.00    +0.028 A 
ATOM     25  C   UNL     1      19.338   7.720  21.442  0.00  0.00    +0.002 A 
ATOM     26  C   UNL     1      18.665   5.884  20.023  0.00  0.00    +0.002 A 
ATOM     27  C   UNL     1      19.651   6.549  20.752  0.00  0.00    +0.000 A 
ENDBRANCH   1  22
ENDBRANCH   9   1
ENDBRANCH  19   9
ENDBRANCH  13  19
TORSDOF 7
ENDMDL
MODEL 3
REMARK VINA RESULT:      -7.0      1.166      1.702
REMARK  Name = 75536677
REMARK  8 active torsions:
REMARK  status: ('A' for Active; 'I' for Inactive)
REMARK    1  A    between atoms: S_1  and  N_9
REMARK    2  A    between atoms: S_1  and  C_22
REMARK    3  A    between atoms: O_3  and  C_12
REMARK    4  A    between atoms: N_7  and  C_10
REMARK    5  A    between atoms: N_7  and  C_11
REMARK    6  A    between atoms: N_9  and  C_19
REMARK    7  A    between atoms: C_13  and  C_19
REMARK    8  A    between atoms: C_20  and  C_21
REMARK                            x       y       z     vdW  Elec       q    Type
REMARK                         _______ _______ _______ _____ _____    ______ ____
ROOT
ATOM      2  O   UNL     1      17.756   7.260  21.337  0.00  0.00    -0.371 OA
ATOM     10  C   UNL     1      19.236   5.892  20.080  0.00  0.00    +0.111 C 
ATOM     12  C   UNL     1      17.817   5.661  19.596  0.00  0.00    +0.164 C 
ATOM     13  C   UNL     1      17.129   6.927  20.087  0.00  0.00    +0.164 C 
ATOM     14  C   UNL     1      18.991   6.528  21.438  0.00  0.00    +0.181 C 
ENDROOT
BRANCH  12   3
ATOM      3  O   UNL     1      17.735   5.527  18.190  0.00  0.00    -0.388 OA
ATOM     29  H   UNL     1      17.963   4.613  17.956  0.00  0.00    +0.210 HD
ENDBRANCH  12   3
BRANCH  10   7
ATOM      7  N   UNL     1      20.031   4.677  20.160  0.00  0.00    -0.306 NA
ATOM     28  H   UNL     1      20.331   4.391  19.230  0.00  0.00    +0.123 HD
BRANCH   7  11
ATOM      4  O   UNL     1      26.152   4.936  20.693  0.00  0.00    -0.276 OA
ATOM      8  N   UNL     1      24.024   4.542  21.539  0.00  0.00    -0.302 N 
ATOM     11  C   UNL     1      21.195   4.875  21.021  0.00  0.00    +0.057 C 
ATOM     15  C   UNL     1      21.782   3.518  21.433  0.00  0.00    +0.037 C 
ATOM     16  C   UNL     1      22.251   5.717  20.293  0.00  0.00    +0.037 C 
ATOM     17  C   UNL     1      23.058   3.701  22.256  0.00  0.00    +0.109 C 
ATOM     18  C   UNL     1      23.516   5.856  21.139  0.00  0.00    +0.109 C 
ATOM     20  C   UNL     1      25.347   4.197  21.266  0.00  0.00    +0.212 C 
ATOM     21  C   UNL     1      25.793   2.825  21.707  0.00  0.00    +0.109 C 
ENDBRANCH   7  11
ENDBRANCH  10   7
BRANCH  13  19
ATOM     19  C   UNL     1      15.634   6.757  20.292  0.00  0.00    +0.140 C 
BRANCH  19   9
ATOM      9  N   UNL     1      14.971   6.597  18.984  0.00  0.00    -0.187 NA
ATOM     30  H   UNL     1      15.493   6.060  18.282  0.00  0.00    +0.148 HD
BRANCH   9   1
ATOM      1  S   UNL     1      13.857   7.766  18.446  0.00  0.00    +0.058 S 
ATOM      5  O   UNL     1      13.246   7.315  17.210  0.00  0.00    -0.153 OA
ATOM      6  O   UNL     1      14.476   9.076  18.518  0.00  0.00    -0.153 OA
BRANCH   1  22
ATOM     22  C   UNL     1      12.628   7.706  19.715  0.00  0.00    +0.105 A 
ATOM     23  C   UNL     1      11.965   8.872  20.100  0.00  0.00    +0.028 A 
ATOM     24  C   UNL     1      12.323   6.495  20.334  0.00  0.00    +0.028 A 
ATOM     25  C   UNL     1      10.998   8.825  21.104  0.00  0.00    +0.002 A 
ATOM     26  C   UNL     1      11.355   6.448  21.338  0.00  0.00    +0.002 A 
ATOM     27  C   UNL     1      10.694   7.613  21.723  0.00  0.00    +0.000 A 
ENDBRANCH   1  22
ENDBRANCH   9   1
ENDBRANCH  19   9
ENDBRANCH  13  19
TORSDOF 7
ENDMDL
MODEL 4
REMARK VINA RESULT:      -7.0      1.939      2.822
REMARK  Name = 75536677
REMARK  8 active torsions:
REMARK  status: ('A' for Active; 'I' for Inactive)
REMARK    1  A    between atoms: S_1  and  N_9
REMARK    2  A    between atoms: S_1  and  C_22
REMARK    3  A    between atoms: O_3  and  C_12
REMARK    4  A    between atoms: N_7  and  C_10
REMARK    5  A    between atoms: N_7  and  C_11
REMARK    6  A    between atoms: N_9  and  C_19
REMARK    7  A    between atoms: C_13  and  C_19
REMARK    8  A    between atoms: C_20  and  C_21
REMARK                            x       y       z     vdW  Elec       q    Type
REMARK                         _______ _______ _______ _____ _____    ______ ____
ROOT
ATOM      2  O   UNL     1      15.154   8.879  20.433  0.00  0.00    -0.371 OA
ATOM     10  C   UNL     1      17.012   7.422  20.695  0.00  0.00    +0.111 C 
ATOM     12  C   UNL     1      15.906   6.688  19.959  0.00  0.00    +0.164 C 
ATOM     13  C   UNL     1      15.082   7.853  19.430  0.00  0.00    +0.164 C 
ATOM     14  C   UNL     1      16.243   8.572  21.323  0.00  0.00    +0.181 C 
ENDROOT
BRANCH  12   3
ATOM      3  O   UNL     1      16.396   5.869  18.914  0.00  0.00    -0.388 OA
ATOM     29  H   UNL     1      15.712   5.217  18.691  0.00  0.00    +0.210 HD
ENDBRANCH  12   3
BRANCH  10   7
ATOM      7  N   UNL     1      17.705   6.602  21.676  0.00  0.00    -0.306 NA
ATOM     28  H   UNL     1      17.379   5.639  21.623  0.00  0.00    +0.123 HD
BRANCH   7  11
ATOM      4  O   UNL     1      23.028   3.555  21.233  0.00  0.00    -0.276 OA
ATOM      8  N   UNL     1      21.770   5.447  21.719  0.00  0.00    -0.302 N 
ATOM     11  C   UNL     1      19.149   6.652  21.464  0.00  0.00    +0.057 C 
ATOM     15  C   UNL     1      19.882   6.598  22.812  0.00  0.00    +0.037 C 
ATOM     16  C   UNL     1      19.590   5.487  20.568  0.00  0.00    +0.037 C 
ATOM     17  C   UNL     1      21.397   6.552  22.611  0.00  0.00    +0.109 C 
ATOM     18  C   UNL     1      21.111   5.463  20.412  0.00  0.00    +0.109 C 
ATOM     20  C   UNL     1      22.703   4.454  22.014  0.00  0.00    +0.212 C 
ATOM     21  C   UNL     1      23.336   4.504  23.381  0.00  0.00    +0.109 C 
ENDBRANCH   7  11
ENDBRANCH  10   7
BRANCH  13  19
ATOM     19  C   UNL     1      13.630   7.491  19.169  0.00  0.00    +0.140 C 
BRANCH  19   9
ATOM      9  N   UNL     1      12.894   7.448  20.448  0.00  0.00    -0.187 NA
ATOM     30  H   UNL     1      13.219   6.748  21.126  0.00  0.00    +0.148 HD
BRANCH   9   1
ATOM      1  S   UNL     1      11.268   7.944  20.512  0.00  0.00    +0.058 S 
ATOM      5  O   UNL     1      10.514   7.016  21.332  0.00  0.00    -0.153 OA
ATOM      6  O   UNL     1      10.819   8.262  19.170  0.00  0.00    -0.153 OA
BRANCH   1  22
ATOM     22  C   UNL     1      11.390   9.473  21.390  0.00  0.00    +0.105 A 
ATOM     23  C   UNL     1      12.060  10.555  20.819  0.00  0.00    +0.028 A 
ATOM     24  C   UNL     1      10.820   9.597  22.657  0.00  0.00    +0.028 A 
ATOM     25  C   UNL     1      12.160  11.760  21.514  0.00  0.00    +0.002 A 
ATOM     26  C   UNL     1      10.919  10.803  23.352  0.00  0.00    +0.002 A 
ATOM     27  C   UNL     1      11.590  11.884  22.780  0.00  0.00    +0.000 A 
ENDBRANCH   1  22
ENDBRANCH   9   1
ENDBRANCH  19   9
ENDBRANCH  13  19
TORSDOF 7
ENDMDL
MODEL 5
REMARK VINA RESULT:      -6.9      2.735     10.131
REMARK  Name = 75536677
REMARK  8 active torsions:
REMARK  status: ('A' for Active; 'I' for Inactive)
REMARK    1  A    between atoms: S_1  and  N_9
REMARK    2  A    between atoms: S_1  and  C_22
REMARK    3  A    between atoms: O_3  and  C_12
REMARK    4  A    between atoms: N_7  and  C_10
REMARK    5  A    between atoms: N_7  and  C_11
REMARK    6  A    between atoms: N_9  and  C_19
REMARK    7  A    between atoms: C_13  and  C_19
REMARK    8  A    between atoms: C_20  and  C_21
REMARK                            x       y       z     vdW  Elec       q    Type
REMARK                         _______ _______ _______ _____ _____    ______ ____
ROOT
ATOM      2  O   UNL     1      17.604   5.776  18.913  0.00  0.00    -0.371 OA
ATOM     10  C   UNL     1      16.294   7.038  20.441  0.00  0.00    +0.111 C 
ATOM     12  C   UNL     1      17.525   6.516  21.158  0.00  0.00    +0.164 C 
ATOM     13  C   UNL     1      18.450   6.229  19.983  0.00  0.00    +0.164 C 
ATOM     14  C   UNL     1      16.244   6.126  19.227  0.00  0.00    +0.181 C 
ENDROOT
BRANCH  12   3
ATOM      3  O   UNL     1      18.082   7.463  22.049  0.00  0.00    -0.388 OA
ATOM     29  H   UNL     1      17.472   8.217  22.113  0.00  0.00    +0.210 HD
ENDBRANCH  12   3
BRANCH  10   7
ATOM      7  N   UNL     1      15.083   6.980  21.243  0.00  0.00    -0.306 NA
ATOM     28  H   UNL     1      15.285   7.243  22.206  0.00  0.00    +0.123 HD
BRANCH   7  11
ATOM      4  O   UNL     1      10.847   7.978  16.898  0.00  0.00    -0.276 OA
ATOM      8  N   UNL     1      12.394   8.702  18.474  0.00  0.00    -0.302 N 
ATOM     11  C   UNL     1      14.054   7.858  20.692  0.00  0.00    +0.057 C 
ATOM     15  C   UNL     1      14.626   8.672  19.523  0.00  0.00    +0.037 C 
ATOM     16  C   UNL     1      12.849   7.029  20.228  0.00  0.00    +0.037 C 
ATOM     17  C   UNL     1      13.542   9.528  18.868  0.00  0.00    +0.109 C 
ATOM     18  C   UNL     1      11.800   7.918  19.559  0.00  0.00    +0.109 C 
ATOM     20  C   UNL     1      11.836   8.653  17.197  0.00  0.00    +0.212 C 
ATOM     21  C   UNL     1      12.507   9.486  16.134  0.00  0.00    +0.109 C 
ENDBRANCH   7  11
ENDBRANCH  10   7
BRANCH  13  19
ATOM     19  C   UNL     1      19.500   5.175  20.288  0.00  0.00    +0.140 C 
BRANCH  19   9
ATOM      9  N   UNL     1      20.844   5.779  20.212  0.00  0.00    -0.187 NA
ATOM     30  H   UNL     1      21.252   5.843  19.272  0.00  0.00    +0.148 HD
BRANCH   9   1
ATOM      1  S   UNL     1      21.895   5.687  21.547  0.00  0.00    +0.058 S 
ATOM      5  O   UNL     1      21.162   5.211  22.705  0.00  0.00    -0.153 OA
ATOM      6  O   UNL     1      22.667   6.912  21.625  0.00  0.00    -0.153 OA
BRANCH   1  22
ATOM     22  C   UNL     1      23.008   4.409  21.044  0.00  0.00    +0.105 A 
ATOM     23  C   UNL     1      24.164   4.730  20.332  0.00  0.00    +0.028 A 
ATOM     24  C   UNL     1      22.728   3.078  21.354  0.00  0.00    +0.028 A 
ATOM     25  C   UNL     1      25.040   3.721  19.931  0.00  0.00    +0.002 A 
ATOM     26  C   UNL     1      23.604   2.069  20.954  0.00  0.00    +0.002 A 
ATOM     27  C   UNL     1      24.760   2.391  20.242  0.00  0.00    +0.000 A 
ENDBRANCH   1  22
ENDBRANCH   9   1
ENDBRANCH  19   9
ENDBRANCH  13  19
TORSDOF 7
ENDMDL
MODEL 6
REMARK VINA RESULT:      -6.7      2.201      2.849
REMARK  Name = 75536677
REMARK  8 active torsions:
REMARK  status: ('A' for Active; 'I' for Inactive)
REMARK    1  A    between atoms: S_1  and  N_9
REMARK    2  A    between atoms: S_1  and  C_22
REMARK    3  A    between atoms: O_3  and  C_12
REMARK    4  A    between atoms: N_7  and  C_10
REMARK    5  A    between atoms: N_7  and  C_11
REMARK    6  A    between atoms: N_9  and  C_19
REMARK    7  A    between atoms: C_13  and  C_19
REMARK    8  A    between atoms: C_20  and  C_21
REMARK                            x       y       z     vdW  Elec       q    Type
REMARK                         _______ _______ _______ _____ _____    ______ ____
ROOT
ATOM      2  O   UNL     1      16.800   6.080  19.864  0.00  0.00    -0.371 OA
ATOM     10  C   UNL     1      19.080   5.826  20.480  0.00  0.00    +0.111 C 
ATOM     12  C   UNL     1      18.444   6.886  21.360  0.00  0.00    +0.164 C 
ATOM     13  C   UNL     1      16.968   6.543  21.214  0.00  0.00    +0.164 C 
ATOM     14  C   UNL     1      18.096   5.766  19.324  0.00  0.00    +0.181 C 
ENDROOT
BRANCH  12   3
ATOM      3  O   UNL     1      18.873   6.809  22.706  0.00  0.00    -0.388 OA
ATOM     29  H   UNL     1      18.260   6.230  23.188  0.00  0.00    +0.210 HD
ENDBRANCH  12   3
BRANCH  10   7
ATOM      7  N   UNL     1      20.431   6.152  20.057  0.00  0.00    -0.306 NA
ATOM     28  H   UNL     1      20.562   7.162  20.043  0.00  0.00    +0.123 HD
BRANCH   7  11
ATOM      4  O   UNL     1      25.687   3.015  20.647  0.00  0.00    -0.276 OA
ATOM      8  N   UNL     1      23.578   3.659  21.378  0.00  0.00    -0.302 N 
ATOM     11  C   UNL     1      21.415   5.534  20.942  0.00  0.00    +0.057 C 
ATOM     15  C   UNL     1      21.162   4.024  21.039  0.00  0.00    +0.037 C 
ATOM     16  C   UNL     1      22.834   5.808  20.426  0.00  0.00    +0.037 C 
ATOM     17  C   UNL     1      22.237   3.341  21.885  0.00  0.00    +0.109 C 
ATOM     18  C   UNL     1      23.875   5.089  21.283  0.00  0.00    +0.109 C 
ATOM     20  C   UNL     1      24.554   2.723  21.037  0.00  0.00    +0.212 C 
ATOM     21  C   UNL     1      24.169   1.270  21.159  0.00  0.00    +0.109 C 
ENDBRANCH   7  11
ENDBRANCH  10   7
BRANCH  13  19
ATOM     19  C   UNL     1      16.048   7.725  21.469  0.00  0.00    +0.140 C 
BRANCH  19   9
ATOM      9  N   UNL     1      14.707   7.236  21.842  0.00  0.00    -0.187 NA
ATOM     30  H   UNL     1      14.599   6.215  21.881  0.00  0.00    +0.148 HD
BRANCH   9   1
ATOM      1  S   UNL     1      13.333   8.184  21.513  0.00  0.00    +0.058 S 
ATOM      5  O   UNL     1      13.449   9.455  22.202  0.00  0.00    -0.153 OA
ATOM      6  O   UNL     1      12.146   7.368  21.680  0.00  0.00    -0.153 OA
BRANCH   1  22
ATOM     22  C   UNL     1      13.509   8.487  19.780  0.00  0.00    +0.105 A 
ATOM     23  C   UNL     1      13.622   7.416  18.892  0.00  0.00    +0.028 A 
ATOM     24  C   UNL     1      13.541   9.796  19.300  0.00  0.00    +0.028 A 
ATOM     25  C   UNL     1      13.765   7.655  17.526  0.00  0.00    +0.002 A 
ATOM     26  C   UNL     1      13.683  10.035  17.933  0.00  0.00    +0.002 A 
ATOM     27  C   UNL     1      13.796   8.964  17.046  0.00  0.00    +0.000 A 
ENDBRANCH   1  22
ENDBRANCH   9   1
ENDBRANCH  19   9
ENDBRANCH  13  19
TORSDOF 7
ENDMDL
MODEL 7
REMARK VINA RESULT:      -6.7     29.023     31.194
REMARK  Name = 75536677
REMARK  8 active torsions:
REMARK  status: ('A' for Active; 'I' for Inactive)
REMARK    1  A    between atoms: S_1  and  N_9
REMARK    2  A    between atoms: S_1  and  C_22
REMARK    3  A    between atoms: O_3  and  C_12
REMARK    4  A    between atoms: N_7  and  C_10
REMARK    5  A    between atoms: N_7  and  C_11
REMARK    6  A    between atoms: N_9  and  C_19
REMARK    7  A    between atoms: C_13  and  C_19
REMARK    8  A    between atoms: C_20  and  C_21
REMARK                            x       y       z     vdW  Elec       q    Type
REMARK                         _______ _______ _______ _____ _____    ______ ____
ROOT
ATOM      2  O   UNL     1     -11.548  -7.947  14.336  0.00  0.00    -0.371 OA
ATOM     10  C   UNL     1      -9.745  -8.699  15.688  0.00  0.00    +0.111 C 
ATOM     12  C   UNL     1     -10.141  -7.300  16.123  0.00  0.00    +0.164 C 
ATOM     13  C   UNL     1     -11.556  -7.208  15.569  0.00  0.00    +0.164 C 
ATOM     14  C   UNL     1     -10.368  -8.770  14.304  0.00  0.00    +0.181 C 
ENDROOT
BRANCH  12   3
ATOM      3  O   UNL     1     -10.112  -7.136  17.528  0.00  0.00    -0.388 OA
ATOM     29  H   UNL     1     -10.816  -6.515  17.777  0.00  0.00    +0.210 HD
ENDBRANCH  12   3
BRANCH  10   7
ATOM      7  N   UNL     1      -8.309  -8.922  15.674  0.00  0.00    -0.306 NA
ATOM     28  H   UNL     1      -7.824  -8.117  16.067  0.00  0.00    +0.123 HD
BRANCH   7  11
ATOM      4  O   UNL     1      -5.838 -11.402  20.730  0.00  0.00    -0.276 OA
ATOM      8  N   UNL     1      -6.414 -11.452  18.479  0.00  0.00    -0.302 N 
ATOM     11  C   UNL     1      -7.965 -10.127  16.424  0.00  0.00    +0.057 C 
ATOM     15  C   UNL     1      -6.484 -10.473  16.217  0.00  0.00    +0.037 C 
ATOM     16  C   UNL     1      -8.263  -9.922  17.915  0.00  0.00    +0.037 C 
ATOM     17  C   UNL     1      -6.077 -11.675  17.068  0.00  0.00    +0.109 C 
ATOM     18  C   UNL     1      -7.821 -11.136  18.733  0.00  0.00    +0.109 C 
ATOM     20  C   UNL     1      -5.524 -11.559  19.547  0.00  0.00    +0.212 C 
ATOM     21  C   UNL     1      -4.092 -11.884  19.204  0.00  0.00    +0.109 C 
ENDBRANCH   7  11
ENDBRANCH  10   7
BRANCH  13  19
ATOM     19  C   UNL     1     -12.009  -5.782  15.310  0.00  0.00    +0.140 C 
BRANCH  19   9
ATOM      9  N   UNL     1     -11.723  -5.419  13.908  0.00  0.00    -0.187 NA
ATOM     30  H   UNL     1     -10.774  -5.075  13.721  0.00  0.00    +0.148 HD
BRANCH   9   1
ATOM      1  S   UNL     1     -12.986  -4.912  12.887  0.00  0.00    +0.058 S 
ATOM      5  O   UNL     1     -13.397  -3.572  13.259  0.00  0.00    -0.153 OA
ATOM      6  O   UNL     1     -13.968  -5.975  12.787  0.00  0.00    -0.153 OA
BRANCH   1  22
ATOM     22  C   UNL     1     -12.169  -4.817  11.322  0.00  0.00    +0.105 A 
ATOM     23  C   UNL     1     -11.852  -3.574  10.774  0.00  0.00    +0.028 A 
ATOM     24  C   UNL     1     -11.846  -5.985  10.632  0.00  0.00    +0.028 A 
ATOM     25  C   UNL     1     -11.211  -3.499   9.537  0.00  0.00    +0.002 A 
ATOM     26  C   UNL     1     -11.205  -5.911   9.395  0.00  0.00    +0.002 A 
ATOM     27  C   UNL     1     -10.888  -4.668   8.848  0.00  0.00    +0.000 A 
ENDBRANCH   1  22
ENDBRANCH   9   1
ENDBRANCH  19   9
ENDBRANCH  13  19
TORSDOF 7
ENDMDL
MODEL 8
REMARK VINA RESULT:      -6.7     26.683     30.575
REMARK  Name = 75536677
REMARK  8 active torsions:
REMARK  status: ('A' for Active; 'I' for Inactive)
REMARK    1  A    between atoms: S_1  and  N_9
REMARK    2  A    between atoms: S_1  and  C_22
REMARK    3  A    between atoms: O_3  and  C_12
REMARK    4  A    between atoms: N_7  and  C_10
REMARK    5  A    between atoms: N_7  and  C_11
REMARK    6  A    between atoms: N_9  and  C_19
REMARK    7  A    between atoms: C_13  and  C_19
REMARK    8  A    between atoms: C_20  and  C_21
REMARK                            x       y       z     vdW  Elec       q    Type
REMARK                         _______ _______ _______ _____ _____    ______ ____
ROOT
ATOM      2  O   UNL     1      -5.801 -11.784  18.128  0.00  0.00    -0.371 OA
ATOM     10  C   UNL     1      -7.411 -10.189  17.416  0.00  0.00    +0.111 C 
ATOM     12  C   UNL     1      -6.079  -9.873  16.763  0.00  0.00    +0.164 C 
ATOM     13  C   UNL     1      -5.368 -11.214  16.882  0.00  0.00    +0.164 C 
ATOM     14  C   UNL     1      -6.977 -11.081  18.567  0.00  0.00    +0.181 C 
ENDROOT
BRANCH  12   3
ATOM      3  O   UNL     1      -6.215  -9.466  15.415  0.00  0.00    -0.388 OA
ATOM     29  H   UNL     1      -5.327  -9.379  15.031  0.00  0.00    +0.210 HD
ENDBRANCH  12   3
BRANCH  10   7
ATOM      7  N   UNL     1      -8.139  -9.011  17.857  0.00  0.00    -0.306 NA
ATOM     28  H   UNL     1      -7.687  -8.167  17.511  0.00  0.00    +0.123 HD
BRANCH   7  11
ATOM      4  O   UNL     1     -12.096  -8.844  13.153  0.00  0.00    -0.276 OA
ATOM      8  N   UNL     1     -11.526  -8.505  15.380  0.00  0.00    -0.302 N 
ATOM     11  C   UNL     1      -9.526  -9.057  17.400  0.00  0.00    +0.057 C 
ATOM     15  C   UNL     1     -10.047  -7.635  17.152  0.00  0.00    +0.037 C 
ATOM     16  C   UNL     1      -9.630  -9.896  16.120  0.00  0.00    +0.037 C 
ATOM     17  C   UNL     1     -11.465  -7.663  16.581  0.00  0.00    +0.109 C 
ATOM     18  C   UNL     1     -11.055  -9.879  15.569  0.00  0.00    +0.109 C 
ATOM     20  C   UNL     1     -12.022  -8.106  14.139  0.00  0.00    +0.212 C 
ATOM     21  C   UNL     1     -12.484  -6.676  14.024  0.00  0.00    +0.109 C 
ENDBRANCH   7  11
ENDBRANCH  10   7
BRANCH  13  19
ATOM     19  C   UNL     1      -3.854 -11.094  16.871  0.00  0.00    +0.140 C 
BRANCH  19   9
ATOM      9  N   UNL     1      -3.432 -10.260  15.728  0.00  0.00    -0.187 NA
ATOM     30  H   UNL     1      -4.174  -9.708  15.282  0.00  0.00    +0.148 HD
BRANCH   9   1
ATOM      1  S   UNL     1      -2.087 -10.718  14.792  0.00  0.00    +0.058 S 
ATOM      5  O   UNL     1      -1.891 -12.151  14.899  0.00  0.00    -0.153 OA
ATOM      6  O   UNL     1      -0.991  -9.809  15.067  0.00  0.00    -0.153 OA
BRANCH   1  22
ATOM     22  C   UNL     1      -2.650 -10.365  13.154  0.00  0.00    +0.105 A 
ATOM     23  C   UNL     1      -4.006 -10.473  12.843  0.00  0.00    +0.028 A 
ATOM     24  C   UNL     1      -1.738  -9.983  12.170  0.00  0.00    +0.028 A 
ATOM     25  C   UNL     1      -4.449 -10.199  11.549  0.00  0.00    +0.002 A 
ATOM     26  C   UNL     1      -2.181  -9.708  10.876  0.00  0.00    +0.002 A 
ATOM     27  C   UNL     1      -3.537  -9.817  10.566  0.00  0.00    +0.000 A 
ENDBRANCH   1  22
ENDBRANCH   9   1
ENDBRANCH  19   9
ENDBRANCH  13  19
TORSDOF 7
ENDMDL
MODEL 9
REMARK VINA RESULT:      -6.6      2.794      9.913
REMARK  Name = 75536677
REMARK  8 active torsions:
REMARK  status: ('A' for Active; 'I' for Inactive)
REMARK    1  A    between atoms: S_1  and  N_9
REMARK    2  A    between atoms: S_1  and  C_22
REMARK    3  A    between atoms: O_3  and  C_12
REMARK    4  A    between atoms: N_7  and  C_10
REMARK    5  A    between atoms: N_7  and  C_11
REMARK    6  A    between atoms: N_9  and  C_19
REMARK    7  A    between atoms: C_13  and  C_19
REMARK    8  A    between atoms: C_20  and  C_21
REMARK                            x       y       z     vdW  Elec       q    Type
REMARK                         _______ _______ _______ _____ _____    ______ ____
ROOT
ATOM      2  O   UNL     1      19.181   9.264  22.251  0.00  0.00    -0.371 OA
ATOM     10  C   UNL     1      17.292   8.306  21.176  0.00  0.00    +0.111 C 
ATOM     12  C   UNL     1      18.438   7.313  21.141  0.00  0.00    +0.164 C 
ATOM     13  C   UNL     1      19.313   7.833  22.273  0.00  0.00    +0.164 C 
ATOM     14  C   UNL     1      18.027   9.604  21.461  0.00  0.00    +0.181 C 
ENDROOT
BRANCH  12   3
ATOM      3  O   UNL     1      18.015   5.982  21.370  0.00  0.00    -0.388 OA
ATOM     29  H   UNL     1      18.694   5.532  21.899  0.00  0.00    +0.210 HD
ENDBRANCH  12   3
BRANCH  10   7
ATOM      7  N   UNL     1      16.520   8.351  19.945  0.00  0.00    -0.306 NA
ATOM     28  H   UNL     1      17.054   7.942  19.180  0.00  0.00    +0.123 HD
BRANCH   7  11
ATOM      4  O   UNL     1      10.389   8.453  19.484  0.00  0.00    -0.276 OA
ATOM      8  N   UNL     1      12.373   7.682  20.416  0.00  0.00    -0.302 N 
ATOM     11  C   UNL     1      15.252   7.643  20.102  0.00  0.00    +0.057 C 
ATOM     15  C   UNL     1      14.593   8.032  21.433  0.00  0.00    +0.037 C 
ATOM     16  C   UNL     1      14.319   7.968  18.928  0.00  0.00    +0.037 C 
ATOM     17  C   UNL     1      13.219   7.377  21.576  0.00  0.00    +0.109 C 
ATOM     18  C   UNL     1      12.951   7.314  19.121  0.00  0.00    +0.109 C 
ATOM     20  C   UNL     1      11.096   8.238  20.473  0.00  0.00    +0.212 C 
ATOM     21  C   UNL     1      10.573   8.593  21.842  0.00  0.00    +0.109 C 
ENDBRANCH   7  11
ENDBRANCH  10   7
BRANCH  13  19
ATOM     19  C   UNL     1      20.775   7.450  22.127  0.00  0.00    +0.140 C 
BRANCH  19   9
ATOM      9  N   UNL     1      20.912   5.983  22.205  0.00  0.00    -0.187 NA
ATOM     30  H   UNL     1      21.102   5.602  23.140  0.00  0.00    +0.148 HD
BRANCH   9   1
ATOM      1  S   UNL     1      21.444   5.104  20.848  0.00  0.00    +0.058 S 
ATOM      5  O   UNL     1      22.373   5.915  20.085  0.00  0.00    -0.153 OA
ATOM      6  O   UNL     1      20.296   4.501  20.198  0.00  0.00    -0.153 OA
BRANCH   1  22
ATOM     22  C   UNL     1      22.358   3.792  21.602  0.00  0.00    +0.105 A 
ATOM     23  C   UNL     1      23.251   3.037  20.842  0.00  0.00    +0.028 A 
ATOM     24  C   UNL     1      22.182   3.509  22.956  0.00  0.00    +0.028 A 
ATOM     25  C   UNL     1      23.969   1.999  21.436  0.00  0.00    +0.002 A 
ATOM     26  C   UNL     1      22.901   2.471  23.551  0.00  0.00    +0.002 A 
ATOM     27  C   UNL     1      23.793   1.715  22.790  0.00  0.00    +0.000 A 
ENDBRANCH   1  22
ENDBRANCH   9   1
ENDBRANCH  19   9
ENDBRANCH  13  19
TORSDOF 7
ENDMDL
MODEL 10
REMARK VINA RESULT:      -6.5     27.758     29.930
REMARK  Name = 75536677
REMARK  8 active torsions:
REMARK  status: ('A' for Active; 'I' for Inactive)
REMARK    1  A    between atoms: S_1  and  N_9
REMARK    2  A    between atoms: S_1  and  C_22
REMARK    3  A    between atoms: O_3  and  C_12
REMARK    4  A    between atoms: N_7  and  C_10
REMARK    5  A    between atoms: N_7  and  C_11
REMARK    6  A    between atoms: N_9  and  C_19
REMARK    7  A    between atoms: C_13  and  C_19
REMARK    8  A    between atoms: C_20  and  C_21
REMARK                            x       y       z     vdW  Elec       q    Type
REMARK                         _______ _______ _______ _____ _____    ______ ____
ROOT
ATOM      2  O   UNL     1      -5.202 -13.648  16.818  0.00  0.00    -0.371 OA
ATOM     10  C   UNL     1      -4.175 -11.507  16.764  0.00  0.00    +0.111 C 
ATOM     12  C   UNL     1      -5.513 -11.397  17.471  0.00  0.00    +0.164 C 
ATOM     13  C   UNL     1      -5.752 -12.845  17.875  0.00  0.00    +0.164 C 
ATOM     14  C   UNL     1      -4.335 -12.822  16.020  0.00  0.00    +0.181 C 
ENDROOT
BRANCH  12   3
ATOM      3  O   UNL     1      -5.468 -10.536  18.593  0.00  0.00    -0.388 OA
ATOM     29  H   UNL     1      -5.589  -9.624  18.282  0.00  0.00    +0.210 HD
ENDBRANCH  12   3
BRANCH  10   7
ATOM      7  N   UNL     1      -3.887 -10.389  15.881  0.00  0.00    -0.306 NA
ATOM     28  H   UNL     1      -2.930 -10.068  16.019  0.00  0.00    +0.123 HD
BRANCH   7  11
ATOM      4  O   UNL     1      -3.050  -9.059   9.936  0.00  0.00    -0.276 OA
ATOM      8  N   UNL     1      -4.219 -10.052  11.681  0.00  0.00    -0.302 N 
ATOM     11  C   UNL     1      -4.090 -10.766  14.484  0.00  0.00    +0.057 C 
ATOM     15  C   UNL     1      -5.290 -10.006  13.902  0.00  0.00    +0.037 C 
ATOM     16  C   UNL     1      -2.824 -10.471  13.670  0.00  0.00    +0.037 C 
ATOM     17  C   UNL     1      -5.464 -10.312  12.415  0.00  0.00    +0.109 C 
ATOM     18  C   UNL     1      -3.046 -10.768  12.187  0.00  0.00    +0.109 C 
ATOM     20  C   UNL     1      -4.101  -9.234  10.558  0.00  0.00    +0.212 C 
ATOM     21  C   UNL     1      -5.353  -8.529  10.101  0.00  0.00    +0.109 C 
ENDBRANCH   7  11
ENDBRANCH  10   7
BRANCH  13  19
ATOM     19  C   UNL     1      -7.221 -13.181  18.064  0.00  0.00    +0.140 C 
BRANCH  19   9
ATOM      9  N   UNL     1      -8.041 -11.987  17.783  0.00  0.00    -0.187 NA
ATOM     30  H   UNL     1      -7.700 -11.380  17.029  0.00  0.00    +0.148 HD
BRANCH   9   1
ATOM      1  S   UNL     1      -8.987 -11.295  19.016  0.00  0.00    +0.058 S 
ATOM      5  O   UNL     1      -8.118 -10.749  20.041  0.00  0.00    -0.153 OA
ATOM      6  O   UNL     1     -10.046 -12.220  19.373  0.00  0.00    -0.153 OA
BRANCH   1  22
ATOM     22  C   UNL     1      -9.750  -9.942  18.171  0.00  0.00    +0.105 A 
ATOM     23  C   UNL     1     -11.133  -9.772  18.231  0.00  0.00    +0.028 A 
ATOM     24  C   UNL     1      -8.969  -9.048  17.440  0.00  0.00    +0.028 A 
ATOM     25  C   UNL     1     -11.734  -8.707  17.561  0.00  0.00    +0.002 A 
ATOM     26  C   UNL     1      -9.570  -7.981  16.771  0.00  0.00    +0.002 A 
ATOM     27  C   UNL     1     -10.953  -7.812  16.830  0.00  0.00    +0.000 A 
ENDBRANCH   1  22
ENDBRANCH   9   1
ENDBRANCH  19   9
ENDBRANCH  13  19
TORSDOF 7
ENDMDL
