REMARK  Name = 7161554
REMARK  5 active torsions:
REMARK  status: ('A' for Active; 'I' for Inactive)
REMARK    1  A    between atoms: O_3  and  C_13
REMARK    2  A    between atoms: O_3  and  C_21
REMARK    3  A    between atoms: C_9  and  C_13
REMARK    4  A    between atoms: C_14  and  C_17
REMARK    5  A    between atoms: C_15  and  C_16
REMARK                            x       y       z     vdW  Elec       q    Type
REMARK                         _______ _______ _______ _____ _____    ______ ____
ROOT
ATOM      5  O   UNL     1      -3.951   1.856   0.973  0.00  0.00    -0.269 OA
ATOM      6  O   UNL     1       2.748   2.747   0.604  0.00  0.00    -0.270 OA
ATOM      7  N   UNL     1      -1.859   1.100   0.308  0.00  0.00    -0.281 N 
ATOM      8  N   UNL     1       0.863   1.688  -0.285  0.00  0.00    -0.294 N 
ATOM      9  C   UNL     1      -0.981   0.026  -0.192  0.00  0.00    +0.202 C 
ATOM     10  C   UNL     1       0.228   0.554  -0.968  0.00  0.00    +0.142 C 
ATOM     11  C   UNL     1      -1.188   2.249   0.931  0.00  0.00    +0.128 C 
ATOM     12  C   UNL     1      -0.052   2.771   0.063  0.00  0.00    +0.127 C 
ATOM     14  C   UNL     1      -3.265   1.011   0.396  0.00  0.00    +0.254 C 
ATOM     15  C   UNL     1       2.218   1.795   0.034  0.00  0.00    +0.247 C 
ENDROOT
BRANCH  15  16
ATOM      2  F   UNL     1       4.353  -2.429   1.061  0.00  0.00    -0.205 F 
ATOM     16  C   UNL     1       3.103   0.684  -0.336  0.00  0.00    +0.040 A 
ATOM     18  C   UNL     1       3.310  -0.364   0.557  0.00  0.00    +0.051 A 
ATOM     19  C   UNL     1       3.732   0.684  -1.579  0.00  0.00    +0.013 A 
ATOM     23  C   UNL     1       4.151  -1.420   0.205  0.00  0.00    +0.124 A 
ATOM     24  C   UNL     1       4.573  -0.371  -1.931  0.00  0.00    +0.004 A 
ATOM     26  C   UNL     1       4.783  -1.423  -1.039  0.00  0.00    +0.038 A 
ENDBRANCH  15  16
BRANCH  14  17
ATOM      1  S   UNL     1      -4.387  -0.030  -1.865  0.00  0.00    -0.092 S 
ATOM     17  C   UNL     1      -3.900  -0.142  -0.230  0.00  0.00    +0.074 A 
ATOM     20  C   UNL     1      -4.180  -1.369   0.318  0.00  0.00    +0.021 A 
ATOM     22  C   UNL     1      -4.809  -2.237  -0.620  0.00  0.00    +0.008 A 
ATOM     25  C   UNL     1      -4.982  -1.635  -1.847  0.00  0.00    +0.046 A 
ENDBRANCH  14  17
BRANCH   9  13
ATOM      4  O   UNL     1      -0.878  -0.499   2.158  0.00  0.00    -0.249 OA
ATOM     13  C   UNL     1      -0.557  -0.770   1.009  0.00  0.00    +0.329 C 
BRANCH  13   3
ATOM      3  O   UNL     1       0.225  -1.814   0.612  0.00  0.00    -0.467 OA
ATOM     21  C   UNL     1       0.702  -2.660   1.663  0.00  0.00    +0.280 C 
ENDBRANCH  13   3
ENDBRANCH   9  13
TORSDOF 4
