REMARK  Name = 45783273
REMARK  8 active torsions:
REMARK  status: ('A' for Active; 'I' for Inactive)
REMARK    1  A    between atoms: O_2  and  C_27
REMARK    2  A    between atoms: O_2  and  C_28
REMARK    3  A    between atoms: N_3  and  C_12
REMARK    4  A    between atoms: N_6  and  C_26
REMARK    5  A    between atoms: C_8  and  C_13
REMARK    6  A    between atoms: C_12  and  C_14
REMARK    7  A    between atoms: C_17  and  C_18
REMARK    8  A    between atoms: C_26  and  C_27
REMARK                            x       y       z     vdW  Elec       q    Type
REMARK                         _______ _______ _______ _____ _____    ______ ____
ROOT
ATOM      1  O   UNL     1      -1.688   3.521  -0.490  0.00  0.00    -0.336 OA
ATOM      4  N   UNL     1      -0.654   1.573  -0.098  0.00  0.00    -0.190 NA
ATOM      5  N   UNL     1      -0.316   3.803  -0.483  0.00  0.00    -0.056 NA
ATOM     13  C   UNL     1      -1.799   2.188  -0.255  0.00  0.00    +0.245 A 
ATOM     17  C   UNL     1       0.227   2.605  -0.247  0.00  0.00    +0.202 A 
ENDROOT
BRANCH  17  18
ATOM      6  N   UNL     1       4.036  -0.304   0.433  0.00  0.00    -0.327 N 
ATOM      7  N   UNL     1       4.406   2.015   0.032  0.00  0.00    -0.240 NA
ATOM     18  C   UNL     1       1.644   2.405  -0.151  0.00  0.00    +0.027 A 
ATOM     22  C   UNL     1       2.155   1.136   0.097  0.00  0.00    +0.055 A 
ATOM     23  C   UNL     1       2.513   3.479  -0.308  0.00  0.00    +0.031 A 
ATOM     24  C   UNL     1       3.531   0.995   0.178  0.00  0.00    +0.119 A 
ATOM     25  C   UNL     1       3.873   3.234  -0.208  0.00  0.00    +0.113 A 
ATOM     29  H   UNL     1       5.045  -0.394   0.487  0.00  0.00    +0.148 HD
BRANCH   6  26
ATOM     26  C   UNL     1       3.190  -1.440   0.603  0.00  0.00    +0.131 C 
BRANCH  26  27
ATOM     27  C   UNL     1       4.028  -2.673   0.895  0.00  0.00    +0.178 C 
BRANCH  27   2
ATOM      2  O   UNL     1       4.891  -2.931  -0.205  0.00  0.00    -0.381 OA
ATOM     28  C   UNL     1       5.693  -4.082   0.020  0.00  0.00    +0.194 C 
ENDBRANCH  27   2
ENDBRANCH  26  27
ENDBRANCH   6  26
ENDBRANCH  17  18
BRANCH  13   8
ATOM      3  N   UNL     1      -3.229   0.184   0.108  0.00  0.00    -0.287 NA
ATOM      8  C   UNL     1      -3.204   1.625  -0.213  0.00  0.00    +0.146 C 
ATOM      9  C   UNL     1      -4.076   2.283   0.872  0.00  0.00    +0.030 C 
ATOM     10  C   UNL     1      -4.596   1.129   1.718  0.00  0.00    +0.017 C 
ATOM     11  C   UNL     1      -4.499  -0.066   0.791  0.00  0.00    +0.085 C 
BRANCH   3  12
ATOM     12  C   UNL     1      -3.060  -0.668  -1.062  0.00  0.00    +0.120 C 
BRANCH  12  14
ATOM     14  C   UNL     1      -2.602  -2.053  -0.686  0.00  0.00    -0.033 A 
ATOM     15  C   UNL     1      -1.239  -2.338  -0.605  0.00  0.00    +0.005 A 
ATOM     16  C   UNL     1      -3.540  -3.049  -0.420  0.00  0.00    +0.005 A 
ATOM     19  C   UNL     1      -0.815  -3.620  -0.256  0.00  0.00    +0.000 A 
ATOM     20  C   UNL     1      -3.116  -4.331  -0.071  0.00  0.00    +0.000 A 
ATOM     21  C   UNL     1      -1.753  -4.617   0.010  0.00  0.00    +0.000 A 
ENDBRANCH  12  14
ENDBRANCH   3  12
ENDBRANCH  13   8
TORSDOF 7
