MODEL 1
REMARK VINA RESULT:      -6.7      0.000      0.000
REMARK  Name = 45783835
REMARK  3 active torsions:
REMARK  status: ('A' for Active; 'I' for Inactive)
REMARK    1  A    between atoms: N_2  and  C_16
REMARK    2  A    between atoms: C_7  and  C_15
REMARK    3  A    between atoms: C_18  and  C_20
REMARK                            x       y       z     vdW  Elec       q    Type
REMARK                         _______ _______ _______ _____ _____    ______ ____
ROOT
ATOM      1  O   UNL     1      10.658  10.521  23.299  0.00  0.00    -0.336 OA
ATOM      4  N   UNL     1      12.402  10.975  21.970  0.00  0.00    -0.190 NA
ATOM      5  N   UNL     1      10.866   9.372  22.526  0.00  0.00    -0.056 NA
ATOM     15  C   UNL     1      11.604  11.415  22.909  0.00  0.00    +0.245 A 
ATOM     18  C   UNL     1      11.911   9.717  21.768  0.00  0.00    +0.202 A 
ENDROOT
BRANCH  18  20
ATOM      3  N   UNL     1      15.606   7.106  20.142  0.00  0.00    -0.315 N 
ATOM      6  N   UNL     1      13.607   7.103  18.908  0.00  0.00    -0.240 NA
ATOM     11  C   UNL     1      17.754   6.280  19.654  0.00  0.00    +0.020 C 
ATOM     12  C   UNL     1      17.657   6.545  21.146  0.00  0.00    +0.020 C 
ATOM     13  C   UNL     1      16.291   6.203  19.220  0.00  0.00    +0.106 C 
ATOM     14  C   UNL     1      16.468   7.496  21.255  0.00  0.00    +0.106 C 
ATOM     17  C   UNL     1      14.306   7.535  19.982  0.00  0.00    +0.122 A 
ATOM     19  C   UNL     1      13.797   8.390  20.945  0.00  0.00    +0.055 A 
ATOM     20  C   UNL     1      12.487   8.832  20.798  0.00  0.00    +0.027 A 
ATOM     21  C   UNL     1      11.736   8.410  19.705  0.00  0.00    +0.031 A 
ATOM     22  C   UNL     1      12.337   7.554  18.796  0.00  0.00    +0.113 A 
ENDBRANCH  18  20
BRANCH  15   7
ATOM      2  N   UNL     1      10.323  13.487  23.417  0.00  0.00    -0.294 NA
ATOM      7  C   UNL     1      11.592  12.759  23.608  0.00  0.00    +0.146 C 
ATOM      8  C   UNL     1      11.748  12.636  25.135  0.00  0.00    +0.030 C 
ATOM      9  C   UNL     1      10.553  13.376  25.717  0.00  0.00    +0.017 C 
ATOM     10  C   UNL     1      10.142  14.321  24.606  0.00  0.00    +0.085 C 
ATOM     16  C   UNL     1      10.286  14.269  22.188  0.00  0.00    +0.105 C 
ENDBRANCH  15   7
TORSDOF 2
ENDMDL
MODEL 2
REMARK VINA RESULT:      -6.6      4.557      7.354
REMARK  Name = 45783835
REMARK  3 active torsions:
REMARK  status: ('A' for Active; 'I' for Inactive)
REMARK    1  A    between atoms: N_2  and  C_16
REMARK    2  A    between atoms: C_7  and  C_15
REMARK    3  A    between atoms: C_18  and  C_20
REMARK                            x       y       z     vdW  Elec       q    Type
REMARK                         _______ _______ _______ _____ _____    ______ ____
ROOT
ATOM      1  O   UNL     1      16.151   6.002  18.434  0.00  0.00    -0.336 OA
ATOM      4  N   UNL     1      16.306   7.447  20.137  0.00  0.00    -0.190 NA
ATOM      5  N   UNL     1      17.408   5.787  19.013  0.00  0.00    -0.056 NA
ATOM     15  C   UNL     1      15.568   6.995  19.155  0.00  0.00    +0.245 A 
ATOM     18  C   UNL     1      17.425   6.676  20.010  0.00  0.00    +0.202 A 
ENDROOT
BRANCH  18  20
ATOM      3  N   UNL     1      21.521   5.019  21.906  0.00  0.00    -0.315 N 
ATOM      6  N   UNL     1      20.723   7.108  22.623  0.00  0.00    -0.240 NA
ATOM     11  C   UNL     1      23.250   3.639  22.705  0.00  0.00    +0.020 C 
ATOM     12  C   UNL     1      22.861   3.181  21.310  0.00  0.00    +0.020 C 
ATOM     13  C   UNL     1      22.699   5.063  22.768  0.00  0.00    +0.106 C 
ATOM     14  C   UNL     1      21.474   3.789  21.118  0.00  0.00    +0.106 C 
ATOM     17  C   UNL     1      20.570   6.015  21.842  0.00  0.00    +0.122 A 
ATOM     19  C   UNL     1      19.509   5.826  20.972  0.00  0.00    +0.055 A 
ATOM     20  C   UNL     1      18.542   6.822  20.897  0.00  0.00    +0.027 A 
ATOM     21  C   UNL     1      18.664   7.961  21.685  0.00  0.00    +0.031 A 
ATOM     22  C   UNL     1      19.762   8.055  22.524  0.00  0.00    +0.113 A 
ENDBRANCH  18  20
BRANCH  15   7
ATOM      2  N   UNL     1      13.369   7.935  19.843  0.00  0.00    -0.294 NA
ATOM      7  C   UNL     1      14.179   7.417  18.723  0.00  0.00    +0.146 C 
ATOM      8  C   UNL     1      14.200   8.561  17.693  0.00  0.00    +0.030 C 
ATOM      9  C   UNL     1      13.326   9.653  18.293  0.00  0.00    +0.017 C 
ATOM     10  C   UNL     1      12.438   8.904  19.265  0.00  0.00    +0.085 C 
ATOM     16  C   UNL     1      12.680   6.889  20.587  0.00  0.00    +0.105 C 
ENDBRANCH  15   7
TORSDOF 2
ENDMDL
MODEL 3
REMARK VINA RESULT:      -6.5      3.933      9.011
REMARK  Name = 45783835
REMARK  3 active torsions:
REMARK  status: ('A' for Active; 'I' for Inactive)
REMARK    1  A    between atoms: N_2  and  C_16
REMARK    2  A    between atoms: C_7  and  C_15
REMARK    3  A    between atoms: C_18  and  C_20
REMARK                            x       y       z     vdW  Elec       q    Type
REMARK                         _______ _______ _______ _____ _____    ______ ____
ROOT
ATOM      1  O   UNL     1      18.815   5.678  20.132  0.00  0.00    -0.336 OA
ATOM      4  N   UNL     1      18.844   7.274  21.703  0.00  0.00    -0.190 NA
ATOM      5  N   UNL     1      17.555   6.290  20.088  0.00  0.00    -0.056 NA
ATOM     15  C   UNL     1      19.510   6.317  21.109  0.00  0.00    +0.245 A 
ATOM     18  C   UNL     1      17.650   7.220  21.043  0.00  0.00    +0.202 A 
ENDROOT
BRANCH  18  20
ATOM      3  N   UNL     1      12.955   8.098  21.587  0.00  0.00    -0.315 N 
ATOM      6  N   UNL     1      14.472   9.844  21.992  0.00  0.00    -0.240 NA
ATOM     11  C   UNL     1      10.609   8.064  21.408  0.00  0.00    +0.020 C 
ATOM     12  C   UNL     1      11.107   6.643  21.605  0.00  0.00    +0.020 C 
ATOM     13  C   UNL     1      11.782   8.913  21.896  0.00  0.00    +0.106 C 
ATOM     14  C   UNL     1      12.581   6.733  21.220  0.00  0.00    +0.106 C 
ATOM     17  C   UNL     1      14.253   8.558  21.638  0.00  0.00    +0.122 A 
ATOM     19  C   UNL     1      15.258   7.660  21.317  0.00  0.00    +0.055 A 
ATOM     20  C   UNL     1      16.572   8.109  21.363  0.00  0.00    +0.027 A 
ATOM     21  C   UNL     1      16.838   9.427  21.722  0.00  0.00    +0.031 A 
ATOM     22  C   UNL     1      15.762  10.247  22.024  0.00  0.00    +0.113 A 
ENDBRANCH  18  20
BRANCH  15   7
ATOM      2  N   UNL     1      21.138   5.391  22.748  0.00  0.00    -0.294 NA
ATOM      7  C   UNL     1      20.925   5.835  21.357  0.00  0.00    +0.146 C 
ATOM      8  C   UNL     1      21.296   4.615  20.495  0.00  0.00    +0.030 C 
ATOM      9  C   UNL     1      21.764   3.557  21.484  0.00  0.00    +0.017 C 
ATOM     10  C   UNL     1      22.177   4.363  22.699  0.00  0.00    +0.085 C 
ATOM     16  C   UNL     1      21.487   6.479  23.652  0.00  0.00    +0.105 C 
ENDBRANCH  15   7
TORSDOF 2
ENDMDL
MODEL 4
REMARK VINA RESULT:      -6.5      3.409      5.723
REMARK  Name = 45783835
REMARK  3 active torsions:
REMARK  status: ('A' for Active; 'I' for Inactive)
REMARK    1  A    between atoms: N_2  and  C_16
REMARK    2  A    between atoms: C_7  and  C_15
REMARK    3  A    between atoms: C_18  and  C_20
REMARK                            x       y       z     vdW  Elec       q    Type
REMARK                         _______ _______ _______ _____ _____    ______ ____
ROOT
ATOM      1  O   UNL     1      14.075   6.632  19.691  0.00  0.00    -0.336 OA
ATOM      4  N   UNL     1      14.574   8.288  21.112  0.00  0.00    -0.190 NA
ATOM      5  N   UNL     1      15.474   6.669  19.768  0.00  0.00    -0.056 NA
ATOM     15  C   UNL     1      13.626   7.616  20.511  0.00  0.00    +0.245 A 
ATOM     18  C   UNL     1      15.690   7.671  20.626  0.00  0.00    +0.202 A 
ENDROOT
BRANCH  18  20
ATOM      3  N   UNL     1      20.382   6.768  21.158  0.00  0.00    -0.315 N 
ATOM      6  N   UNL     1      19.576   8.886  21.774  0.00  0.00    -0.240 NA
ATOM     11  C   UNL     1      22.464   5.723  21.490  0.00  0.00    +0.020 C 
ATOM     12  C   UNL     1      21.698   4.965  20.419  0.00  0.00    +0.020 C 
ATOM     13  C   UNL     1      21.763   7.080  21.521  0.00  0.00    +0.106 C 
ATOM     14  C   UNL     1      20.254   5.406  20.644  0.00  0.00    +0.106 C 
ATOM     17  C   UNL     1      19.331   7.650  21.284  0.00  0.00    +0.122 A 
ATOM     19  C   UNL     1      18.078   7.204  20.895  0.00  0.00    +0.055 A 
ATOM     20  C   UNL     1      17.007   8.082  21.016  0.00  0.00    +0.027 A 
ATOM     21  C   UNL     1      17.219   9.362  21.517  0.00  0.00    +0.031 A 
ATOM     22  C   UNL     1      18.510   9.712  21.880  0.00  0.00    +0.113 A 
ENDBRANCH  18  20
BRANCH  15   7
ATOM      2  N   UNL     1      11.550   7.109  21.786  0.00  0.00    -0.294 NA
ATOM      7  C   UNL     1      12.123   7.783  20.605  0.00  0.00    +0.146 C 
ATOM      8  C   UNL     1      11.696   9.255  20.748  0.00  0.00    +0.030 C 
ATOM      9  C   UNL     1      10.837   9.300  22.003  0.00  0.00    +0.017 C 
ATOM     10  C   UNL     1      10.358   7.871  22.158  0.00  0.00    +0.085 C 
ATOM     16  C   UNL     1      11.251   5.702  21.557  0.00  0.00    +0.105 C 
ENDBRANCH  15   7
TORSDOF 2
ENDMDL
MODEL 5
REMARK VINA RESULT:      -6.4      2.378      4.287
REMARK  Name = 45783835
REMARK  3 active torsions:
REMARK  status: ('A' for Active; 'I' for Inactive)
REMARK    1  A    between atoms: N_2  and  C_16
REMARK    2  A    between atoms: C_7  and  C_15
REMARK    3  A    between atoms: C_18  and  C_20
REMARK                            x       y       z     vdW  Elec       q    Type
REMARK                         _______ _______ _______ _____ _____    ______ ____
ROOT
ATOM      1  O   UNL     1      14.597   9.909  22.177  0.00  0.00    -0.336 OA
ATOM      4  N   UNL     1      14.094   8.336  20.665  0.00  0.00    -0.190 NA
ATOM      5  N   UNL     1      15.795   9.236  21.902  0.00  0.00    -0.056 NA
ATOM     15  C   UNL     1      13.647   9.316  21.408  0.00  0.00    +0.245 A 
ATOM     18  C   UNL     1      15.416   8.325  21.001  0.00  0.00    +0.202 A 
ENDROOT
BRANCH  18  20
ATOM      3  N   UNL     1      19.612   5.978  21.047  0.00  0.00    -0.315 N 
ATOM      6  N   UNL     1      18.116   5.556  19.287  0.00  0.00    -0.240 NA
ATOM     11  C   UNL     1      21.857   5.360  21.383  0.00  0.00    +0.020 C 
ATOM     12  C   UNL     1      21.271   5.820  22.707  0.00  0.00    +0.020 C 
ATOM     13  C   UNL     1      20.618   5.044  20.547  0.00  0.00    +0.106 C 
ATOM     14  C   UNL     1      20.046   6.626  22.284  0.00  0.00    +0.106 C 
ATOM     17  C   UNL     1      18.404   6.218  20.430  0.00  0.00    +0.122 A 
ATOM     19  C   UNL     1      17.555   7.134  21.031  0.00  0.00    +0.055 A 
ATOM     20  C   UNL     1      16.332   7.387  20.420  0.00  0.00    +0.027 A 
ATOM     21  C   UNL     1      16.000   6.726  19.242  0.00  0.00    +0.031 A 
ATOM     22  C   UNL     1      16.918   5.829  18.721  0.00  0.00    +0.113 A 
ENDBRANCH  18  20
BRANCH  15   7
ATOM      2  N   UNL     1      11.493   9.288  22.655  0.00  0.00    -0.294 NA
ATOM      7  C   UNL     1      12.242   9.871  21.524  0.00  0.00    +0.146 C 
ATOM      8  C   UNL     1      12.222  11.389  21.782  0.00  0.00    +0.030 C 
ATOM      9  C   UNL     1      11.388  11.567  23.043  0.00  0.00    +0.017 C 
ATOM     10  C   UNL     1      10.543  10.311  23.092  0.00  0.00    +0.085 C 
ATOM     16  C   UNL     1      10.833   8.033  22.322  0.00  0.00    +0.105 C 
ENDBRANCH  15   7
TORSDOF 2
ENDMDL
MODEL 6
REMARK VINA RESULT:      -6.3     27.139     28.999
REMARK  Name = 45783835
REMARK  3 active torsions:
REMARK  status: ('A' for Active; 'I' for Inactive)
REMARK    1  A    between atoms: N_2  and  C_16
REMARK    2  A    between atoms: C_7  and  C_15
REMARK    3  A    between atoms: C_18  and  C_20
REMARK                            x       y       z     vdW  Elec       q    Type
REMARK                         _______ _______ _______ _____ _____    ______ ____
ROOT
ATOM      1  O   UNL     1      -1.870 -10.529  12.963  0.00  0.00    -0.336 OA
ATOM      4  N   UNL     1      -4.103 -10.595  13.115  0.00  0.00    -0.190 NA
ATOM      5  N   UNL     1      -2.165 -10.555  14.332  0.00  0.00    -0.056 NA
ATOM     15  C   UNL     1      -3.065 -10.554  12.318  0.00  0.00    +0.245 A 
ATOM     18  C   UNL     1      -3.501 -10.594  14.340  0.00  0.00    +0.202 A 
ENDROOT
BRANCH  18  20
ATOM      3  N   UNL     1      -7.636  -9.985  16.715  0.00  0.00    -0.315 N 
ATOM      6  N   UNL     1      -5.753 -10.706  17.919  0.00  0.00    -0.240 NA
ATOM     11  C   UNL     1      -9.760  -9.251  17.413  0.00  0.00    +0.020 C 
ATOM     12  C   UNL     1      -9.819  -9.589  15.933  0.00  0.00    +0.020 C 
ATOM     13  C   UNL     1      -8.509  -9.989  17.887  0.00  0.00    +0.106 C 
ATOM     14  C   UNL     1      -8.352  -9.565  15.512  0.00  0.00    +0.106 C 
ATOM     17  C   UNL     1      -6.304 -10.335  16.741  0.00  0.00    +0.122 A 
ATOM     19  C   UNL     1      -5.610 -10.281  15.543  0.00  0.00    +0.055 A 
ATOM     20  C   UNL     1      -4.265 -10.631  15.553  0.00  0.00    +0.027 A 
ATOM     21  C   UNL     1      -3.662 -11.018  16.746  0.00  0.00    +0.031 A 
ATOM     22  C   UNL     1      -4.442 -11.038  17.890  0.00  0.00    +0.113 A 
ENDBRANCH  18  20
BRANCH  15   7
ATOM      2  N   UNL     1      -4.164 -11.231  10.190  0.00  0.00    -0.294 NA
ATOM      7  C   UNL     1      -3.017 -10.534  10.804  0.00  0.00    +0.146 C 
ATOM      8  C   UNL     1      -3.070  -9.108  10.227  0.00  0.00    +0.030 C 
ATOM      9  C   UNL     1      -4.240  -9.116   9.254  0.00  0.00    +0.017 C 
ATOM     10  C   UNL     1      -4.400 -10.581   8.901  0.00  0.00    +0.085 C 
ATOM     16  C   UNL     1      -3.958 -12.667  10.051  0.00  0.00    +0.105 C 
ENDBRANCH  15   7
TORSDOF 2
ENDMDL
MODEL 7
REMARK VINA RESULT:      -6.2      2.302      2.691
REMARK  Name = 45783835
REMARK  3 active torsions:
REMARK  status: ('A' for Active; 'I' for Inactive)
REMARK    1  A    between atoms: N_2  and  C_16
REMARK    2  A    between atoms: C_7  and  C_15
REMARK    3  A    between atoms: C_18  and  C_20
REMARK                            x       y       z     vdW  Elec       q    Type
REMARK                         _______ _______ _______ _____ _____    ______ ____
ROOT
ATOM      1  O   UNL     1      10.565  10.864  23.800  0.00  0.00    -0.336 OA
ATOM      4  N   UNL     1      11.913  11.217  22.046  0.00  0.00    -0.190 NA
ATOM      5  N   UNL     1      10.660   9.637  23.130  0.00  0.00    -0.056 NA
ATOM     15  C   UNL     1      11.331  11.738  23.097  0.00  0.00    +0.245 A 
ATOM     18  C   UNL     1      11.472   9.926  22.108  0.00  0.00    +0.202 A 
ENDROOT
BRANCH  18  20
ATOM      3  N   UNL     1      13.378   8.787  17.844  0.00  0.00    -0.315 N 
ATOM      6  N   UNL     1      12.620   7.049  19.229  0.00  0.00    -0.240 NA
ATOM     11  C   UNL     1      14.086   8.814  15.601  0.00  0.00    +0.020 C 
ATOM     12  C   UNL     1      14.533  10.101  16.272  0.00  0.00    +0.020 C 
ATOM     13  C   UNL     1      13.814   7.884  16.782  0.00  0.00    +0.106 C 
ATOM     14  C   UNL     1      13.630  10.185  17.500  0.00  0.00    +0.106 C 
ATOM     17  C   UNL     1      12.801   8.373  19.025  0.00  0.00    +0.122 A 
ATOM     19  C   UNL     1      12.443   9.354  19.935  0.00  0.00    +0.055 A 
ATOM     20  C   UNL     1      11.860   8.951  21.131  0.00  0.00    +0.027 A 
ATOM     21  C   UNL     1      11.656   7.597  21.377  0.00  0.00    +0.031 A 
ATOM     22  C   UNL     1      12.049   6.694  20.402  0.00  0.00    +0.113 A 
ENDBRANCH  18  20
BRANCH  15   7
ATOM      2  N   UNL     1      10.095  13.850  23.550  0.00  0.00    -0.294 NA
ATOM      7  C   UNL     1      11.396  13.156  23.626  0.00  0.00    +0.146 C 
ATOM      8  C   UNL     1      11.787  13.218  25.114  0.00  0.00    +0.030 C 
ATOM      9  C   UNL     1      10.678  14.017  25.783  0.00  0.00    +0.017 C 
ATOM     10  C   UNL     1      10.080  14.819  24.646  0.00  0.00    +0.085 C 
ATOM     16  C   UNL     1       9.853  14.479  22.258  0.00  0.00    +0.105 C 
ENDBRANCH  15   7
TORSDOF 2
ENDMDL
MODEL 8
REMARK VINA RESULT:      -6.2     27.148     28.385
REMARK  Name = 45783835
REMARK  3 active torsions:
REMARK  status: ('A' for Active; 'I' for Inactive)
REMARK    1  A    between atoms: N_2  and  C_16
REMARK    2  A    between atoms: C_7  and  C_15
REMARK    3  A    between atoms: C_18  and  C_20
REMARK                            x       y       z     vdW  Elec       q    Type
REMARK                         _______ _______ _______ _____ _____    ______ ____
ROOT
ATOM      1  O   UNL     1      -4.368 -12.071  16.807  0.00  0.00    -0.336 OA
ATOM      4  N   UNL     1      -4.789 -10.164  15.711  0.00  0.00    -0.190 NA
ATOM      5  N   UNL     1      -3.716 -12.180  15.572  0.00  0.00    -0.056 NA
ATOM     15  C   UNL     1      -4.974 -10.855  16.807  0.00  0.00    +0.245 A 
ATOM     18  C   UNL     1      -4.011 -11.018  14.983  0.00  0.00    +0.202 A 
ENDROOT
BRANCH  18  20
ATOM      3  N   UNL     1      -4.865  -9.629  10.460  0.00  0.00    -0.315 N 
ATOM      6  N   UNL     1      -2.641 -10.013  11.110  0.00  0.00    -0.240 NA
ATOM     11  C   UNL     1      -5.844  -9.249   8.355  0.00  0.00    +0.020 C 
ATOM     12  C   UNL     1      -6.829  -8.839   9.436  0.00  0.00    +0.020 C 
ATOM     13  C   UNL     1      -4.506  -9.261   9.093  0.00  0.00    +0.106 C 
ATOM     14  C   UNL     1      -6.310  -9.564  10.674  0.00  0.00    +0.106 C 
ATOM     17  C   UNL     1      -3.955  -9.991  11.429  0.00  0.00    +0.122 A 
ATOM     19  C   UNL     1      -4.454 -10.311  12.681  0.00  0.00    +0.055 A 
ATOM     20  C   UNL     1      -3.548 -10.678  13.669  0.00  0.00    +0.027 A 
ATOM     21  C   UNL     1      -2.188 -10.714  13.379  0.00  0.00    +0.031 A 
ATOM     22  C   UNL     1      -1.790 -10.376  12.095  0.00  0.00    +0.113 A 
ENDBRANCH  18  20
BRANCH  15   7
ATOM      2  N   UNL     1      -7.216 -10.564  17.847  0.00  0.00    -0.294 NA
ATOM      7  C   UNL     1      -5.756 -10.491  18.052  0.00  0.00    +0.146 C 
ATOM      8  C   UNL     1      -5.477 -11.443  19.229  0.00  0.00    +0.030 C 
ATOM      9  C   UNL     1      -6.844 -11.956  19.658  0.00  0.00    +0.017 C 
ATOM     10  C   UNL     1      -7.799 -10.897  19.147  0.00  0.00    +0.085 C 
ATOM     16  C   UNL     1      -7.782  -9.343  17.289  0.00  0.00    +0.105 C 
ENDBRANCH  15   7
TORSDOF 2
ENDMDL
MODEL 9
REMARK VINA RESULT:      -6.2     28.147     30.070
REMARK  Name = 45783835
REMARK  3 active torsions:
REMARK  status: ('A' for Active; 'I' for Inactive)
REMARK    1  A    between atoms: N_2  and  C_16
REMARK    2  A    between atoms: C_7  and  C_15
REMARK    3  A    between atoms: C_18  and  C_20
REMARK                            x       y       z     vdW  Elec       q    Type
REMARK                         _______ _______ _______ _____ _____    ______ ____
ROOT
ATOM      1  O   UNL     1     -16.437   0.584  28.100  0.00  0.00    -0.336 OA
ATOM      4  N   UNL     1     -16.111   2.767  27.722  0.00  0.00    -0.190 NA
ATOM      5  N   UNL     1     -16.853   0.817  26.782  0.00  0.00    -0.056 NA
ATOM     15  C   UNL     1     -16.016   1.782  28.580  0.00  0.00    +0.245 A 
ATOM     18  C   UNL     1     -16.629   2.126  26.634  0.00  0.00    +0.202 A 
ENDROOT
BRANCH  18  20
ATOM      3  N   UNL     1     -15.197   4.758  22.874  0.00  0.00    -0.315 N 
ATOM      6  N   UNL     1     -17.469   4.184  23.036  0.00  0.00    -0.240 NA
ATOM     11  C   UNL     1     -14.049   6.241  21.454  0.00  0.00    +0.020 C 
ATOM     12  C   UNL     1     -13.042   5.314  22.113  0.00  0.00    +0.020 C 
ATOM     13  C   UNL     1     -15.371   5.494  21.625  0.00  0.00    +0.106 C 
ATOM     14  C   UNL     1     -13.805   4.772  23.319  0.00  0.00    +0.106 C 
ATOM     17  C   UNL     1     -16.219   4.126  23.549  0.00  0.00    +0.122 A 
ATOM     19  C   UNL     1     -15.892   3.466  24.723  0.00  0.00    +0.055 A 
ATOM     20  C   UNL     1     -16.913   2.825  25.415  0.00  0.00    +0.027 A 
ATOM     21  C   UNL     1     -18.212   2.863  24.919  0.00  0.00    +0.031 A 
ATOM     22  C   UNL     1     -18.436   3.550  23.737  0.00  0.00    +0.113 A 
ENDBRANCH  18  20
BRANCH  15   7
ATOM      2  N   UNL     1     -14.057   1.540  30.096  0.00  0.00    -0.294 NA
ATOM      7  C   UNL     1     -15.508   1.797  30.007  0.00  0.00    +0.146 C 
ATOM      8  C   UNL     1     -15.707   3.160  30.694  0.00  0.00    +0.030 C 
ATOM      9  C   UNL     1     -14.326   3.561  31.191  0.00  0.00    +0.017 C 
ATOM     10  C   UNL     1     -13.586   2.243  31.290  0.00  0.00    +0.085 C 
ATOM     16  C   UNL     1     -13.725   0.122  30.128  0.00  0.00    +0.105 C 
ENDBRANCH  15   7
TORSDOF 2
ENDMDL
MODEL 10
REMARK VINA RESULT:      -6.2     17.261     20.274
REMARK  Name = 45783835
REMARK  3 active torsions:
REMARK  status: ('A' for Active; 'I' for Inactive)
REMARK    1  A    between atoms: N_2  and  C_16
REMARK    2  A    between atoms: C_7  and  C_15
REMARK    3  A    between atoms: C_18  and  C_20
REMARK                            x       y       z     vdW  Elec       q    Type
REMARK                         _______ _______ _______ _____ _____    ______ ____
ROOT
ATOM      1  O   UNL     1      11.165   6.593   4.911  0.00  0.00    -0.336 OA
ATOM      4  N   UNL     1      10.109   4.889   3.912  0.00  0.00    -0.190 NA
ATOM      5  N   UNL     1      11.902   6.303   3.755  0.00  0.00    -0.056 NA
ATOM     15  C   UNL     1      10.128   5.715   4.927  0.00  0.00    +0.245 A 
ATOM     18  C   UNL     1      11.216   5.288   3.220  0.00  0.00    +0.202 A 
ENDROOT
BRANCH  18  20
ATOM      3  N   UNL     1      10.567   4.431  -1.466  0.00  0.00    -0.315 N 
ATOM      6  N   UNL     1      12.382   3.406  -0.384  0.00  0.00    -0.240 NA
ATOM     11  C   UNL     1       9.634   4.121  -3.603  0.00  0.00    +0.020 C 
ATOM     12  C   UNL     1       9.126   5.434  -3.031  0.00  0.00    +0.020 C 
ATOM     13  C   UNL     1      10.877   3.836  -2.763  0.00  0.00    +0.106 C 
ATOM     14  C   UNL     1       9.381   5.282  -1.533  0.00  0.00    +0.106 C 
ATOM     17  C   UNL     1      11.302   4.217  -0.320  0.00  0.00    +0.122 A 
ATOM     19  C   UNL     1      10.879   4.856   0.834  0.00  0.00    +0.055 A 
ATOM     20  C   UNL     1      11.610   4.650   1.998  0.00  0.00    +0.027 A 
ATOM     21  C   UNL     1      12.727   3.821   1.973  0.00  0.00    +0.031 A 
ATOM     22  C   UNL     1      13.067   3.227   0.768  0.00  0.00    +0.113 A 
ENDBRANCH  18  20
BRANCH  15   7
ATOM      2  N   UNL     1       9.845   5.693   7.399  0.00  0.00    -0.294 NA
ATOM      7  C   UNL     1       9.168   5.825   6.094  0.00  0.00    +0.146 C 
ATOM      8  C   UNL     1       8.462   7.192   6.156  0.00  0.00    +0.030 C 
ATOM      9  C   UNL     1       8.747   7.724   7.553  0.00  0.00    +0.017 C 
ATOM     10  C   UNL     1       9.059   6.476   8.353  0.00  0.00    +0.085 C 
ATOM     16  C   UNL     1      10.005   4.309   7.826  0.00  0.00    +0.105 C 
ENDBRANCH  15   7
TORSDOF 2
ENDMDL
