MODEL 1
REMARK VINA RESULT:      -7.3      0.000      0.000
REMARK  Name = 28963083
REMARK  8 active torsions:
REMARK  status: ('A' for Active; 'I' for Inactive)
REMARK    1  A    between atoms: O_1  and  C_11
REMARK    2  A    between atoms: N_5  and  C_15
REMARK    3  A    between atoms: C_8  and  C_18
REMARK    4  A    between atoms: C_10  and  C_20
REMARK    5  A    between atoms: C_13  and  C_19
REMARK    6  A    between atoms: C_19  and  C_21
REMARK    7  A    between atoms: C_19  and  C_22
REMARK    8  A    between atoms: C_23  and  C_26
REMARK                            x       y       z     vdW  Elec       q    Type
REMARK                         _______ _______ _______ _____ _____    ______ ____
ROOT
ATOM      8  C   UNL     1       9.499   6.003   6.062  0.00  0.00    -0.027 C 
ATOM      9  C   UNL     1      10.512   7.103   5.599  0.00  0.00    +0.028 C 
ATOM     10  C   UNL     1      10.031   8.529   6.050  0.00  0.00    +0.012 C 
ATOM     11  C   UNL     1      10.850   6.958   4.087  0.00  0.00    +0.122 C 
ATOM     12  C   UNL     1      10.057   4.605   5.703  0.00  0.00    +0.007 C 
ATOM     13  C   UNL     1      11.308   5.529   3.715  0.00  0.00    +0.029 C 
ATOM     14  C   UNL     1       9.350   6.068   7.599  0.00  0.00    +0.009 C 
ATOM     15  C   UNL     1       9.812   8.563   7.588  0.00  0.00    +0.076 C 
ATOM     16  C   UNL     1      10.353   4.447   4.217  0.00  0.00    +0.007 C 
ATOM     17  C   UNL     1       8.910   7.438   8.098  0.00  0.00    +0.023 C 
ATOM     18  C   UNL     1       8.104   6.165   5.406  0.00  0.00    +0.011 C 
ATOM     20  C   UNL     1      10.996   9.659   5.651  0.00  0.00    +0.010 C 
ENDROOT
BRANCH  15   5
ATOM      3  O   UNL     1      11.157  10.594   9.107  0.00  0.00    -0.269 OA
ATOM      5  N   UNL     1       9.256   9.827   8.024  0.00  0.00    -0.307 N 
ATOM     23  C   UNL     1       9.990  10.745   8.756  0.00  0.00    +0.263 C 
ATOM     33  H   UNL     1       8.276  10.017   7.829  0.00  0.00    +0.149 HD
BRANCH  23  26
ATOM      7  N   UNL     1       9.477  13.059   8.356  0.00  0.00    -0.250 NA
ATOM     26  C   UNL     1       9.268  11.983   9.148  0.00  0.00    +0.125 A 
ATOM     29  C   UNL     1       8.443  11.987  10.261  0.00  0.00    +0.033 A 
ATOM     30  C   UNL     1       7.790  13.171  10.582  0.00  0.00    +0.004 A 
ATOM     31  C   UNL     1       8.826  14.193   8.700  0.00  0.00    +0.111 A 
ATOM     32  C   UNL     1       7.980  14.300   9.791  0.00  0.00    +0.020 A 
ENDBRANCH  23  26
ENDBRANCH  15   5
BRANCH  11   1
ATOM      1  O   UNL     1      11.929   7.833   3.755  0.00  0.00    -0.391 OA
ATOM     34  H   UNL     1      11.557   8.627   3.334  0.00  0.00    +0.210 HD
ENDBRANCH  11   1
BRANCH  13  19
ATOM     19  C   UNL     1      11.511   5.372   2.203  0.00  0.00    +0.078 C 
ATOM     21  C   UNL     1      10.211   5.001   1.512  0.00  0.00    +0.017 C 
BRANCH  19  22
ATOM      2  O   UNL     1      12.226   3.117   2.055  0.00  0.00    -0.275 OA
ATOM      4  O   UNL     1      16.182   5.505   0.289  0.00  0.00    -0.377 OA
ATOM      6  N   UNL     1      13.831   4.745   1.644  0.00  0.00    -0.297 N 
ATOM     22  C   UNL     1      12.548   4.304   1.964  0.00  0.00    +0.219 C 
ATOM     24  C   UNL     1      14.897   3.775   1.392  0.00  0.00    +0.136 C 
ATOM     25  C   UNL     1      14.278   6.141   1.653  0.00  0.00    +0.136 C 
ATOM     27  C   UNL     1      15.691   4.169   0.156  0.00  0.00    +0.179 C 
ATOM     28  C   UNL     1      15.104   6.439   0.407  0.00  0.00    +0.179 C 
ENDBRANCH  19  22
ENDBRANCH  13  19
TORSDOF 5
ENDMDL
MODEL 2
REMARK VINA RESULT:      -7.0     25.638     28.058
REMARK  Name = 28963083
REMARK  8 active torsions:
REMARK  status: ('A' for Active; 'I' for Inactive)
REMARK    1  A    between atoms: O_1  and  C_11
REMARK    2  A    between atoms: N_5  and  C_15
REMARK    3  A    between atoms: C_8  and  C_18
REMARK    4  A    between atoms: C_10  and  C_20
REMARK    5  A    between atoms: C_13  and  C_19
REMARK    6  A    between atoms: C_19  and  C_21
REMARK    7  A    between atoms: C_19  and  C_22
REMARK    8  A    between atoms: C_23  and  C_26
REMARK                            x       y       z     vdW  Elec       q    Type
REMARK                         _______ _______ _______ _____ _____    ______ ____
ROOT
ATOM      8  C   UNL     1      -4.923 -11.351  17.283  0.00  0.00    -0.027 C 
ATOM      9  C   UNL     1      -5.899 -10.539  16.368  0.00  0.00    +0.028 C 
ATOM     10  C   UNL     1      -7.357 -10.553  16.954  0.00  0.00    +0.012 C 
ATOM     11  C   UNL     1      -5.773 -10.978  14.880  0.00  0.00    +0.122 C 
ATOM     12  C   UNL     1      -3.480 -11.221  16.740  0.00  0.00    +0.007 C 
ATOM     13  C   UNL     1      -4.313 -10.946  14.373  0.00  0.00    +0.029 C 
ATOM     14  C   UNL     1      -4.945 -10.746  18.705  0.00  0.00    +0.009 C 
ATOM     15  C   UNL     1      -7.356 -10.014  18.412  0.00  0.00    +0.076 C 
ATOM     16  C   UNL     1      -3.345 -11.687  15.295  0.00  0.00    +0.007 C 
ATOM     17  C   UNL     1      -6.339 -10.710  19.317  0.00  0.00    +0.023 C 
ATOM     18  C   UNL     1      -5.293 -12.854  17.361  0.00  0.00    +0.011 C 
ATOM     20  C   UNL     1      -8.366  -9.749  16.117  0.00  0.00    +0.010 C 
ENDROOT
BRANCH  15   5
ATOM      3  O   UNL     1      -8.678 -12.432  19.214  0.00  0.00    -0.269 OA
ATOM      5  N   UNL     1      -8.664 -10.122  19.025  0.00  0.00    -0.307 N 
ATOM     23  C   UNL     1      -9.216 -11.341  19.377  0.00  0.00    +0.263 C 
ATOM     33  H   UNL     1      -9.211  -9.274  19.148  0.00  0.00    +0.149 HD
BRANCH  23  26
ATOM      7  N   UNL     1     -11.066 -12.460  20.429  0.00  0.00    -0.250 NA
ATOM     26  C   UNL     1     -10.576 -11.284  19.974  0.00  0.00    +0.125 A 
ATOM     29  C   UNL     1     -11.260 -10.080  20.038  0.00  0.00    +0.033 A 
ATOM     30  C   UNL     1     -12.528 -10.084  20.608  0.00  0.00    +0.004 A 
ATOM     31  C   UNL     1     -12.303 -12.423  20.975  0.00  0.00    +0.111 A 
ATOM     32  C   UNL     1     -13.067 -11.273  21.087  0.00  0.00    +0.020 A 
ENDBRANCH  23  26
ENDBRANCH  15   5
BRANCH  11   1
ATOM      1  O   UNL     1      -6.512 -10.077  14.054  0.00  0.00    -0.391 OA
ATOM     34  H   UNL     1      -6.537  -9.212  14.496  0.00  0.00    +0.210 HD
ENDBRANCH  11   1
BRANCH  13  19
ATOM     19  C   UNL     1      -4.193 -11.504  12.950  0.00  0.00    +0.078 C 
ATOM     21  C   UNL     1      -3.335 -12.756  12.923  0.00  0.00    +0.017 C 
BRANCH  19  22
ATOM      2  O   UNL     1      -2.421 -10.093  12.251  0.00  0.00    -0.275 OA
ATOM      4  O   UNL     1      -5.712  -9.378   8.629  0.00  0.00    -0.377 OA
ATOM      6  N   UNL     1      -4.412  -9.922  11.069  0.00  0.00    -0.297 N 
ATOM     22  C   UNL     1      -3.588 -10.444  12.065  0.00  0.00    +0.219 C 
ATOM     24  C   UNL     1      -3.904  -8.891  10.164  0.00  0.00    +0.136 C 
ATOM     25  C   UNL     1      -5.837 -10.221  10.901  0.00  0.00    +0.136 C 
ATOM     27  C   UNL     1      -4.296  -9.207   8.728  0.00  0.00    +0.179 C 
ATOM     28  C   UNL     1      -6.153 -10.477   9.432  0.00  0.00    +0.179 C 
ENDBRANCH  19  22
ENDBRANCH  13  19
TORSDOF 5
ENDMDL
MODEL 3
REMARK VINA RESULT:      -6.8     26.322     28.722
REMARK  Name = 28963083
REMARK  8 active torsions:
REMARK  status: ('A' for Active; 'I' for Inactive)
REMARK    1  A    between atoms: O_1  and  C_11
REMARK    2  A    between atoms: N_5  and  C_15
REMARK    3  A    between atoms: C_8  and  C_18
REMARK    4  A    between atoms: C_10  and  C_20
REMARK    5  A    between atoms: C_13  and  C_19
REMARK    6  A    between atoms: C_19  and  C_21
REMARK    7  A    between atoms: C_19  and  C_22
REMARK    8  A    between atoms: C_23  and  C_26
REMARK                            x       y       z     vdW  Elec       q    Type
REMARK                         _______ _______ _______ _____ _____    ______ ____
ROOT
ATOM      8  C   UNL     1      -9.536 -10.834  18.390  0.00  0.00    -0.027 C 
ATOM      9  C   UNL     1      -8.885  -9.947  17.278  0.00  0.00    +0.028 C 
ATOM     10  C   UNL     1      -9.984  -9.332  16.339  0.00  0.00    +0.012 C 
ATOM     11  C   UNL     1      -7.735 -10.706  16.554  0.00  0.00    +0.122 C 
ATOM     12  C   UNL     1      -8.440 -11.330  19.363  0.00  0.00    +0.007 C 
ATOM     13  C   UNL     1      -6.695 -11.289  17.539  0.00  0.00    +0.029 C 
ATOM     14  C   UNL     1     -10.531  -9.975  19.204  0.00  0.00    +0.009 C 
ATOM     15  C   UNL     1     -11.021  -8.532  17.175  0.00  0.00    +0.076 C 
ATOM     16  C   UNL     1      -7.331 -12.107  18.662  0.00  0.00    +0.007 C 
ATOM     17  C   UNL     1     -11.606  -9.330  18.341  0.00  0.00    +0.023 C 
ATOM     18  C   UNL     1     -10.280 -12.064  17.810  0.00  0.00    +0.011 C 
ATOM     20  C   UNL     1      -9.414  -8.424  15.236  0.00  0.00    +0.010 C 
ENDROOT
BRANCH  15   5
ATOM      3  O   UNL     1     -11.518  -5.809  16.412  0.00  0.00    -0.269 OA
ATOM      5  N   UNL     1     -12.114  -8.049  16.356  0.00  0.00    -0.307 N 
ATOM     23  C   UNL     1     -12.267  -6.710  16.043  0.00  0.00    +0.263 C 
ATOM     33  H   UNL     1     -12.819  -8.715  16.051  0.00  0.00    +0.149 HD
BRANCH  23  26
ATOM      7  N   UNL     1     -13.227  -5.532  14.180  0.00  0.00    -0.250 NA
ATOM     26  C   UNL     1     -13.454  -6.373  15.214  0.00  0.00    +0.125 A 
ATOM     29  C   UNL     1     -14.693  -6.912  15.519  0.00  0.00    +0.033 A 
ATOM     30  C   UNL     1     -15.769  -6.566  14.710  0.00  0.00    +0.004 A 
ATOM     31  C   UNL     1     -14.298  -5.217  13.417  0.00  0.00    +0.111 A 
ATOM     32  C   UNL     1     -15.576  -5.703  13.637  0.00  0.00    +0.020 A 
ENDBRANCH  23  26
ENDBRANCH  15   5
BRANCH  11   1
ATOM      1  O   UNL     1      -7.029  -9.800  15.704  0.00  0.00    -0.391 OA
ATOM     34  H   UNL     1      -6.148 -10.172  15.530  0.00  0.00    +0.210 HD
ENDBRANCH  11   1
BRANCH  13  19
ATOM     19  C   UNL     1      -5.643 -12.140  16.818  0.00  0.00    +0.078 C 
ATOM     21  C   UNL     1      -5.737 -13.597  17.236  0.00  0.00    +0.017 C 
BRANCH  19  22
ATOM      2  O   UNL     1      -3.884 -11.604  18.312  0.00  0.00    -0.275 OA
ATOM      4  O   UNL     1      -1.709 -10.828  13.938  0.00  0.00    -0.377 OA
ATOM      6  N   UNL     1      -3.529 -11.112  16.071  0.00  0.00    -0.297 N 
ATOM     22  C   UNL     1      -4.276 -11.596  17.143  0.00  0.00    +0.219 C 
ATOM     24  C   UNL     1      -2.189 -10.569  16.297  0.00  0.00    +0.136 C 
ATOM     25  C   UNL     1      -4.010 -10.970  14.693  0.00  0.00    +0.136 C 
ATOM     27  C   UNL     1      -1.218 -11.101  15.253  0.00  0.00    +0.179 C 
ATOM     28  C   UNL     1      -2.962 -11.481  13.712  0.00  0.00    +0.179 C 
ENDBRANCH  19  22
ENDBRANCH  13  19
TORSDOF 5
ENDMDL
MODEL 4
REMARK VINA RESULT:      -6.7     27.479     31.407
REMARK  Name = 28963083
REMARK  8 active torsions:
REMARK  status: ('A' for Active; 'I' for Inactive)
REMARK    1  A    between atoms: O_1  and  C_11
REMARK    2  A    between atoms: N_5  and  C_15
REMARK    3  A    between atoms: C_8  and  C_18
REMARK    4  A    between atoms: C_10  and  C_20
REMARK    5  A    between atoms: C_13  and  C_19
REMARK    6  A    between atoms: C_19  and  C_21
REMARK    7  A    between atoms: C_19  and  C_22
REMARK    8  A    between atoms: C_23  and  C_26
REMARK                            x       y       z     vdW  Elec       q    Type
REMARK                         _______ _______ _______ _____ _____    ______ ____
ROOT
ATOM      8  C   UNL     1     -17.095   5.834  21.153  0.00  0.00    -0.027 C 
ATOM      9  C   UNL     1     -15.582   5.688  21.529  0.00  0.00    +0.028 C 
ATOM     10  C   UNL     1     -15.418   5.297  23.042  0.00  0.00    +0.012 C 
ATOM     11  C   UNL     1     -14.765   6.929  21.066  0.00  0.00    +0.122 C 
ATOM     12  C   UNL     1     -17.225   6.106  19.635  0.00  0.00    +0.007 C 
ATOM     13  C   UNL     1     -14.980   7.259  19.571  0.00  0.00    +0.029 C 
ATOM     14  C   UNL     1     -17.821   4.503  21.455  0.00  0.00    +0.009 C 
ATOM     15  C   UNL     1     -16.213   3.998  23.351  0.00  0.00    +0.076 C 
ATOM     16  C   UNL     1     -16.456   7.343  19.186  0.00  0.00    +0.007 C 
ATOM     17  C   UNL     1     -17.674   4.058  22.903  0.00  0.00    +0.023 C 
ATOM     18  C   UNL     1     -17.792   6.982  21.927  0.00  0.00    +0.011 C 
ATOM     20  C   UNL     1     -13.954   5.109  23.474  0.00  0.00    +0.010 C 
ENDROOT
BRANCH  15   5
ATOM      3  O   UNL     1     -16.664   1.417  24.525  0.00  0.00    -0.269 OA
ATOM      5  N   UNL     1     -16.181   3.672  24.762  0.00  0.00    -0.307 N 
ATOM     23  C   UNL     1     -16.412   2.390  25.230  0.00  0.00    +0.263 C 
ATOM     33  H   UNL     1     -16.037   4.426  25.429  0.00  0.00    +0.149 HD
BRANCH  23  26
ATOM      7  N   UNL     1     -15.897   3.285  27.401  0.00  0.00    -0.250 NA
ATOM     26  C   UNL     1     -16.368   2.225  26.707  0.00  0.00    +0.125 A 
ATOM     29  C   UNL     1     -16.793   1.042  27.290  0.00  0.00    +0.033 A 
ATOM     30  C   UNL     1     -16.732   0.941  28.675  0.00  0.00    +0.004 A 
ATOM     31  C   UNL     1     -15.852   3.150  28.746  0.00  0.00    +0.111 A 
ATOM     32  C   UNL     1     -16.254   2.011  29.424  0.00  0.00    +0.020 A 
ENDBRANCH  23  26
ENDBRANCH  15   5
BRANCH  11   1
ATOM      1  O   UNL     1     -13.370   6.667  21.230  0.00  0.00    -0.391 OA
ATOM     34  H   UNL     1     -13.267   5.747  21.528  0.00  0.00    +0.210 HD
ENDBRANCH  11   1
BRANCH  13  19
ATOM     19  C   UNL     1     -14.270   8.557  19.168  0.00  0.00    +0.078 C 
ATOM     21  C   UNL     1     -15.269   9.673  18.920  0.00  0.00    +0.017 C 
BRANCH  19  22
ATOM      2  O   UNL     1     -14.038   7.929  16.893  0.00  0.00    -0.275 OA
ATOM      4  O   UNL     1      -9.491   9.588  17.908  0.00  0.00    -0.377 OA
ATOM      6  N   UNL     1     -12.088   8.502  18.016  0.00  0.00    -0.297 N 
ATOM     22  C   UNL     1     -13.464   8.298  17.920  0.00  0.00    +0.219 C 
ATOM     24  C   UNL     1     -11.232   8.277  16.852  0.00  0.00    +0.136 C 
ATOM     25  C   UNL     1     -11.359   8.815  19.249  0.00  0.00    +0.136 C 
ATOM     27  C   UNL     1     -10.236   9.417  16.699  0.00  0.00    +0.179 C 
ATOM     28  C   UNL     1     -10.352   9.931  18.998  0.00  0.00    +0.179 C 
ENDBRANCH  19  22
ENDBRANCH  13  19
TORSDOF 5
ENDMDL
MODEL 5
REMARK VINA RESULT:      -6.4     23.836     25.449
REMARK  Name = 28963083
REMARK  8 active torsions:
REMARK  status: ('A' for Active; 'I' for Inactive)
REMARK    1  A    between atoms: O_1  and  C_11
REMARK    2  A    between atoms: N_5  and  C_15
REMARK    3  A    between atoms: C_8  and  C_18
REMARK    4  A    between atoms: C_10  and  C_20
REMARK    5  A    between atoms: C_13  and  C_19
REMARK    6  A    between atoms: C_19  and  C_21
REMARK    7  A    between atoms: C_19  and  C_22
REMARK    8  A    between atoms: C_23  and  C_26
REMARK                            x       y       z     vdW  Elec       q    Type
REMARK                         _______ _______ _______ _____ _____    ______ ____
ROOT
ATOM      8  C   UNL     1      -5.861 -11.348   6.400  0.00  0.00    -0.027 C 
ATOM      9  C   UNL     1      -6.055  -9.912   6.993  0.00  0.00    +0.028 C 
ATOM     10  C   UNL     1      -5.852  -9.919   8.550  0.00  0.00    +0.012 C 
ATOM     11  C   UNL     1      -7.384  -9.273   6.495  0.00  0.00    +0.122 C 
ATOM     12  C   UNL     1      -5.954 -11.285   4.857  0.00  0.00    +0.007 C 
ATOM     13  C   UNL     1      -7.519  -9.307   4.955  0.00  0.00    +0.029 C 
ATOM     14  C   UNL     1      -4.447 -11.856   6.763  0.00  0.00    +0.009 C 
ATOM     15  C   UNL     1      -4.457 -10.502   8.909  0.00  0.00    +0.076 C 
ATOM     16  C   UNL     1      -7.271 -10.695   4.365  0.00  0.00    +0.007 C 
ATOM     17  C   UNL     1      -4.182 -11.861   8.262  0.00  0.00    +0.023 C 
ATOM     18  C   UNL     1      -6.916 -12.356   6.923  0.00  0.00    +0.011 C 
ATOM     20  C   UNL     1      -6.002  -8.532   9.197  0.00  0.00    +0.010 C 
ENDROOT
BRANCH  15   5
ATOM      3  O   UNL     1      -2.339  -9.375  10.486  0.00  0.00    -0.269 OA
ATOM      5  N   UNL     1      -4.281 -10.633  10.341  0.00  0.00    -0.307 N 
ATOM     23  C   UNL     1      -3.221 -10.048  11.012  0.00  0.00    +0.263 C 
ATOM     33  H   UNL     1      -4.931 -11.221  10.855  0.00  0.00    +0.149 HD
BRANCH  23  26
ATOM      7  N   UNL     1      -1.933 -10.306  13.024  0.00  0.00    -0.250 NA
ATOM     26  C   UNL     1      -3.168 -10.297  12.476  0.00  0.00    +0.125 A 
ATOM     29  C   UNL     1      -4.338 -10.500  13.192  0.00  0.00    +0.033 A 
ATOM     30  C   UNL     1      -4.231 -10.726  14.559  0.00  0.00    +0.004 A 
ATOM     31  C   UNL     1      -1.869 -10.530  14.357  0.00  0.00    +0.111 A 
ATOM     32  C   UNL     1      -2.978 -10.743  15.160  0.00  0.00    +0.020 A 
ENDBRANCH  23  26
ENDBRANCH  15   5
BRANCH  11   1
ATOM      1  O   UNL     1      -7.422  -7.897   6.878  0.00  0.00    -0.391 OA
ATOM     34  H   UNL     1      -7.974  -7.820   7.674  0.00  0.00    +0.210 HD
ENDBRANCH  11   1
BRANCH  13  19
ATOM     19  C   UNL     1      -8.888  -8.792   4.493  0.00  0.00    +0.078 C 
ATOM     21  C   UNL     1      -9.747  -9.924   3.959  0.00  0.00    +0.017 C 
BRANCH  19  22
ATOM      2  O   UNL     1      -7.577  -7.672   2.865  0.00  0.00    -0.275 OA
ATOM      4  O   UNL     1     -12.062  -5.798   1.953  0.00  0.00    -0.377 OA
ATOM      6  N   UNL     1      -9.766  -6.939   3.120  0.00  0.00    -0.297 N 
ATOM     22  C   UNL     1      -8.675  -7.754   3.420  0.00  0.00    +0.219 C 
ATOM     24  C   UNL     1      -9.647  -5.908   2.089  0.00  0.00    +0.136 C 
ATOM     25  C   UNL     1     -11.040  -6.922   3.844  0.00  0.00    +0.136 C 
ATOM     27  C   UNL     1     -10.866  -5.925   1.179  0.00  0.00    +0.179 C 
ATOM     28  C   UNL     1     -12.205  -6.893   2.862  0.00  0.00    +0.179 C 
ENDBRANCH  19  22
ENDBRANCH  13  19
TORSDOF 5
ENDMDL
MODEL 6
REMARK VINA RESULT:      -6.3     17.170     19.822
REMARK  Name = 28963083
REMARK  8 active torsions:
REMARK  status: ('A' for Active; 'I' for Inactive)
REMARK    1  A    between atoms: O_1  and  C_11
REMARK    2  A    between atoms: N_5  and  C_15
REMARK    3  A    between atoms: C_8  and  C_18
REMARK    4  A    between atoms: C_10  and  C_20
REMARK    5  A    between atoms: C_13  and  C_19
REMARK    6  A    between atoms: C_19  and  C_21
REMARK    7  A    between atoms: C_19  and  C_22
REMARK    8  A    between atoms: C_23  and  C_26
REMARK                            x       y       z     vdW  Elec       q    Type
REMARK                         _______ _______ _______ _____ _____    ______ ____
ROOT
ATOM      8  C   UNL     1      20.796  -5.446   0.263  0.00  0.00    -0.027 C 
ATOM      9  C   UNL     1      20.054  -6.820   0.357  0.00  0.00    +0.028 C 
ATOM     10  C   UNL     1      20.936  -7.882   1.107  0.00  0.00    +0.012 C 
ATOM     11  C   UNL     1      19.511  -7.264  -1.032  0.00  0.00    +0.122 C 
ATOM     12  C   UNL     1      19.858  -4.396  -0.377  0.00  0.00    +0.007 C 
ATOM     13  C   UNL     1      18.659  -6.169  -1.715  0.00  0.00    +0.029 C 
ATOM     14  C   UNL     1      21.141  -4.960   1.690  0.00  0.00    +0.009 C 
ATOM     15  C   UNL     1      21.339  -7.351   2.512  0.00  0.00    +0.076 C 
ATOM     16  C   UNL     1      19.356  -4.810  -1.755  0.00  0.00    +0.007 C 
ATOM     17  C   UNL     1      21.975  -5.961   2.476  0.00  0.00    +0.023 C 
ATOM     18  C   UNL     1      22.097  -5.529  -0.576  0.00  0.00    +0.011 C 
ATOM     20  C   UNL     1      20.254  -9.252   1.261  0.00  0.00    +0.010 C 
ENDROOT
BRANCH  15   5
ATOM      3  O   UNL     1      21.502  -7.828   5.338  0.00  0.00    -0.269 OA
ATOM      5  N   UNL     1      22.250  -8.254   3.185  0.00  0.00    -0.307 N 
ATOM     23  C   UNL     1      22.249  -8.414   4.560  0.00  0.00    +0.263 C 
ATOM     33  H   UNL     1      22.947  -8.741   2.629  0.00  0.00    +0.149 HD
BRANCH  23  26
ATOM      7  N   UNL     1      24.473  -8.824   5.376  0.00  0.00    -0.250 NA
ATOM     26  C   UNL     1      23.262  -9.359   5.100  0.00  0.00    +0.125 A 
ATOM     29  C   UNL     1      22.940 -10.693   5.291  0.00  0.00    +0.033 A 
ATOM     30  C   UNL     1      23.925 -11.532   5.800  0.00  0.00    +0.004 A 
ATOM     31  C   UNL     1      25.405  -9.672   5.869  0.00  0.00    +0.111 A 
ATOM     32  C   UNL     1      25.183 -11.020   6.097  0.00  0.00    +0.020 A 
ENDBRANCH  23  26
ENDBRANCH  15   5
BRANCH  11   1
ATOM      1  O   UNL     1      18.662  -8.401  -0.870  0.00  0.00    -0.391 OA
ATOM     34  H   UNL     1      17.740  -8.094  -0.882  0.00  0.00    +0.210 HD
ENDBRANCH  11   1
BRANCH  13  19
ATOM     19  C   UNL     1      18.243  -6.574  -3.134  0.00  0.00    +0.078 C 
ATOM     21  C   UNL     1      18.980  -5.752  -4.176  0.00  0.00    +0.017 C 
BRANCH  19  22
ATOM      2  O   UNL     1      16.261  -5.281  -2.992  0.00  0.00    -0.275 OA
ATOM      4  O   UNL     1      14.617  -9.321  -5.325  0.00  0.00    -0.377 OA
ATOM      6  N   UNL     1      16.023  -7.469  -3.733  0.00  0.00    -0.297 N 
ATOM     22  C   UNL     1      16.755  -6.375  -3.276  0.00  0.00    +0.219 C 
ATOM     24  C   UNL     1      14.574  -7.361  -3.904  0.00  0.00    +0.136 C 
ATOM     25  C   UNL     1      16.556  -8.816  -3.957  0.00  0.00    +0.136 C 
ATOM     27  C   UNL     1      14.149  -7.973  -5.231  0.00  0.00    +0.179 C 
ATOM     28  C   UNL     1      16.046  -9.373  -5.281  0.00  0.00    +0.179 C 
ENDBRANCH  19  22
ENDBRANCH  13  19
TORSDOF 5
ENDMDL
MODEL 7
REMARK VINA RESULT:      -6.2     24.438     29.019
REMARK  Name = 28963083
REMARK  8 active torsions:
REMARK  status: ('A' for Active; 'I' for Inactive)
REMARK    1  A    between atoms: O_1  and  C_11
REMARK    2  A    between atoms: N_5  and  C_15
REMARK    3  A    between atoms: C_8  and  C_18
REMARK    4  A    between atoms: C_10  and  C_20
REMARK    5  A    between atoms: C_13  and  C_19
REMARK    6  A    between atoms: C_19  and  C_21
REMARK    7  A    between atoms: C_19  and  C_22
REMARK    8  A    between atoms: C_23  and  C_26
REMARK                            x       y       z     vdW  Elec       q    Type
REMARK                         _______ _______ _______ _____ _____    ______ ____
ROOT
ATOM      8  C   UNL     1     -11.592   8.004  19.028  0.00  0.00    -0.027 C 
ATOM      9  C   UNL     1     -13.016   7.918  18.385  0.00  0.00    +0.028 C 
ATOM     10  C   UNL     1     -13.135   8.890  17.157  0.00  0.00    +0.012 C 
ATOM     11  C   UNL     1     -14.130   8.063  19.463  0.00  0.00    +0.122 C 
ATOM     12  C   UNL     1     -11.472   6.956  20.159  0.00  0.00    +0.007 C 
ATOM     13  C   UNL     1     -13.946   7.082  20.643  0.00  0.00    +0.029 C 
ATOM     14  C   UNL     1     -10.533   7.661  17.955  0.00  0.00    +0.009 C 
ATOM     15  C   UNL     1     -12.019   8.585  16.119  0.00  0.00    +0.076 C 
ATOM     16  C   UNL     1     -12.538   7.119  21.236  0.00  0.00    +0.007 C 
ATOM     17  C   UNL     1     -10.616   8.555  16.726  0.00  0.00    +0.023 C 
ATOM     18  C   UNL     1     -11.288   9.407  19.614  0.00  0.00    +0.011 C 
ATOM     20  C   UNL     1     -14.504   8.835  16.458  0.00  0.00    +0.010 C 
ENDROOT
BRANCH  15   5
ATOM      3  O   UNL     1     -11.815   7.986  13.318  0.00  0.00    -0.269 OA
ATOM      5  N   UNL     1     -12.026   9.537  15.028  0.00  0.00    -0.307 N 
ATOM     23  C   UNL     1     -11.922   9.146  13.704  0.00  0.00    +0.263 C 
ATOM     33  H   UNL     1     -12.052  10.528  15.252  0.00  0.00    +0.149 HD
BRANCH  23  26
ATOM      7  N   UNL     1     -11.883  11.499  13.213  0.00  0.00    -0.250 NA
ATOM     26  C   UNL     1     -11.918  10.246  12.705  0.00  0.00    +0.125 A 
ATOM     29  C   UNL     1     -11.949   9.958  11.350  0.00  0.00    +0.033 A 
ATOM     30  C   UNL     1     -11.943  11.025  10.459  0.00  0.00    +0.004 A 
ATOM     31  C   UNL     1     -11.878  12.511  12.315  0.00  0.00    +0.111 A 
ATOM     32  C   UNL     1     -11.906  12.328  10.942  0.00  0.00    +0.020 A 
ENDBRANCH  23  26
ENDBRANCH  15   5
BRANCH  11   1
ATOM      1  O   UNL     1     -15.399   7.765  18.878  0.00  0.00    -0.391 OA
ATOM     34  H   UNL     1     -15.296   7.771  17.911  0.00  0.00    +0.210 HD
ENDBRANCH  11   1
BRANCH  13  19
ATOM     19  C   UNL     1     -14.975   7.328  21.753  0.00  0.00    +0.078 C 
ATOM     21  C   UNL     1     -14.503   8.408  22.709  0.00  0.00    +0.017 C 
BRANCH  19  22
ATOM      2  O   UNL     1     -14.384   5.687  23.359  0.00  0.00    -0.275 OA
ATOM      4  O   UNL     1     -18.927   4.203  22.087  0.00  0.00    -0.377 OA
ATOM      6  N   UNL     1     -16.338   5.312  22.162  0.00  0.00    -0.297 N 
ATOM     22  C   UNL     1     -15.197   6.037  22.500  0.00  0.00    +0.219 C 
ATOM     24  C   UNL     1     -16.631   4.049  22.841  0.00  0.00    +0.136 C 
ATOM     25  C   UNL     1     -17.254   5.631  21.063  0.00  0.00    +0.136 C 
ATOM     27  C   UNL     1     -18.100   3.988  23.234  0.00  0.00    +0.179 C 
ATOM     28  C   UNL     1     -18.700   5.499  21.526  0.00  0.00    +0.179 C 
ENDBRANCH  19  22
ENDBRANCH  13  19
TORSDOF 5
ENDMDL
MODEL 8
REMARK VINA RESULT:      -6.2     28.357     32.701
REMARK  Name = 28963083
REMARK  8 active torsions:
REMARK  status: ('A' for Active; 'I' for Inactive)
REMARK    1  A    between atoms: O_1  and  C_11
REMARK    2  A    between atoms: N_5  and  C_15
REMARK    3  A    between atoms: C_8  and  C_18
REMARK    4  A    between atoms: C_10  and  C_20
REMARK    5  A    between atoms: C_13  and  C_19
REMARK    6  A    between atoms: C_19  and  C_21
REMARK    7  A    between atoms: C_19  and  C_22
REMARK    8  A    between atoms: C_23  and  C_26
REMARK                            x       y       z     vdW  Elec       q    Type
REMARK                         _______ _______ _______ _____ _____    ______ ____
ROOT
ATOM      8  C   UNL     1     -17.330   5.674  21.893  0.00  0.00    -0.027 C 
ATOM      9  C   UNL     1     -15.979   5.319  22.599  0.00  0.00    +0.028 C 
ATOM     10  C   UNL     1     -14.758   5.655  21.669  0.00  0.00    +0.012 C 
ATOM     11  C   UNL     1     -16.005   3.871  23.171  0.00  0.00    +0.122 C 
ATOM     12  C   UNL     1     -18.502   5.438  22.875  0.00  0.00    +0.007 C 
ATOM     13  C   UNL     1     -17.236   3.610  24.069  0.00  0.00    +0.029 C 
ATOM     14  C   UNL     1     -17.325   7.174  21.519  0.00  0.00    +0.009 C 
ATOM     15  C   UNL     1     -14.804   7.147  21.238  0.00  0.00    +0.076 C 
ATOM     16  C   UNL     1     -18.554   4.011  23.407  0.00  0.00    +0.007 C 
ATOM     17  C   UNL     1     -16.147   7.565  20.638  0.00  0.00    +0.023 C 
ATOM     18  C   UNL     1     -17.573   4.830  20.616  0.00  0.00    +0.011 C 
ATOM     20  C   UNL     1     -13.393   5.356  22.313  0.00  0.00    +0.010 C 
ENDROOT
BRANCH  15   5
ATOM      3  O   UNL     1     -12.710   9.083  21.572  0.00  0.00    -0.269 OA
ATOM      5  N   UNL     1     -13.759   7.464  20.286  0.00  0.00    -0.307 N 
ATOM     23  C   UNL     1     -12.790   8.418  20.543  0.00  0.00    +0.263 C 
ATOM     33  H   UNL     1     -13.776   7.005  19.380  0.00  0.00    +0.149 HD
BRANCH  23  26
ATOM      7  N   UNL     1     -11.839   7.754  18.437  0.00  0.00    -0.250 NA
ATOM     26  C   UNL     1     -11.803   8.644  19.454  0.00  0.00    +0.125 A 
ATOM     29  C   UNL     1     -10.923   9.712  19.521  0.00  0.00    +0.033 A 
ATOM     30  C   UNL     1     -10.022   9.878  18.475  0.00  0.00    +0.004 A 
ATOM     31  C   UNL     1     -10.947   7.947  17.439  0.00  0.00    +0.111 A 
ATOM     32  C   UNL     1     -10.028   8.983  17.411  0.00  0.00    +0.020 A 
ENDBRANCH  23  26
ENDBRANCH  15   5
BRANCH  11   1
ATOM      1  O   UNL     1     -14.852   3.661  23.987  0.00  0.00    -0.391 OA
ATOM     34  H   UNL     1     -14.605   2.723  23.926  0.00  0.00    +0.210 HD
ENDBRANCH  11   1
BRANCH  13  19
ATOM     19  C   UNL     1     -17.313   2.145  24.516  0.00  0.00    +0.078 C 
ATOM     21  C   UNL     1     -17.898   1.269  23.423  0.00  0.00    +0.017 C 
BRANCH  19  22
ATOM      2  O   UNL     1     -19.254   1.485  25.706  0.00  0.00    -0.275 OA
ATOM      4  O   UNL     1     -16.390   3.154  29.377  0.00  0.00    -0.377 OA
ATOM      6  N   UNL     1     -17.651   2.661  26.906  0.00  0.00    -0.297 N 
ATOM     22  C   UNL     1     -18.167   2.064  25.757  0.00  0.00    +0.219 C 
ATOM     24  C   UNL     1     -18.412   2.625  28.154  0.00  0.00    +0.136 C 
ATOM     25  C   UNL     1     -16.426   3.464  26.971  0.00  0.00    +0.136 C 
ATOM     27  C   UNL     1     -17.504   2.259  29.319  0.00  0.00    +0.179 C 
ATOM     28  C   UNL     1     -15.599   3.068  28.188  0.00  0.00    +0.179 C 
ENDBRANCH  19  22
ENDBRANCH  13  19
TORSDOF 5
ENDMDL
MODEL 9
REMARK VINA RESULT:      -6.2     29.170     32.389
REMARK  Name = 28963083
REMARK  8 active torsions:
REMARK  status: ('A' for Active; 'I' for Inactive)
REMARK    1  A    between atoms: O_1  and  C_11
REMARK    2  A    between atoms: N_5  and  C_15
REMARK    3  A    between atoms: C_8  and  C_18
REMARK    4  A    between atoms: C_10  and  C_20
REMARK    5  A    between atoms: C_13  and  C_19
REMARK    6  A    between atoms: C_19  and  C_21
REMARK    7  A    between atoms: C_19  and  C_22
REMARK    8  A    between atoms: C_23  and  C_26
REMARK                            x       y       z     vdW  Elec       q    Type
REMARK                         _______ _______ _______ _____ _____    ______ ____
ROOT
ATOM      8  C   UNL     1     -10.302  -9.886  17.735  0.00  0.00    -0.027 C 
ATOM      9  C   UNL     1      -9.570 -10.953  18.615  0.00  0.00    +0.028 C 
ATOM     10  C   UNL     1      -8.292 -11.500  17.883  0.00  0.00    +0.012 C 
ATOM     11  C   UNL     1     -10.562 -12.037  19.127  0.00  0.00    +0.122 C 
ATOM     12  C   UNL     1     -11.486  -9.287  18.530  0.00  0.00    +0.007 C 
ATOM     13  C   UNL     1     -11.797 -11.428  19.829  0.00  0.00    +0.029 C 
ATOM     14  C   UNL     1      -9.320  -8.735  17.417  0.00  0.00    +0.009 C 
ATOM     15  C   UNL     1      -7.347 -10.327  17.501  0.00  0.00    +0.076 C 
ATOM     16  C   UNL     1     -12.481 -10.342  19.000  0.00  0.00    +0.007 C 
ATOM     17  C   UNL     1      -8.047  -9.209  16.729  0.00  0.00    +0.023 C 
ATOM     18  C   UNL     1     -10.841 -10.478  16.408  0.00  0.00    +0.011 C 
ATOM     20  C   UNL     1      -7.507 -12.536  18.705  0.00  0.00    +0.010 C 
ENDROOT
BRANCH  15   5
ATOM      3  O   UNL     1      -4.610 -10.448  18.360  0.00  0.00    -0.269 OA
ATOM      5  N   UNL     1      -6.214 -10.782  16.721  0.00  0.00    -0.307 N 
ATOM     23  C   UNL     1      -4.927 -10.802  17.228  0.00  0.00    +0.263 C 
ATOM     33  H   UNL     1      -6.370 -11.042  15.750  0.00  0.00    +0.149 HD
BRANCH  23  26
ATOM      7  N   UNL     1      -4.214 -12.313  15.500  0.00  0.00    -0.250 NA
ATOM     26  C   UNL     1      -3.872 -11.273  16.293  0.00  0.00    +0.125 A 
ATOM     29  C   UNL     1      -2.633 -10.653  16.271  0.00  0.00    +0.033 A 
ATOM     30  C   UNL     1      -1.683 -11.132  15.375  0.00  0.00    +0.004 A 
ATOM     31  C   UNL     1      -3.264 -12.751  14.642  0.00  0.00    +0.111 A 
ATOM     32  C   UNL     1      -1.997 -12.200  14.542  0.00  0.00    +0.020 A 
ENDBRANCH  23  26
ENDBRANCH  15   5
BRANCH  11   1
ATOM      1  O   UNL     1      -9.909 -12.863  20.093  0.00  0.00    -0.391 OA
ATOM     34  H   UNL     1     -10.386 -12.779  20.935  0.00  0.00    +0.210 HD
ENDBRANCH  11   1
BRANCH  13  19
ATOM     19  C   UNL     1     -12.823 -12.502  20.211  0.00  0.00    +0.078 C 
ATOM     21  C   UNL     1     -13.880 -12.658  19.131  0.00  0.00    +0.017 C 
BRANCH  19  22
ATOM      2  O   UNL     1     -14.273 -11.176  21.536  0.00  0.00    -0.275 OA
ATOM      4  O   UNL     1     -13.018 -14.732  24.737  0.00  0.00    -0.377 OA
ATOM      6  N   UNL     1     -13.107 -12.856  22.636  0.00  0.00    -0.297 N 
ATOM     22  C   UNL     1     -13.470 -12.111  21.515  0.00  0.00    +0.219 C 
ATOM     24  C   UNL     1     -13.690 -12.546  23.941  0.00  0.00    +0.136 C 
ATOM     25  C   UNL     1     -12.064 -13.886  22.672  0.00  0.00    +0.136 C 
ATOM     27  C   UNL     1     -14.119 -13.823  24.648  0.00  0.00    +0.179 C 
ATOM     28  C   UNL     1     -12.557 -15.109  23.436  0.00  0.00    +0.179 C 
ENDBRANCH  19  22
ENDBRANCH  13  19
TORSDOF 5
ENDMDL
MODEL 10
REMARK VINA RESULT:      -6.2     24.008     26.897
REMARK  Name = 28963083
REMARK  8 active torsions:
REMARK  status: ('A' for Active; 'I' for Inactive)
REMARK    1  A    between atoms: O_1  and  C_11
REMARK    2  A    between atoms: N_5  and  C_15
REMARK    3  A    between atoms: C_8  and  C_18
REMARK    4  A    between atoms: C_10  and  C_20
REMARK    5  A    between atoms: C_13  and  C_19
REMARK    6  A    between atoms: C_19  and  C_21
REMARK    7  A    between atoms: C_19  and  C_22
REMARK    8  A    between atoms: C_23  and  C_26
REMARK                            x       y       z     vdW  Elec       q    Type
REMARK                         _______ _______ _______ _____ _____    ______ ____
ROOT
ATOM      8  C   UNL     1      -3.958 -10.578  10.346  0.00  0.00    -0.027 C 
ATOM      9  C   UNL     1      -5.365 -10.613  11.029  0.00  0.00    +0.028 C 
ATOM     10  C   UNL     1      -6.390  -9.717  10.244  0.00  0.00    +0.012 C 
ATOM     11  C   UNL     1      -5.258 -10.325  12.555  0.00  0.00    +0.122 C 
ATOM     12  C   UNL     1      -3.006 -11.555  11.076  0.00  0.00    +0.007 C 
ATOM     13  C   UNL     1      -4.228 -11.236  13.261  0.00  0.00    +0.029 C 
ATOM     14  C   UNL     1      -4.094 -11.059   8.884  0.00  0.00    +0.009 C 
ATOM     15  C   UNL     1      -6.464 -10.162   8.757  0.00  0.00    +0.076 C 
ATOM     16  C   UNL     1      -2.869 -11.253  12.563  0.00  0.00    +0.007 C 
ATOM     17  C   UNL     1      -5.096 -10.244   8.078  0.00  0.00    +0.023 C 
ATOM     18  C   UNL     1      -3.325  -9.163  10.361  0.00  0.00    +0.011 C 
ATOM     20  C   UNL     1      -7.805  -9.727  10.846  0.00  0.00    +0.010 C 
ENDROOT
BRANCH  15   5
ATOM      3  O   UNL     1      -8.430 -10.954   6.820  0.00  0.00    -0.269 OA
ATOM      5  N   UNL     1      -7.310  -9.284   7.975  0.00  0.00    -0.307 N 
ATOM     23  C   UNL     1      -8.233  -9.766   7.063  0.00  0.00    +0.263 C 
ATOM     33  H   UNL     1      -7.179  -8.280   8.065  0.00  0.00    +0.149 HD
BRANCH  23  26
ATOM      7  N   UNL     1      -8.812  -8.706   4.984  0.00  0.00    -0.250 NA
ATOM     26  C   UNL     1      -9.007  -8.736   6.322  0.00  0.00    +0.125 A 
ATOM     29  C   UNL     1      -9.862  -7.883   7.002  0.00  0.00    +0.033 A 
ATOM     30  C   UNL     1     -10.563  -6.939   6.260  0.00  0.00    +0.004 A 
ATOM     31  C   UNL     1      -9.511  -7.774   4.297  0.00  0.00    +0.111 A 
ATOM     32  C   UNL     1     -10.390  -6.877   4.882  0.00  0.00    +0.020 A 
ENDBRANCH  23  26
ENDBRANCH  15   5
BRANCH  11   1
ATOM      1  O   UNL     1      -6.520 -10.576  13.176  0.00  0.00    -0.391 OA
ATOM     34  H   UNL     1      -6.411 -11.319  13.794  0.00  0.00    +0.210 HD
ENDBRANCH  11   1
BRANCH  13  19
ATOM     19  C   UNL     1      -4.043 -10.851  14.734  0.00  0.00    +0.078 C 
ATOM     21  C   UNL     1      -2.604 -10.463  15.022  0.00  0.00    +0.017 C 
BRANCH  19  22
ATOM      2  O   UNL     1      -3.847 -13.096  15.471  0.00  0.00    -0.275 OA
ATOM      4  O   UNL     1      -7.018 -11.259  18.793  0.00  0.00    -0.377 OA
ATOM      6  N   UNL     1      -5.487 -11.807  16.492  0.00  0.00    -0.297 N 
ATOM     22  C   UNL     1      -4.444 -12.024  15.593  0.00  0.00    +0.219 C 
ATOM     24  C   UNL     1      -5.937 -12.890  17.367  0.00  0.00    +0.136 C 
ATOM     25  C   UNL     1      -6.300 -10.590  16.575  0.00  0.00    +0.136 C 
ATOM     27  C   UNL     1      -6.128 -12.379  18.787  0.00  0.00    +0.179 C 
ATOM     28  C   UNL     1      -6.483 -10.175  18.029  0.00  0.00    +0.179 C 
ENDBRANCH  19  22
ENDBRANCH  13  19
TORSDOF 5
ENDMDL
