MODEL 1
REMARK VINA RESULT:      -6.3      0.000      0.000
REMARK  Name = 26743024
REMARK  11 active torsions:
REMARK  status: ('A' for Active; 'I' for Inactive)
REMARK    1  A    between atoms: O_3  and  C_20
REMARK    2  A    between atoms: O_3  and  C_27
REMARK    3  A    between atoms: O_4  and  C_22
REMARK    4  A    between atoms: O_4  and  C_28
REMARK    5  A    between atoms: N_6  and  C_19
REMARK    6  A    between atoms: C_8  and  C_14
REMARK    7  A    between atoms: C_9  and  C_13
REMARK    8  A    between atoms: C_13  and  C_15
REMARK    9  A    between atoms: C_14  and  C_16
REMARK   10  A    between atoms: C_18  and  C_20
REMARK   11  A    between atoms: C_19  and  C_21
REMARK                            x       y       z     vdW  Elec       q    Type
REMARK                         _______ _______ _______ _____ _____    ______ ____
ROOT
ATOM      5  N   UNL     1      10.079  12.616  23.834  0.00  0.00    -0.316 NA
ATOM      8  C   UNL     1      12.791  11.601  23.406  0.00  0.00    +0.004 C 
ATOM      9  C   UNL     1      11.667  11.374  22.366  0.00  0.00    +0.012 C 
ATOM     10  C   UNL     1      12.209  11.812  24.811  0.00  0.00    +0.019 C 
ATOM     11  C   UNL     1      10.629  12.505  22.482  0.00  0.00    +0.085 C 
ATOM     12  C   UNL     1      11.130  12.895  24.811  0.00  0.00    +0.081 C 
ATOM     29  H   UNL     1       9.597  11.755  24.087  0.00  0.00    +0.122 HD
ENDROOT
BRANCH   9  13
ATOM     13  C   UNL     1      10.990  10.002  22.475  0.00  0.00    +0.064 C 
BRANCH  13  15
ATOM      2  O   UNL     1      11.265   7.413  19.989  0.00  0.00    -0.357 OA
ATOM      7  N   UNL     1      10.862   7.886  21.231  0.00  0.00    -0.083 NA
ATOM     15  C   UNL     1      11.263   9.160  21.263  0.00  0.00    +0.084 A 
ATOM     17  C   UNL     1      11.919   9.541  20.079  0.00  0.00    +0.073 A 
ATOM     18  C   UNL     1      11.893   8.407  19.312  0.00  0.00    +0.163 A 
BRANCH  18  20
ATOM     20  C   UNL     1      12.388   8.076  17.971  0.00  0.00    +0.236 C 
BRANCH  20   3
ATOM      3  O   UNL     1      11.311   7.633  17.139  0.00  0.00    -0.375 OA
ATOM     27  C   UNL     1      10.712   8.720  16.454  0.00  0.00    +0.194 C 
ENDBRANCH  20   3
ENDBRANCH  18  20
ENDBRANCH  13  15
ENDBRANCH   9  13
BRANCH   8  14
ATOM     14  C   UNL     1      13.843  10.493  23.414  0.00  0.00    +0.099 C 
BRANCH  14  16
ATOM      1  O   UNL     1      15.694  11.913  22.774  0.00  0.00    -0.276 OA
ATOM      6  N   UNL     1      15.395   9.875  21.699  0.00  0.00    -0.311 N 
ATOM     16  C   UNL     1      15.074  10.865  22.616  0.00  0.00    +0.214 C 
ATOM     30  H   UNL     1      14.815   9.044  21.636  0.00  0.00    +0.149 HD
BRANCH   6  19
ATOM     19  C   UNL     1      16.524   9.965  20.802  0.00  0.00    +0.143 C 
BRANCH  19  21
ATOM     21  C   UNL     1      17.413   8.759  20.894  0.00  0.00    +0.011 A 
ATOM     22  C   UNL     1      17.002   7.529  20.382  0.00  0.00    +0.125 A 
ATOM     23  C   UNL     1      18.664   8.880  21.500  0.00  0.00    +0.009 A 
ATOM     24  C   UNL     1      17.840   6.419  20.475  0.00  0.00    +0.046 A 
ATOM     25  C   UNL     1      19.503   7.769  21.594  0.00  0.00    +0.001 A 
ATOM     26  C   UNL     1      19.091   6.538  21.082  0.00  0.00    +0.004 A 
BRANCH  22   4
ATOM      4  O   UNL     1      15.784   7.394  19.786  0.00  0.00    -0.495 OA
ATOM     28  C   UNL     1      14.827   6.570  20.447  0.00  0.00    +0.277 C 
ENDBRANCH  22   4
ENDBRANCH  19  21
ENDBRANCH   6  19
ENDBRANCH  14  16
ENDBRANCH   8  14
TORSDOF 9
ENDMDL
MODEL 2
REMARK VINA RESULT:      -5.7     15.145     19.599
REMARK  Name = 26743024
REMARK  11 active torsions:
REMARK  status: ('A' for Active; 'I' for Inactive)
REMARK    1  A    between atoms: O_3  and  C_20
REMARK    2  A    between atoms: O_3  and  C_27
REMARK    3  A    between atoms: O_4  and  C_22
REMARK    4  A    between atoms: O_4  and  C_28
REMARK    5  A    between atoms: N_6  and  C_19
REMARK    6  A    between atoms: C_8  and  C_14
REMARK    7  A    between atoms: C_9  and  C_13
REMARK    8  A    between atoms: C_13  and  C_15
REMARK    9  A    between atoms: C_14  and  C_16
REMARK   10  A    between atoms: C_18  and  C_20
REMARK   11  A    between atoms: C_19  and  C_21
REMARK                            x       y       z     vdW  Elec       q    Type
REMARK                         _______ _______ _______ _____ _____    ______ ____
ROOT
ATOM      5  N   UNL     1       8.948   9.461   1.493  0.00  0.00    -0.316 NA
ATOM      8  C   UNL     1       9.645   6.728   2.277  0.00  0.00    +0.004 C 
ATOM      9  C   UNL     1       8.840   7.660   3.215  0.00  0.00    +0.012 C 
ATOM     10  C   UNL     1      10.500   7.540   1.293  0.00  0.00    +0.019 C 
ATOM     11  C   UNL     1       8.066   8.689   2.370  0.00  0.00    +0.085 C 
ATOM     12  C   UNL     1       9.662   8.589   0.561  0.00  0.00    +0.081 C 
ATOM     29  H   UNL     1       9.619   9.990   2.049  0.00  0.00    +0.122 HD
ENDROOT
BRANCH   9  13
ATOM     13  C   UNL     1       9.697   8.363   4.276  0.00  0.00    +0.064 C 
BRANCH  13  15
ATOM      2  O   UNL     1       8.176   7.668   7.464  0.00  0.00    -0.357 OA
ATOM      7  N   UNL     1       8.182   8.263   6.208  0.00  0.00    -0.083 NA
ATOM     15  C   UNL     1       9.344   7.898   5.659  0.00  0.00    +0.084 A 
ATOM     17  C   UNL     1      10.104   7.081   6.513  0.00  0.00    +0.073 A 
ATOM     18  C   UNL     1       9.325   6.967   7.634  0.00  0.00    +0.163 A 
BRANCH  18  20
ATOM     20  C   UNL     1       9.484   6.271   8.916  0.00  0.00    +0.236 C 
BRANCH  20   3
ATOM      3  O   UNL     1      10.390   5.173   8.776  0.00  0.00    -0.375 OA
ATOM     27  C   UNL     1       9.698   3.971   8.480  0.00  0.00    +0.194 C 
ENDBRANCH  20   3
ENDBRANCH  18  20
ENDBRANCH  13  15
ENDBRANCH   9  13
BRANCH   8  14
ATOM     14  C   UNL     1      10.501   5.707   3.025  0.00  0.00    +0.099 C 
BRANCH  14  16
ATOM      1  O   UNL     1      10.060   3.955   1.416  0.00  0.00    -0.276 OA
ATOM      6  N   UNL     1      12.187   4.155   2.329  0.00  0.00    -0.311 N 
ATOM     16  C   UNL     1      10.858   4.516   2.161  0.00  0.00    +0.214 C 
ATOM     30  H   UNL     1      12.769   4.677   2.978  0.00  0.00    +0.149 HD
BRANCH   6  19
ATOM     19  C   UNL     1      12.800   3.051   1.629  0.00  0.00    +0.143 C 
BRANCH  19  21
ATOM     21  C   UNL     1      13.800   3.517   0.611  0.00  0.00    +0.011 A 
ATOM     22  C   UNL     1      13.407   3.801  -0.697  0.00  0.00    +0.125 A 
ATOM     23  C   UNL     1      15.136   3.666   0.985  0.00  0.00    +0.009 A 
ATOM     24  C   UNL     1      14.348   4.233  -1.631  0.00  0.00    +0.046 A 
ATOM     25  C   UNL     1      16.078   4.099   0.051  0.00  0.00    +0.001 A 
ATOM     26  C   UNL     1      15.684   4.381  -1.257  0.00  0.00    +0.004 A 
BRANCH  22   4
ATOM      4  O   UNL     1      12.106   3.661  -1.079  0.00  0.00    -0.495 OA
ATOM     28  C   UNL     1      11.498   4.777  -1.726  0.00  0.00    +0.277 C 
ENDBRANCH  22   4
ENDBRANCH  19  21
ENDBRANCH   6  19
ENDBRANCH  14  16
ENDBRANCH   8  14
TORSDOF 9
ENDMDL
MODEL 3
REMARK VINA RESULT:      -5.7     25.743     28.041
REMARK  Name = 26743024
REMARK  11 active torsions:
REMARK  status: ('A' for Active; 'I' for Inactive)
REMARK    1  A    between atoms: O_3  and  C_20
REMARK    2  A    between atoms: O_3  and  C_27
REMARK    3  A    between atoms: O_4  and  C_22
REMARK    4  A    between atoms: O_4  and  C_28
REMARK    5  A    between atoms: N_6  and  C_19
REMARK    6  A    between atoms: C_8  and  C_14
REMARK    7  A    between atoms: C_9  and  C_13
REMARK    8  A    between atoms: C_13  and  C_15
REMARK    9  A    between atoms: C_14  and  C_16
REMARK   10  A    between atoms: C_18  and  C_20
REMARK   11  A    between atoms: C_19  and  C_21
REMARK                            x       y       z     vdW  Elec       q    Type
REMARK                         _______ _______ _______ _____ _____    ______ ____
ROOT
ATOM      5  N   UNL     1     -11.584   7.336  19.101  0.00  0.00    -0.316 NA
ATOM      8  C   UNL     1     -12.791   9.078  21.121  0.00  0.00    +0.004 C 
ATOM      9  C   UNL     1     -12.902   7.537  21.209  0.00  0.00    +0.012 C 
ATOM     10  C   UNL     1     -12.576   9.534  19.670  0.00  0.00    +0.019 C 
ATOM     11  C   UNL     1     -11.698   6.897  20.493  0.00  0.00    +0.085 C 
ATOM     12  C   UNL     1     -11.414   8.786  19.017  0.00  0.00    +0.081 C 
ATOM     29  H   UNL     1     -12.412   7.058  18.577  0.00  0.00    +0.122 HD
ENDROOT
BRANCH   9  13
ATOM     13  C   UNL     1     -14.221   6.977  20.660  0.00  0.00    +0.064 C 
BRANCH  13  15
ATOM      2  O   UNL     1     -15.957   4.192  22.139  0.00  0.00    -0.357 OA
ATOM      7  N   UNL     1     -15.672   5.038  21.074  0.00  0.00    -0.083 NA
ATOM     15  C   UNL     1     -14.770   5.901  21.550  0.00  0.00    +0.084 A 
ATOM     17  C   UNL     1     -14.452   5.651  22.896  0.00  0.00    +0.073 A 
ATOM     18  C   UNL     1     -15.225   4.567  23.218  0.00  0.00    +0.163 A 
BRANCH  18  20
ATOM     20  C   UNL     1     -15.406   3.775  24.440  0.00  0.00    +0.236 C 
BRANCH  20   3
ATOM      3  O   UNL     1     -16.258   4.465  25.359  0.00  0.00    -0.375 OA
ATOM     27  C   UNL     1     -16.456   3.710  26.542  0.00  0.00    +0.194 C 
ENDBRANCH  20   3
ENDBRANCH  18  20
ENDBRANCH  13  15
ENDBRANCH   9  13
BRANCH   8  14
ATOM     14  C   UNL     1     -13.976   9.809  21.749  0.00  0.00    +0.099 C 
BRANCH  14  16
ATOM      1  O   UNL     1     -14.086  12.080  22.575  0.00  0.00    -0.276 OA
ATOM      6  N   UNL     1     -12.459  10.643  23.404  0.00  0.00    -0.311 N 
ATOM     16  C   UNL     1     -13.540  10.980  22.603  0.00  0.00    +0.214 C 
ATOM     30  H   UNL     1     -12.070   9.706  23.350  0.00  0.00    +0.149 HD
BRANCH   6  19
ATOM     19  C   UNL     1     -11.834  11.569  24.319  0.00  0.00    +0.143 C 
BRANCH  19  21
ATOM     21  C   UNL     1     -11.785  11.029  25.719  0.00  0.00    +0.011 A 
ATOM     22  C   UNL     1     -12.921  11.038  26.527  0.00  0.00    +0.125 A 
ATOM     23  C   UNL     1     -10.584  10.513  26.208  0.00  0.00    +0.009 A 
ATOM     24  C   UNL     1     -12.858  10.532  27.825  0.00  0.00    +0.046 A 
ATOM     25  C   UNL     1     -10.521  10.006  27.506  0.00  0.00    +0.001 A 
ATOM     26  C   UNL     1     -11.657  10.016  28.315  0.00  0.00    +0.004 A 
BRANCH  22   4
ATOM      4  O   UNL     1     -14.101  11.537  26.065  0.00  0.00    -0.495 OA
ATOM     28  C   UNL     1     -15.177  10.615  25.905  0.00  0.00    +0.277 C 
ENDBRANCH  22   4
ENDBRANCH  19  21
ENDBRANCH   6  19
ENDBRANCH  14  16
ENDBRANCH   8  14
TORSDOF 9
ENDMDL
MODEL 4
REMARK VINA RESULT:      -5.6      3.585      6.875
REMARK  Name = 26743024
REMARK  11 active torsions:
REMARK  status: ('A' for Active; 'I' for Inactive)
REMARK    1  A    between atoms: O_3  and  C_20
REMARK    2  A    between atoms: O_3  and  C_27
REMARK    3  A    between atoms: O_4  and  C_22
REMARK    4  A    between atoms: O_4  and  C_28
REMARK    5  A    between atoms: N_6  and  C_19
REMARK    6  A    between atoms: C_8  and  C_14
REMARK    7  A    between atoms: C_9  and  C_13
REMARK    8  A    between atoms: C_13  and  C_15
REMARK    9  A    between atoms: C_14  and  C_16
REMARK   10  A    between atoms: C_18  and  C_20
REMARK   11  A    between atoms: C_19  and  C_21
REMARK                            x       y       z     vdW  Elec       q    Type
REMARK                         _______ _______ _______ _____ _____    ______ ____
ROOT
ATOM      5  N   UNL     1      15.679  13.816  15.514  0.00  0.00    -0.316 NA
ATOM      8  C   UNL     1      14.635  11.090  15.289  0.00  0.00    +0.004 C 
ATOM      9  C   UNL     1      14.337  11.973  16.525  0.00  0.00    +0.012 C 
ATOM     10  C   UNL     1      15.935  11.528  14.599  0.00  0.00    +0.019 C 
ATOM     11  C   UNL     1      14.394  13.457  16.118  0.00  0.00    +0.085 C 
ATOM     12  C   UNL     1      15.934  13.029  14.308  0.00  0.00    +0.081 C 
ATOM     29  H   UNL     1      16.433  13.671  16.183  0.00  0.00    +0.122 HD
ENDROOT
BRANCH   9  13
ATOM     13  C   UNL     1      15.261  11.701  17.719  0.00  0.00    +0.064 C 
BRANCH  13  15
ATOM      2  O   UNL     1      12.781  11.340  20.303  0.00  0.00    -0.357 OA
ATOM      7  N   UNL     1      13.176  11.353  18.971  0.00  0.00    -0.083 NA
ATOM     15  C   UNL     1      14.486  11.613  19.001  0.00  0.00    +0.084 A 
ATOM     17  C   UNL     1      14.968  11.773  20.312  0.00  0.00    +0.073 A 
ATOM     18  C   UNL     1      13.857  11.592  21.092  0.00  0.00    +0.163 A 
BRANCH  18  20
ATOM     20  C   UNL     1      13.616  11.615  22.540  0.00  0.00    +0.236 C 
BRANCH  20   3
ATOM      3  O   UNL     1      12.221  11.777  22.809  0.00  0.00    -0.375 OA
ATOM     27  C   UNL     1      11.911  11.414  24.144  0.00  0.00    +0.194 C 
ENDBRANCH  20   3
ENDBRANCH  18  20
ENDBRANCH  13  15
ENDBRANCH   9  13
BRANCH   8  14
ATOM     14  C   UNL     1      14.664   9.595  15.603  0.00  0.00    +0.099 C 
BRANCH  14  16
ATOM      1  O   UNL     1      12.322   9.145  15.201  0.00  0.00    -0.276 OA
ATOM      6  N   UNL     1      13.288   8.457  17.199  0.00  0.00    -0.311 N 
ATOM     16  C   UNL     1      13.293   9.055  15.947  0.00  0.00    +0.214 C 
ATOM     30  H   UNL     1      14.143   8.439  17.747  0.00  0.00    +0.149 HD
BRANCH   6  19
ATOM     19  C   UNL     1      12.112   7.857  17.784  0.00  0.00    +0.143 C 
BRANCH  19  21
ATOM     21  C   UNL     1      12.094   7.996  19.278  0.00  0.00    +0.011 A 
ATOM     22  C   UNL     1      13.198   7.620  20.043  0.00  0.00    +0.125 A 
ATOM     23  C   UNL     1      10.956   8.509  19.902  0.00  0.00    +0.009 A 
ATOM     24  C   UNL     1      13.166   7.755  21.430  0.00  0.00    +0.046 A 
ATOM     25  C   UNL     1      10.924   8.646  21.290  0.00  0.00    +0.001 A 
ATOM     26  C   UNL     1      12.028   8.268  22.055  0.00  0.00    +0.004 A 
BRANCH  22   4
ATOM      4  O   UNL     1      14.318   7.118  19.450  0.00  0.00    -0.495 OA
ATOM     28  C   UNL     1      15.274   6.487  20.300  0.00  0.00    +0.277 C 
ENDBRANCH  22   4
ENDBRANCH  19  21
ENDBRANCH   6  19
ENDBRANCH  14  16
ENDBRANCH   8  14
TORSDOF 9
ENDMDL
MODEL 5
REMARK VINA RESULT:      -5.5      8.641     13.181
REMARK  Name = 26743024
REMARK  11 active torsions:
REMARK  status: ('A' for Active; 'I' for Inactive)
REMARK    1  A    between atoms: O_3  and  C_20
REMARK    2  A    between atoms: O_3  and  C_27
REMARK    3  A    between atoms: O_4  and  C_22
REMARK    4  A    between atoms: O_4  and  C_28
REMARK    5  A    between atoms: N_6  and  C_19
REMARK    6  A    between atoms: C_8  and  C_14
REMARK    7  A    between atoms: C_9  and  C_13
REMARK    8  A    between atoms: C_13  and  C_15
REMARK    9  A    between atoms: C_14  and  C_16
REMARK   10  A    between atoms: C_18  and  C_20
REMARK   11  A    between atoms: C_19  and  C_21
REMARK                            x       y       z     vdW  Elec       q    Type
REMARK                         _______ _______ _______ _____ _____    ______ ____
ROOT
ATOM      5  N   UNL     1      26.071   1.191  22.265  0.00  0.00    -0.316 NA
ATOM      8  C   UNL     1      23.700   0.634  23.889  0.00  0.00    +0.004 C 
ATOM      9  C   UNL     1      23.705   1.751  22.818  0.00  0.00    +0.012 C 
ATOM     10  C   UNL     1      25.122   0.346  24.392  0.00  0.00    +0.019 C 
ATOM     11  C   UNL     1      24.728   1.402  21.721  0.00  0.00    +0.085 C 
ATOM     12  C   UNL     1      26.084   0.093  23.230  0.00  0.00    +0.081 C 
ATOM     29  H   UNL     1      26.406   2.043  22.712  0.00  0.00    +0.122 HD
ENDROOT
BRANCH   9  13
ATOM     13  C   UNL     1      23.970   3.152  23.383  0.00  0.00    +0.064 C 
BRANCH  13  15
ATOM      2  O   UNL     1      21.230   5.487  23.370  0.00  0.00    -0.357 OA
ATOM      7  N   UNL     1      22.164   4.692  24.022  0.00  0.00    -0.083 NA
ATOM     15  C   UNL     1      22.855   4.098  23.044  0.00  0.00    +0.084 A 
ATOM     17  C   UNL     1      22.406   4.478  21.768  0.00  0.00    +0.073 A 
ATOM     18  C   UNL     1      21.383   5.351  22.028  0.00  0.00    +0.163 A 
BRANCH  18  20
ATOM     20  C   UNL     1      20.469   6.128  21.183  0.00  0.00    +0.236 C 
BRANCH  20   3
ATOM      3  O   UNL     1      19.737   5.259  20.314  0.00  0.00    -0.375 OA
ATOM     27  C   UNL     1      18.468   5.804  19.993  0.00  0.00    +0.194 C 
ENDBRANCH  20   3
ENDBRANCH  18  20
ENDBRANCH  13  15
ENDBRANCH   9  13
BRANCH   8  14
ATOM     14  C   UNL     1      22.758   0.918  25.058  0.00  0.00    +0.099 C 
BRANCH  14  16
ATOM      1  O   UNL     1      22.522  -1.386  25.756  0.00  0.00    -0.276 OA
ATOM      6  N   UNL     1      20.625  -0.064  25.531  0.00  0.00    -0.311 N 
ATOM     16  C   UNL     1      21.989  -0.313  25.487  0.00  0.00    +0.214 C 
ATOM     30  H   UNL     1      20.277   0.857  25.281  0.00  0.00    +0.149 HD
BRANCH   6  19
ATOM     19  C   UNL     1      19.651  -1.061  25.907  0.00  0.00    +0.143 C 
BRANCH  19  21
ATOM     21  C   UNL     1      18.895  -1.584  24.720  0.00  0.00    +0.011 A 
ATOM     22  C   UNL     1      19.232  -2.807  24.142  0.00  0.00    +0.125 A 
ATOM     23  C   UNL     1      17.843  -0.831  24.197  0.00  0.00    +0.009 A 
ATOM     24  C   UNL     1      18.519  -3.278  23.040  0.00  0.00    +0.046 A 
ATOM     25  C   UNL     1      17.129  -1.303  23.094  0.00  0.00    +0.001 A 
ATOM     26  C   UNL     1      17.467  -2.526  22.515  0.00  0.00    +0.004 A 
BRANCH  22   4
ATOM      4  O   UNL     1      20.255  -3.555  24.641  0.00  0.00    -0.495 OA
ATOM     28  C   UNL     1      20.340  -4.910  24.205  0.00  0.00    +0.277 C 
ENDBRANCH  22   4
ENDBRANCH  19  21
ENDBRANCH   6  19
ENDBRANCH  14  16
ENDBRANCH   8  14
TORSDOF 9
ENDMDL
MODEL 6
REMARK VINA RESULT:      -5.5     27.090     29.695
REMARK  Name = 26743024
REMARK  11 active torsions:
REMARK  status: ('A' for Active; 'I' for Inactive)
REMARK    1  A    between atoms: O_3  and  C_20
REMARK    2  A    between atoms: O_3  and  C_27
REMARK    3  A    between atoms: O_4  and  C_22
REMARK    4  A    between atoms: O_4  and  C_28
REMARK    5  A    between atoms: N_6  and  C_19
REMARK    6  A    between atoms: C_8  and  C_14
REMARK    7  A    between atoms: C_9  and  C_13
REMARK    8  A    between atoms: C_13  and  C_15
REMARK    9  A    between atoms: C_14  and  C_16
REMARK   10  A    between atoms: C_18  and  C_20
REMARK   11  A    between atoms: C_19  and  C_21
REMARK                            x       y       z     vdW  Elec       q    Type
REMARK                         _______ _______ _______ _____ _____    ______ ____
ROOT
ATOM      5  N   UNL     1      -4.519 -11.902  19.382  0.00  0.00    -0.316 NA
ATOM      8  C   UNL     1      -6.662 -10.693  17.795  0.00  0.00    +0.004 C 
ATOM      9  C   UNL     1      -5.378 -11.251  17.133  0.00  0.00    +0.012 C 
ATOM     10  C   UNL     1      -6.401 -10.297  19.256  0.00  0.00    +0.019 C 
ATOM     11  C   UNL     1      -4.789 -12.364  18.019  0.00  0.00    +0.085 C 
ATOM     12  C   UNL     1      -5.742 -11.435  20.034  0.00  0.00    +0.081 C 
ATOM     29  H   UNL     1      -3.831 -11.152  19.367  0.00  0.00    +0.122 HD
ENDROOT
BRANCH   9  13
ATOM     13  C   UNL     1      -4.321 -10.180  16.831  0.00  0.00    +0.064 C 
BRANCH  13  15
ATOM      2  O   UNL     1      -1.494 -11.272  14.888  0.00  0.00    -0.357 OA
ATOM      7  N   UNL     1      -2.083 -10.862  16.077  0.00  0.00    -0.083 NA
ATOM     15  C   UNL     1      -3.365 -10.642  15.770  0.00  0.00    +0.084 A 
ATOM     17  C   UNL     1      -3.639 -10.894  14.415  0.00  0.00    +0.073 A 
ATOM     18  C   UNL     1      -2.430 -11.288  13.905  0.00  0.00    +0.163 A 
BRANCH  18  20
ATOM     20  C   UNL     1      -1.974 -11.701  12.573  0.00  0.00    +0.236 C 
BRANCH  20   3
ATOM      3  O   UNL     1      -2.896 -11.258  11.573  0.00  0.00    -0.375 OA
ATOM     27  C   UNL     1      -2.550  -9.971  11.089  0.00  0.00    +0.194 C 
ENDBRANCH  20   3
ENDBRANCH  18  20
ENDBRANCH  13  15
ENDBRANCH   9  13
BRANCH   8  14
ATOM     14  C   UNL     1      -7.289  -9.535  17.021  0.00  0.00    +0.099 C 
BRANCH  14  16
ATOM      1  O   UNL     1      -9.461 -10.288  17.775  0.00  0.00    -0.276 OA
ATOM      6  N   UNL     1      -9.220  -8.118  16.980  0.00  0.00    -0.311 N 
ATOM     16  C   UNL     1      -8.768  -9.388  17.310  0.00  0.00    +0.214 C 
ATOM     30  H   UNL     1      -8.569  -7.441  16.592  0.00  0.00    +0.149 HD
BRANCH   6  19
ATOM     19  C   UNL     1     -10.591  -7.699  17.150  0.00  0.00    +0.143 C 
BRANCH  19  21
ATOM     21  C   UNL     1     -11.202  -7.238  15.859  0.00  0.00    +0.011 A 
ATOM     22  C   UNL     1     -11.557  -8.156  14.870  0.00  0.00    +0.125 A 
ATOM     23  C   UNL     1     -11.414  -5.874  15.653  0.00  0.00    +0.009 A 
ATOM     24  C   UNL     1     -12.123  -7.711  13.676  0.00  0.00    +0.046 A 
ATOM     25  C   UNL     1     -11.981  -5.429  14.458  0.00  0.00    +0.001 A 
ATOM     26  C   UNL     1     -12.335  -6.348  13.469  0.00  0.00    +0.004 A 
BRANCH  22   4
ATOM      4  O   UNL     1     -11.357  -9.491  15.055  0.00  0.00    -0.495 OA
ATOM     28  C   UNL     1     -10.739 -10.207  13.989  0.00  0.00    +0.277 C 
ENDBRANCH  22   4
ENDBRANCH  19  21
ENDBRANCH   6  19
ENDBRANCH  14  16
ENDBRANCH   8  14
TORSDOF 9
ENDMDL
MODEL 7
REMARK VINA RESULT:      -5.4     27.619     30.771
REMARK  Name = 26743024
REMARK  11 active torsions:
REMARK  status: ('A' for Active; 'I' for Inactive)
REMARK    1  A    between atoms: O_3  and  C_20
REMARK    2  A    between atoms: O_3  and  C_27
REMARK    3  A    between atoms: O_4  and  C_22
REMARK    4  A    between atoms: O_4  and  C_28
REMARK    5  A    between atoms: N_6  and  C_19
REMARK    6  A    between atoms: C_8  and  C_14
REMARK    7  A    between atoms: C_9  and  C_13
REMARK    8  A    between atoms: C_13  and  C_15
REMARK    9  A    between atoms: C_14  and  C_16
REMARK   10  A    between atoms: C_18  and  C_20
REMARK   11  A    between atoms: C_19  and  C_21
REMARK                            x       y       z     vdW  Elec       q    Type
REMARK                         _______ _______ _______ _____ _____    ______ ____
ROOT
ATOM      5  N   UNL     1     -18.182   1.704  28.022  0.00  0.00    -0.316 NA
ATOM      8  C   UNL     1     -16.596   3.052  25.962  0.00  0.00    +0.004 C 
ATOM      9  C   UNL     1     -16.147   3.025  27.443  0.00  0.00    +0.012 C 
ATOM     10  C   UNL     1     -18.118   2.884  25.845  0.00  0.00    +0.019 C 
ATOM     11  C   UNL     1     -16.723   1.772  28.129  0.00  0.00    +0.085 C 
ATOM     12  C   UNL     1     -18.607   1.663  26.623  0.00  0.00    +0.081 C 
ATOM     29  H   UNL     1     -18.605   2.506  28.485  0.00  0.00    +0.122 HD
ENDROOT
BRANCH   9  13
ATOM     13  C   UNL     1     -16.516   4.292  28.226  0.00  0.00    +0.064 C 
BRANCH  13  15
ATOM      2  O   UNL     1     -16.415   4.150  31.822  0.00  0.00    -0.357 OA
ATOM      7  N   UNL     1     -17.081   4.340  30.618  0.00  0.00    -0.083 NA
ATOM     15  C   UNL     1     -16.149   4.164  29.676  0.00  0.00    +0.084 A 
ATOM     17  C   UNL     1     -14.890   3.864  30.223  0.00  0.00    +0.073 A 
ATOM     18  C   UNL     1     -15.111   3.868  31.574  0.00  0.00    +0.163 A 
BRANCH  18  20
ATOM     20  C   UNL     1     -14.257   3.638  32.745  0.00  0.00    +0.236 C 
BRANCH  20   3
ATOM      3  O   UNL     1     -14.882   2.718  33.644  0.00  0.00    -0.375 OA
ATOM     27  C   UNL     1     -14.664   1.376  33.240  0.00  0.00    +0.194 C 
ENDBRANCH  20   3
ENDBRANCH  18  20
ENDBRANCH  13  15
ENDBRANCH   9  13
BRANCH   8  14
ATOM     14  C   UNL     1     -16.126   4.294  25.208  0.00  0.00    +0.099 C 
BRANCH  14  16
ATOM      1  O   UNL     1     -16.012   2.986  23.176  0.00  0.00    -0.276 OA
ATOM      6  N   UNL     1     -14.726   4.912  23.365  0.00  0.00    -0.311 N 
ATOM     16  C   UNL     1     -15.638   3.967  23.813  0.00  0.00    +0.214 C 
ATOM     30  H   UNL     1     -14.472   5.688  23.971  0.00  0.00    +0.149 HD
BRANCH   6  19
ATOM     19  C   UNL     1     -14.097   4.850  22.067  0.00  0.00    +0.143 C 
BRANCH  19  21
ATOM     21  C   UNL     1     -13.509   6.171  21.664  0.00  0.00    +0.011 A 
ATOM     22  C   UNL     1     -14.253   7.346  21.774  0.00  0.00    +0.125 A 
ATOM     23  C   UNL     1     -12.204   6.216  21.173  0.00  0.00    +0.009 A 
ATOM     24  C   UNL     1     -13.692   8.565  21.395  0.00  0.00    +0.046 A 
ATOM     25  C   UNL     1     -11.642   7.436  20.795  0.00  0.00    +0.001 A 
ATOM     26  C   UNL     1     -12.387   8.610  20.904  0.00  0.00    +0.004 A 
BRANCH  22   4
ATOM      4  O   UNL     1     -15.529   7.320  22.252  0.00  0.00    -0.495 OA
ATOM     28  C   UNL     1     -15.843   8.223  23.310  0.00  0.00    +0.277 C 
ENDBRANCH  22   4
ENDBRANCH  19  21
ENDBRANCH   6  19
ENDBRANCH  14  16
ENDBRANCH   8  14
TORSDOF 9
ENDMDL
MODEL 8
REMARK VINA RESULT:      -5.4     27.028     30.084
REMARK  Name = 26743024
REMARK  11 active torsions:
REMARK  status: ('A' for Active; 'I' for Inactive)
REMARK    1  A    between atoms: O_3  and  C_20
REMARK    2  A    between atoms: O_3  and  C_27
REMARK    3  A    between atoms: O_4  and  C_22
REMARK    4  A    between atoms: O_4  and  C_28
REMARK    5  A    between atoms: N_6  and  C_19
REMARK    6  A    between atoms: C_8  and  C_14
REMARK    7  A    between atoms: C_9  and  C_13
REMARK    8  A    between atoms: C_13  and  C_15
REMARK    9  A    between atoms: C_14  and  C_16
REMARK   10  A    between atoms: C_18  and  C_20
REMARK   11  A    between atoms: C_19  and  C_21
REMARK                            x       y       z     vdW  Elec       q    Type
REMARK                         _______ _______ _______ _____ _____    ______ ____
ROOT
ATOM      5  N   UNL     1      -4.728 -12.049  19.348  0.00  0.00    -0.316 NA
ATOM      8  C   UNL     1      -6.559 -10.669  17.528  0.00  0.00    +0.004 C 
ATOM      9  C   UNL     1      -5.238 -11.298  17.025  0.00  0.00    +0.012 C 
ATOM     10  C   UNL     1      -6.470 -10.318  19.021  0.00  0.00    +0.019 C 
ATOM     11  C   UNL     1      -4.844 -12.465  17.950  0.00  0.00    +0.085 C 
ATOM     12  C   UNL     1      -5.994 -11.513  19.847  0.00  0.00    +0.081 C 
ATOM     29  H   UNL     1      -3.998 -11.346  19.445  0.00  0.00    +0.122 HD
ENDROOT
BRANCH   9  13
ATOM     13  C   UNL     1      -4.084 -10.296  16.895  0.00  0.00    +0.064 C 
BRANCH  13  15
ATOM      2  O   UNL     1      -1.336 -11.309  14.801  0.00  0.00    -0.357 OA
ATOM      7  N   UNL     1      -1.900 -11.030  16.039  0.00  0.00    -0.083 NA
ATOM     15  C   UNL     1      -3.159 -10.671  15.773  0.00  0.00    +0.084 A 
ATOM     17  C   UNL     1      -3.443 -10.704  14.397  0.00  0.00    +0.073 A 
ATOM     18  C   UNL     1      -2.264 -11.111  13.831  0.00  0.00    +0.163 A 
BRANCH  18  20
ATOM     20  C   UNL     1      -1.833 -11.362  12.450  0.00  0.00    +0.236 C 
BRANCH  20   3
ATOM      3  O   UNL     1      -2.811 -12.143  11.758  0.00  0.00    -0.375 OA
ATOM     27  C   UNL     1      -3.418 -11.398  10.715  0.00  0.00    +0.194 C 
ENDBRANCH  20   3
ENDBRANCH  18  20
ENDBRANCH  13  15
ENDBRANCH   9  13
BRANCH   8  14
ATOM     14  C   UNL     1      -7.004  -9.457  16.711  0.00  0.00    +0.099 C 
BRANCH  14  16
ATOM      1  O   UNL     1      -9.022  -8.160  17.020  0.00  0.00    -0.276 OA
ATOM      6  N   UNL     1      -9.187 -10.421  16.511  0.00  0.00    -0.311 N 
ATOM     16  C   UNL     1      -8.501  -9.243  16.771  0.00  0.00    +0.214 C 
ATOM     30  H   UNL     1      -8.666 -11.272  16.324  0.00  0.00    +0.149 HD
BRANCH   6  19
ATOM     19  C   UNL     1     -10.628 -10.510  16.504  0.00  0.00    +0.143 C 
BRANCH  19  21
ATOM     21  C   UNL     1     -11.201 -10.471  17.891  0.00  0.00    +0.011 A 
ATOM     22  C   UNL     1     -10.693 -11.296  18.895  0.00  0.00    +0.125 A 
ATOM     23  C   UNL     1     -12.252  -9.597  18.171  0.00  0.00    +0.009 A 
ATOM     24  C   UNL     1     -11.236 -11.247  20.179  0.00  0.00    +0.046 A 
ATOM     25  C   UNL     1     -12.794  -9.548  19.456  0.00  0.00    +0.001 A 
ATOM     26  C   UNL     1     -12.288 -10.374  20.459  0.00  0.00    +0.004 A 
BRANCH  22   4
ATOM      4  O   UNL     1      -9.667 -12.154  18.639  0.00  0.00    -0.495 OA
ATOM     28  C   UNL     1      -9.372 -13.127  19.639  0.00  0.00    +0.277 C 
ENDBRANCH  22   4
ENDBRANCH  19  21
ENDBRANCH   6  19
ENDBRANCH  14  16
ENDBRANCH   8  14
TORSDOF 9
ENDMDL
MODEL 9
REMARK VINA RESULT:      -5.3     13.843     17.631
REMARK  Name = 26743024
REMARK  11 active torsions:
REMARK  status: ('A' for Active; 'I' for Inactive)
REMARK    1  A    between atoms: O_3  and  C_20
REMARK    2  A    between atoms: O_3  and  C_27
REMARK    3  A    between atoms: O_4  and  C_22
REMARK    4  A    between atoms: O_4  and  C_28
REMARK    5  A    between atoms: N_6  and  C_19
REMARK    6  A    between atoms: C_8  and  C_14
REMARK    7  A    between atoms: C_9  and  C_13
REMARK    8  A    between atoms: C_13  and  C_15
REMARK    9  A    between atoms: C_14  and  C_16
REMARK   10  A    between atoms: C_18  and  C_20
REMARK   11  A    between atoms: C_19  and  C_21
REMARK                            x       y       z     vdW  Elec       q    Type
REMARK                         _______ _______ _______ _____ _____    ______ ____
ROOT
ATOM      5  N   UNL     1       9.879   4.318   0.945  0.00  0.00    -0.316 NA
ATOM      8  C   UNL     1      12.217   5.947   1.616  0.00  0.00    +0.004 C 
ATOM      9  C   UNL     1      11.432   5.170   2.700  0.00  0.00    +0.012 C 
ATOM     10  C   UNL     1      11.325   6.255   0.404  0.00  0.00    +0.019 C 
ATOM     11  C   UNL     1      10.752   3.946   2.060  0.00  0.00    +0.085 C 
ATOM     12  C   UNL     1      10.629   4.996  -0.111  0.00  0.00    +0.081 C 
ATOM     29  H   UNL     1       9.130   4.925   1.275  0.00  0.00    +0.122 HD
ENDROOT
BRANCH   9  13
ATOM     13  C   UNL     1      10.409   6.026   3.458  0.00  0.00    +0.064 C 
BRANCH  13  15
ATOM      2  O   UNL     1      10.915   5.936   7.021  0.00  0.00    -0.357 OA
ATOM      7  N   UNL     1      11.122   6.489   5.764  0.00  0.00    -0.083 NA
ATOM     15  C   UNL     1      10.421   5.719   4.927  0.00  0.00    +0.084 A 
ATOM     17  C   UNL     1       9.758   4.674   5.594  0.00  0.00    +0.073 A 
ATOM     18  C   UNL     1      10.102   4.856   6.908  0.00  0.00    +0.163 A 
BRANCH  18  20
ATOM     20  C   UNL     1       9.778   4.146   8.151  0.00  0.00    +0.236 C 
BRANCH  20   3
ATOM      3  O   UNL     1      10.052   4.976   9.283  0.00  0.00    -0.375 OA
ATOM     27  C   UNL     1       9.225   4.634  10.383  0.00  0.00    +0.194 C 
ENDBRANCH  20   3
ENDBRANCH  18  20
ENDBRANCH  13  15
ENDBRANCH   9  13
BRANCH   8  14
ATOM     14  C   UNL     1      12.879   7.220   2.141  0.00  0.00    +0.099 C 
BRANCH  14  16
ATOM      1  O   UNL     1      15.021   6.296   2.781  0.00  0.00    -0.276 OA
ATOM      6  N   UNL     1      13.760   7.448   4.356  0.00  0.00    -0.311 N 
ATOM     16  C   UNL     1      14.014   6.923   3.097  0.00  0.00    +0.214 C 
ATOM     30  H   UNL     1      12.891   7.946   4.524  0.00  0.00    +0.149 HD
BRANCH   6  19
ATOM     19  C   UNL     1      14.673   7.314   5.467  0.00  0.00    +0.143 C 
BRANCH  19  21
ATOM     21  C   UNL     1      15.251   8.636   5.883  0.00  0.00    +0.011 A 
ATOM     22  C   UNL     1      14.441   9.623   6.443  0.00  0.00    +0.125 A 
ATOM     23  C   UNL     1      16.614   8.871   5.703  0.00  0.00    +0.009 A 
ATOM     24  C   UNL     1      14.993  10.845   6.824  0.00  0.00    +0.046 A 
ATOM     25  C   UNL     1      17.167  10.094   6.085  0.00  0.00    +0.001 A 
ATOM     26  C   UNL     1      16.357  11.081   6.645  0.00  0.00    +0.004 A 
BRANCH  22   4
ATOM      4  O   UNL     1      13.108   9.410   6.626  0.00  0.00    -0.495 OA
ATOM     28  C   UNL     1      12.212  10.268   5.923  0.00  0.00    +0.277 C 
ENDBRANCH  22   4
ENDBRANCH  19  21
ENDBRANCH   6  19
ENDBRANCH  14  16
ENDBRANCH   8  14
TORSDOF 9
ENDMDL
MODEL 10
REMARK VINA RESULT:      -5.3     26.778     29.237
REMARK  Name = 26743024
REMARK  11 active torsions:
REMARK  status: ('A' for Active; 'I' for Inactive)
REMARK    1  A    between atoms: O_3  and  C_20
REMARK    2  A    between atoms: O_3  and  C_27
REMARK    3  A    between atoms: O_4  and  C_22
REMARK    4  A    between atoms: O_4  and  C_28
REMARK    5  A    between atoms: N_6  and  C_19
REMARK    6  A    between atoms: C_8  and  C_14
REMARK    7  A    between atoms: C_9  and  C_13
REMARK    8  A    between atoms: C_13  and  C_15
REMARK    9  A    between atoms: C_14  and  C_16
REMARK   10  A    between atoms: C_18  and  C_20
REMARK   11  A    between atoms: C_19  and  C_21
REMARK                            x       y       z     vdW  Elec       q    Type
REMARK                         _______ _______ _______ _____ _____    ______ ____
ROOT
ATOM      5  N   UNL     1      -4.351 -15.586  12.755  0.00  0.00    -0.316 NA
ATOM      8  C   UNL     1      -2.756 -13.520  14.081  0.00  0.00    +0.004 C 
ATOM      9  C   UNL     1      -3.720 -13.179  12.919  0.00  0.00    +0.012 C 
ATOM     10  C   UNL     1      -2.300 -14.985  14.007  0.00  0.00    +0.019 C 
ATOM     11  C   UNL     1      -4.856 -14.217  12.877  0.00  0.00    +0.085 C 
ATOM     12  C   UNL     1      -3.492 -15.935  13.885  0.00  0.00    +0.081 C 
ATOM     29  H   UNL     1      -3.832 -15.692  11.885  0.00  0.00    +0.122 HD
ENDROOT
BRANCH   9  13
ATOM     13  C   UNL     1      -3.030 -13.072  11.552  0.00  0.00    +0.064 C 
BRANCH  13  15
ATOM      2  O   UNL     1      -2.981  -9.605  10.583  0.00  0.00    -0.357 OA
ATOM      7  N   UNL     1      -2.536 -10.673  11.352  0.00  0.00    -0.083 NA
ATOM     15  C   UNL     1      -3.250 -11.722  10.934  0.00  0.00    +0.084 A 
ATOM     17  C   UNL     1      -4.151 -11.380   9.911  0.00  0.00    +0.073 A 
ATOM     18  C   UNL     1      -3.943 -10.038   9.728  0.00  0.00    +0.163 A 
BRANCH  18  20
ATOM     20  C   UNL     1      -4.526  -9.031   8.835  0.00  0.00    +0.236 C 
BRANCH  20   3
ATOM      3  O   UNL     1      -5.086  -9.659   7.677  0.00  0.00    -0.375 OA
ATOM     27  C   UNL     1      -6.490  -9.465   7.617  0.00  0.00    +0.194 C 
ENDBRANCH  20   3
ENDBRANCH  18  20
ENDBRANCH  13  15
ENDBRANCH   9  13
BRANCH   8  14
ATOM     14  C   UNL     1      -1.554 -12.581  14.168  0.00  0.00    +0.099 C 
BRANCH  14  16
ATOM      1  O   UNL     1      -1.465 -10.199  14.581  0.00  0.00    -0.276 OA
ATOM      6  N   UNL     1      -2.685 -11.559  16.016  0.00  0.00    -0.311 N 
ATOM     16  C   UNL     1      -1.877 -11.305  14.917  0.00  0.00    +0.214 C 
ATOM     30  H   UNL     1      -2.968 -12.514  16.219  0.00  0.00    +0.149 HD
BRANCH   6  19
ATOM     19  C   UNL     1      -3.147 -10.526  16.913  0.00  0.00    +0.143 C 
BRANCH  19  21
ATOM     21  C   UNL     1      -4.516 -10.821  17.453  0.00  0.00    +0.011 A 
ATOM     22  C   UNL     1      -5.658 -10.396  16.773  0.00  0.00    +0.125 A 
ATOM     23  C   UNL     1      -4.640 -11.529  18.649  0.00  0.00    +0.009 A 
ATOM     24  C   UNL     1      -6.922 -10.679  17.288  0.00  0.00    +0.046 A 
ATOM     25  C   UNL     1      -5.905 -11.812  19.164  0.00  0.00    +0.001 A 
ATOM     26  C   UNL     1      -7.046 -11.387  18.484  0.00  0.00    +0.004 A 
BRANCH  22   4
ATOM      4  O   UNL     1      -5.556  -9.705  15.603  0.00  0.00    -0.495 OA
ATOM     28  C   UNL     1      -5.792 -10.430  14.399  0.00  0.00    +0.277 C 
ENDBRANCH  22   4
ENDBRANCH  19  21
ENDBRANCH   6  19
ENDBRANCH  14  16
ENDBRANCH   8  14
TORSDOF 9
ENDMDL
