REMARK  Name = 11912188
REMARK  7 active torsions:
REMARK  status: ('A' for Active; 'I' for Inactive)
REMARK    1  A    between atoms: S_1  and  N_9
REMARK    2  A    between atoms: S_1  and  C_21
REMARK    3  A    between atoms: N_9  and  C_16
REMARK    4  A    between atoms: N_10  and  C_17
REMARK    5  A    between atoms: N_13  and  C_29
REMARK    6  A    between atoms: C_24  and  C_30
REMARK    7  A    between atoms: C_36  and  C_38
REMARK                            x       y       z     vdW  Elec       q    Type
REMARK                         _______ _______ _______ _____ _____    ______ ____
ROOT
ATOM      2  O   UNL     1      -0.620   1.389   1.582  0.00  0.00    -0.370 OA
ATOM      3  O   UNL     1       1.666  -0.718   1.900  0.00  0.00    -0.370 OA
ATOM     14  C   UNL     1       1.253   0.136   0.820  0.00  0.00    +0.170 C 
ATOM     15  C   UNL     1      -0.261   0.204   0.852  0.00  0.00    +0.171 C 
ATOM     16  C   UNL     1       1.693   1.556   1.079  0.00  0.00    +0.133 C 
ATOM     17  C   UNL     1      -0.672  -1.029   1.621  0.00  0.00    +0.130 C 
ATOM     18  C   UNL     1       0.573   2.101   1.943  0.00  0.00    +0.183 C 
ATOM     19  C   UNL     1       0.503  -1.243   2.557  0.00  0.00    +0.185 C 
ENDROOT
BRANCH  17  10
ATOM     10  N   UNL     1      -0.805  -2.153   0.720  0.00  0.00    -0.306 N 
ATOM     11  N   UNL     1      -2.989  -1.581   0.178  0.00  0.00    -0.214 NA
ATOM     12  N   UNL     1      -1.924  -3.510  -0.797  0.00  0.00    -0.223 NA
ATOM     20  C   UNL     1      -1.956  -2.426   0.002  0.00  0.00    +0.216 A 
ATOM     24  C   UNL     1      -4.095  -1.877  -0.536  0.00  0.00    +0.076 A 
ATOM     25  C   UNL     1      -3.062  -3.747  -1.481  0.00  0.00    +0.116 A 
ATOM     28  C   UNL     1      -4.190  -2.957  -1.390  0.00  0.00    +0.048 A 
ATOM     40  H   UNL     1      -0.007  -2.755   0.553  0.00  0.00    +0.149 HD
BRANCH  24  30
ATOM      6  O   UNL     1      -6.182   2.546  -0.713  0.00  0.00    -0.453 OA
ATOM      7  O   UNL     1      -8.278   1.706   0.129  0.00  0.00    -0.453 OA
ATOM     30  C   UNL     1      -5.204  -0.972  -0.352  0.00  0.00    +0.004 A 
ATOM     31  C   UNL     1      -5.054   0.382  -0.662  0.00  0.00    +0.059 A 
ATOM     32  C   UNL     1      -6.427  -1.462   0.140  0.00  0.00    +0.014 A 
ATOM     33  C   UNL     1      -6.142   1.208  -0.469  0.00  0.00    +0.167 A 
ATOM     34  C   UNL     1      -7.514  -0.604   0.326  0.00  0.00    +0.050 A 
ATOM     35  C   UNL     1      -7.339   0.728   0.012  0.00  0.00    +0.166 A 
ATOM     37  C   UNL     1      -7.539   2.855  -0.333  0.00  0.00    +0.466 C 
ENDBRANCH  24  30
ENDBRANCH  17  10
BRANCH  16   9
ATOM      9  N   UNL     1       1.743   2.304  -0.201  0.00  0.00    -0.182 NA
ATOM     39  H   UNL     1       1.002   2.122  -0.889  0.00  0.00    +0.148 HD
BRANCH   9   1
ATOM      1  S   UNL     1       3.170   3.102  -0.657  0.00  0.00    +0.059 S 
ATOM      4  O   UNL     1       3.587   3.994   0.408  0.00  0.00    -0.153 OA
ATOM      5  O   UNL     1       3.013   3.603  -2.010  0.00  0.00    -0.153 OA
BRANCH   1  21
ATOM     21  C   UNL     1       4.326   1.767  -0.734  0.00  0.00    +0.105 A 
ATOM     22  C   UNL     1       4.506   1.068  -1.928  0.00  0.00    +0.030 A 
ATOM     23  C   UNL     1       5.058   1.413   0.399  0.00  0.00    +0.030 A 
ATOM     26  C   UNL     1       5.419   0.015  -1.988  0.00  0.00    +0.025 A 
ATOM     27  C   UNL     1       5.971   0.359   0.339  0.00  0.00    +0.025 A 
ATOM     29  C   UNL     1       6.151  -0.340  -0.855  0.00  0.00    +0.033 A 
BRANCH  29  13
ATOM      8  O   UNL     1       7.950  -1.492   1.267  0.00  0.00    -0.276 OA
ATOM     13  N   UNL     1       7.063  -1.393  -0.915  0.00  0.00    -0.286 N 
ATOM     36  C   UNL     1       7.881  -1.890   0.109  0.00  0.00    +0.214 C 
ATOM     38  C   UNL     1       8.730  -3.043  -0.363  0.00  0.00    +0.109 C 
ATOM     41  H   UNL     1       7.137  -1.853  -1.821  0.00  0.00    +0.155 HD
ENDBRANCH  29  13
ENDBRANCH   1  21
ENDBRANCH   9   1
ENDBRANCH  16   9
TORSDOF 6
