MODEL 1
REMARK VINA RESULT:      -7.8      0.000      0.000
REMARK  Name = 56775075
REMARK  6 active torsions:
REMARK  status: ('A' for Active; 'I' for Inactive)
REMARK    1  A    between atoms: O_3  and  C_28
REMARK    2  A    between atoms: O_3  and  C_29
REMARK    3  A    between atoms: N_4  and  C_11
REMARK    4  A    between atoms: N_5  and  C_14
REMARK    5  A    between atoms: C_11  and  C_15
REMARK    6  A    between atoms: C_14  and  C_16
REMARK                            x       y       z     vdW  Elec       q    Type
REMARK                         _______ _______ _______ _____ _____    ______ ____
ROOT
ATOM      1  O   UNL     1      13.161  10.522  17.764  0.00  0.00    -0.364 OA
ATOM      2  O   UNL     1      13.997   7.235  16.809  0.00  0.00    -0.273 OA
ATOM      4  N   UNL     1      12.517  10.788  20.984  0.00  0.00    -0.294 NA
ATOM      5  N   UNL     1      14.055   8.192  18.929  0.00  0.00    -0.288 N 
ATOM      7  C   UNL     1      13.881   9.378  19.763  0.00  0.00    +0.120 C 
ATOM      8  C   UNL     1      13.842  10.700  19.003  0.00  0.00    +0.154 C 
ATOM      9  C   UNL     1      12.553   9.403  20.516  0.00  0.00    +0.110 C 
ATOM     10  C   UNL     1      12.991  11.627  19.876  0.00  0.00    +0.118 C 
ATOM     12  C   UNL     1      13.948   8.224  17.542  0.00  0.00    +0.242 C 
ATOM     13  C   UNL     1      13.845   9.607  16.939  0.00  0.00    +0.256 C 
ENDROOT
BRANCH   4  11
ATOM     11  C   UNL     1      11.205  11.182  21.472  0.00  0.00    +0.121 C 
BRANCH  11  15
ATOM      6  N   UNL     1      11.377  11.061  25.141  0.00  0.00    -0.360 N 
ATOM     15  C   UNL     1      11.200  11.408  22.956  0.00  0.00    -0.008 A 
ATOM     17  C   UNL     1      10.896  12.626  23.626  0.00  0.00    +0.004 A 
ATOM     18  C   UNL     1      11.492  10.464  23.914  0.00  0.00    +0.088 A 
ATOM     19  C   UNL     1      11.015  12.381  24.995  0.00  0.00    +0.047 A 
ATOM     22  C   UNL     1      10.530  13.917  23.197  0.00  0.00    +0.010 A 
ATOM     23  C   UNL     1      10.785  13.367  25.963  0.00  0.00    +0.026 A 
ATOM     26  C   UNL     1      10.297  14.914  24.153  0.00  0.00    +0.001 A 
ATOM     27  C   UNL     1      10.424  14.640  25.513  0.00  0.00    +0.002 A 
ATOM     30  H   UNL     1      11.537  10.599  26.026  0.00  0.00    +0.165 HD
ENDBRANCH  11  15
ENDBRANCH   4  11
BRANCH   5  14
ATOM     14  C   UNL     1      14.255   6.923  19.618  0.00  0.00    +0.143 C 
BRANCH  14  16
ATOM     16  C   UNL     1      15.708   6.633  19.852  0.00  0.00    -0.030 A 
ATOM     20  C   UNL     1      16.301   6.975  21.068  0.00  0.00    +0.009 A 
ATOM     21  C   UNL     1      16.467   6.020  18.855  0.00  0.00    +0.009 A 
ATOM     24  C   UNL     1      17.652   6.705  21.285  0.00  0.00    +0.046 A 
ATOM     25  C   UNL     1      17.818   5.750  19.072  0.00  0.00    +0.046 A 
ATOM     28  C   UNL     1      18.411   6.092  20.288  0.00  0.00    +0.120 A 
BRANCH  28   3
ATOM      3  O   UNL     1      19.729   5.828  20.500  0.00  0.00    -0.495 OA
ATOM     29  C   UNL     1      20.523   6.880  21.045  0.00  0.00    +0.277 C 
ENDBRANCH  28   3
ENDBRANCH  14  16
ENDBRANCH   5  14
TORSDOF 5
ENDMDL
MODEL 2
REMARK VINA RESULT:      -7.1     27.765     29.956
REMARK  Name = 56775075
REMARK  6 active torsions:
REMARK  status: ('A' for Active; 'I' for Inactive)
REMARK    1  A    between atoms: O_3  and  C_28
REMARK    2  A    between atoms: O_3  and  C_29
REMARK    3  A    between atoms: N_4  and  C_11
REMARK    4  A    between atoms: N_5  and  C_14
REMARK    5  A    between atoms: C_11  and  C_15
REMARK    6  A    between atoms: C_14  and  C_16
REMARK                            x       y       z     vdW  Elec       q    Type
REMARK                         _______ _______ _______ _____ _____    ______ ____
ROOT
ATOM      1  O   UNL     1      -4.564 -11.420  18.497  0.00  0.00    -0.364 OA
ATOM      2  O   UNL     1      -7.687 -12.033  20.008  0.00  0.00    -0.273 OA
ATOM      4  N   UNL     1      -4.761 -11.179  15.217  0.00  0.00    -0.294 NA
ATOM      5  N   UNL     1      -7.240 -11.162  17.897  0.00  0.00    -0.288 N 
ATOM      7  C   UNL     1      -6.250 -10.714  16.922  0.00  0.00    +0.120 C 
ATOM      8  C   UNL     1      -4.857 -10.457  17.487  0.00  0.00    +0.154 C 
ATOM      9  C   UNL     1      -5.965 -11.740  15.827  0.00  0.00    +0.110 C 
ATOM     10  C   UNL     1      -3.906 -10.705  16.313  0.00  0.00    +0.118 C 
ATOM     12  C   UNL     1      -6.899 -11.563  19.185  0.00  0.00    +0.242 C 
ATOM     13  C   UNL     1      -5.461 -11.307  19.577  0.00  0.00    +0.256 C 
ENDROOT
BRANCH   4  11
ATOM     11  C   UNL     1      -4.085 -12.122  14.339  0.00  0.00    +0.121 C 
BRANCH  11  15
ATOM      6  N   UNL     1      -1.724 -10.767  11.869  0.00  0.00    -0.360 N 
ATOM     15  C   UNL     1      -3.349 -11.429  13.229  0.00  0.00    -0.008 A 
ATOM     17  C   UNL     1      -3.904 -10.525  12.280  0.00  0.00    +0.004 A 
ATOM     18  C   UNL     1      -2.008 -11.557  12.951  0.00  0.00    +0.088 A 
ATOM     19  C   UNL     1      -2.864 -10.126  11.438  0.00  0.00    +0.047 A 
ATOM     22  C   UNL     1      -5.196 -10.008  12.055  0.00  0.00    +0.010 A 
ATOM     23  C   UNL     1      -3.050  -9.231  10.378  0.00  0.00    +0.026 A 
ATOM     26  C   UNL     1      -5.397  -9.112  10.998  0.00  0.00    +0.001 A 
ATOM     27  C   UNL     1      -4.341  -8.732  10.174  0.00  0.00    +0.002 A 
ATOM     30  H   UNL     1      -0.811 -10.670  11.447  0.00  0.00    +0.165 HD
ENDBRANCH  11  15
ENDBRANCH   4  11
BRANCH   5  14
ATOM     14  C   UNL     1      -8.618 -11.270  17.438  0.00  0.00    +0.143 C 
BRANCH  14  16
ATOM     16  C   UNL     1      -9.134  -9.970  16.895  0.00  0.00    -0.030 A 
ATOM     20  C   UNL     1      -9.464  -8.931  17.766  0.00  0.00    +0.009 A 
ATOM     21  C   UNL     1      -9.283  -9.799  15.518  0.00  0.00    +0.009 A 
ATOM     24  C   UNL     1      -9.943  -7.722  17.260  0.00  0.00    +0.046 A 
ATOM     25  C   UNL     1      -9.762  -8.591  15.013  0.00  0.00    +0.046 A 
ATOM     28  C   UNL     1     -10.091  -7.552  15.884  0.00  0.00    +0.120 A 
BRANCH  28   3
ATOM      3  O   UNL     1     -10.557  -6.372  15.390  0.00  0.00    -0.495 OA
ATOM     29  C   UNL     1     -11.932  -6.069  15.621  0.00  0.00    +0.277 C 
ENDBRANCH  28   3
ENDBRANCH  14  16
ENDBRANCH   5  14
TORSDOF 5
ENDMDL
MODEL 3
REMARK VINA RESULT:      -7.1     27.632     30.097
REMARK  Name = 56775075
REMARK  6 active torsions:
REMARK  status: ('A' for Active; 'I' for Inactive)
REMARK    1  A    between atoms: O_3  and  C_28
REMARK    2  A    between atoms: O_3  and  C_29
REMARK    3  A    between atoms: N_4  and  C_11
REMARK    4  A    between atoms: N_5  and  C_14
REMARK    5  A    between atoms: C_11  and  C_15
REMARK    6  A    between atoms: C_14  and  C_16
REMARK                            x       y       z     vdW  Elec       q    Type
REMARK                         _______ _______ _______ _____ _____    ______ ____
ROOT
ATOM      1  O   UNL     1     -18.109   4.858  23.246  0.00  0.00    -0.364 OA
ATOM      2  O   UNL     1     -16.200   4.877  20.285  0.00  0.00    -0.273 OA
ATOM      4  N   UNL     1     -16.300   4.219  25.925  0.00  0.00    -0.294 NA
ATOM      5  N   UNL     1     -15.475   5.117  22.483  0.00  0.00    -0.288 N 
ATOM      7  C   UNL     1     -15.815   5.221  23.899  0.00  0.00    +0.120 C 
ATOM      8  C   UNL     1     -17.279   5.530  24.191  0.00  0.00    +0.154 C 
ATOM      9  C   UNL     1     -15.603   3.922  24.674  0.00  0.00    +0.110 C 
ATOM     10  C   UNL     1     -17.543   4.914  25.567  0.00  0.00    +0.118 C 
ATOM     12  C   UNL     1     -16.438   5.056  21.480  0.00  0.00    +0.242 C 
ATOM     13  C   UNL     1     -17.856   5.315  21.938  0.00  0.00    +0.256 C 
ENDROOT
BRANCH   4  11
ATOM     11  C   UNL     1     -16.527   3.033  26.736  0.00  0.00    +0.121 C 
BRANCH  11  15
ATOM      6  N   UNL     1     -15.799   4.261  30.123  0.00  0.00    -0.360 N 
ATOM     15  C   UNL     1     -16.171   3.261  28.177  0.00  0.00    -0.008 A 
ATOM     17  C   UNL     1     -15.762   2.271  29.114  0.00  0.00    +0.004 A 
ATOM     18  C   UNL     1     -16.184   4.474  28.825  0.00  0.00    +0.088 A 
ATOM     19  C   UNL     1     -15.535   2.926  30.326  0.00  0.00    +0.047 A 
ATOM     22  C   UNL     1     -15.562   0.878  29.047  0.00  0.00    +0.010 A 
ATOM     23  C   UNL     1     -15.116   2.254  31.481  0.00  0.00    +0.026 A 
ATOM     26  C   UNL     1     -15.144   0.193  30.194  0.00  0.00    +0.001 A 
ATOM     27  C   UNL     1     -14.925   0.872  31.390  0.00  0.00    +0.002 A 
ATOM     30  H   UNL     1     -15.720   4.981  30.828  0.00  0.00    +0.165 HD
ENDBRANCH  11  15
ENDBRANCH   4  11
BRANCH   5  14
ATOM     14  C   UNL     1     -14.063   4.978  22.150  0.00  0.00    +0.143 C 
BRANCH  14  16
ATOM     16  C   UNL     1     -13.464   6.275  21.691  0.00  0.00    -0.030 A 
ATOM     20  C   UNL     1     -12.275   6.275  20.960  0.00  0.00    +0.009 A 
ATOM     21  C   UNL     1     -14.097   7.481  21.992  0.00  0.00    +0.009 A 
ATOM     24  C   UNL     1     -11.719   7.481  20.534  0.00  0.00    +0.046 A 
ATOM     25  C   UNL     1     -13.541   8.687  21.566  0.00  0.00    +0.046 A 
ATOM     28  C   UNL     1     -12.352   8.687  20.835  0.00  0.00    +0.120 A 
BRANCH  28   3
ATOM      3  O   UNL     1     -11.810   9.864  20.418  0.00  0.00    -0.495 OA
ATOM     29  C   UNL     1     -10.561   9.797  19.733  0.00  0.00    +0.277 C 
ENDBRANCH  28   3
ENDBRANCH  14  16
ENDBRANCH   5  14
TORSDOF 5
ENDMDL
MODEL 4
REMARK VINA RESULT:      -6.8     27.143     30.238
REMARK  Name = 56775075
REMARK  6 active torsions:
REMARK  status: ('A' for Active; 'I' for Inactive)
REMARK    1  A    between atoms: O_3  and  C_28
REMARK    2  A    between atoms: O_3  and  C_29
REMARK    3  A    between atoms: N_4  and  C_11
REMARK    4  A    between atoms: N_5  and  C_14
REMARK    5  A    between atoms: C_11  and  C_15
REMARK    6  A    between atoms: C_14  and  C_16
REMARK                            x       y       z     vdW  Elec       q    Type
REMARK                         _______ _______ _______ _____ _____    ______ ____
ROOT
ATOM      1  O   UNL     1     -15.798   7.357  32.347  0.00  0.00    -0.364 OA
ATOM      2  O   UNL     1     -16.940   4.024  32.315  0.00  0.00    -0.273 OA
ATOM      4  N   UNL     1     -13.041   7.742  34.109  0.00  0.00    -0.294 NA
ATOM      5  N   UNL     1     -14.812   4.827  32.809  0.00  0.00    -0.288 N 
ATOM      7  C   UNL     1     -13.907   5.968  32.908  0.00  0.00    +0.120 C 
ATOM      8  C   UNL     1     -14.385   7.234  32.206  0.00  0.00    +0.154 C 
ATOM      9  C   UNL     1     -13.698   6.457  34.340  0.00  0.00    +0.110 C 
ATOM     10  C   UNL     1     -13.735   8.382  32.984  0.00  0.00    +0.118 C 
ATOM     12  C   UNL     1     -16.115   4.938  32.331  0.00  0.00    +0.242 C 
ATOM     13  C   UNL     1     -16.462   6.280  31.726  0.00  0.00    +0.256 C 
ENDROOT
BRANCH   4  11
ATOM     11  C   UNL     1     -13.005   8.576  35.300  0.00  0.00    +0.121 C 
BRANCH  11  15
ATOM      6  N   UNL     1     -10.111   7.997  37.490  0.00  0.00    -0.360 N 
ATOM     15  C   UNL     1     -11.681   8.497  36.003  0.00  0.00    -0.008 A 
ATOM     17  C   UNL     1     -10.460   9.093  35.578  0.00  0.00    +0.004 A 
ATOM     18  C   UNL     1     -11.435   7.831  37.181  0.00  0.00    +0.088 A 
ATOM     19  C   UNL     1      -9.492   8.763  36.528  0.00  0.00    +0.047 A 
ATOM     22  C   UNL     1     -10.086   9.882  34.473  0.00  0.00    +0.010 A 
ATOM     23  C   UNL     1      -8.160   9.186  36.429  0.00  0.00    +0.026 A 
ATOM     26  C   UNL     1      -8.758  10.312  34.360  0.00  0.00    +0.001 A 
ATOM     27  C   UNL     1      -7.813   9.968  35.323  0.00  0.00    +0.002 A 
ATOM     30  H   UNL     1      -9.654   7.612  38.305  0.00  0.00    +0.165 HD
ENDBRANCH  11  15
ENDBRANCH   4  11
BRANCH   5  14
ATOM     14  C   UNL     1     -14.331   3.553  33.328  0.00  0.00    +0.143 C 
BRANCH  14  16
ATOM     16  C   UNL     1     -14.319   2.485  32.275  0.00  0.00    -0.030 A 
ATOM     20  C   UNL     1     -14.884   1.237  32.538  0.00  0.00    +0.009 A 
ATOM     21  C   UNL     1     -13.744   2.740  31.029  0.00  0.00    +0.009 A 
ATOM     24  C   UNL     1     -14.872   0.244  31.558  0.00  0.00    +0.046 A 
ATOM     25  C   UNL     1     -13.732   1.748  30.049  0.00  0.00    +0.046 A 
ATOM     28  C   UNL     1     -14.297   0.500  30.313  0.00  0.00    +0.120 A 
BRANCH  28   3
ATOM      3  O   UNL     1     -14.287  -0.467  29.356  0.00  0.00    -0.495 OA
ATOM     29  C   UNL     1     -13.110  -1.268  29.254  0.00  0.00    +0.277 C 
ENDBRANCH  28   3
ENDBRANCH  14  16
ENDBRANCH   5  14
TORSDOF 5
ENDMDL
MODEL 5
REMARK VINA RESULT:      -6.7      4.811     10.435
REMARK  Name = 56775075
REMARK  6 active torsions:
REMARK  status: ('A' for Active; 'I' for Inactive)
REMARK    1  A    between atoms: O_3  and  C_28
REMARK    2  A    between atoms: O_3  and  C_29
REMARK    3  A    between atoms: N_4  and  C_11
REMARK    4  A    between atoms: N_5  and  C_14
REMARK    5  A    between atoms: C_11  and  C_15
REMARK    6  A    between atoms: C_14  and  C_16
REMARK                            x       y       z     vdW  Elec       q    Type
REMARK                         _______ _______ _______ _____ _____    ______ ____
ROOT
ATOM      1  O   UNL     1      18.831   9.398  21.848  0.00  0.00    -0.364 OA
ATOM      2  O   UNL     1      15.339   9.229  22.283  0.00  0.00    -0.273 OA
ATOM      4  N   UNL     1      20.200   6.439  21.370  0.00  0.00    -0.294 NA
ATOM      5  N   UNL     1      16.760   7.662  21.314  0.00  0.00    -0.288 N 
ATOM      7  C   UNL     1      18.111   7.303  20.891  0.00  0.00    +0.120 C 
ATOM      8  C   UNL     1      19.089   8.470  20.797  0.00  0.00    +0.154 C 
ATOM      9  C   UNL     1      18.825   6.366  21.862  0.00  0.00    +0.110 C 
ATOM     10  C   UNL     1      20.465   7.847  21.049  0.00  0.00    +0.118 C 
ATOM     12  C   UNL     1      16.441   8.914  21.831  0.00  0.00    +0.242 C 
ATOM     13  C   UNL     1      17.540   9.948  21.730  0.00  0.00    +0.256 C 
ENDROOT
BRANCH   4  11
ATOM     11  C   UNL     1      21.162   5.881  22.307  0.00  0.00    +0.121 C 
BRANCH  11  15
ATOM      6  N   UNL     1      23.370   3.905  20.132  0.00  0.00    -0.360 N 
ATOM     15  C   UNL     1      22.089   4.902  21.646  0.00  0.00    -0.008 A 
ATOM     17  C   UNL     1      22.642   3.730  22.234  0.00  0.00    +0.004 A 
ATOM     18  C   UNL     1      22.554   4.983  20.354  0.00  0.00    +0.088 A 
ATOM     19  C   UNL     1      23.442   3.124  21.263  0.00  0.00    +0.047 A 
ATOM     22  C   UNL     1      22.539   3.126  23.502  0.00  0.00    +0.010 A 
ATOM     23  C   UNL     1      24.148   1.938  21.498  0.00  0.00    +0.026 A 
ATOM     26  C   UNL     1      23.239   1.939  23.752  0.00  0.00    +0.001 A 
ATOM     27  C   UNL     1      24.030   1.357  22.764  0.00  0.00    +0.002 A 
ATOM     30  H   UNL     1      23.851   3.712  19.264  0.00  0.00    +0.165 HD
ENDBRANCH  11  15
ENDBRANCH   4  11
BRANCH   5  14
ATOM     14  C   UNL     1      15.752   6.611  21.269  0.00  0.00    +0.143 C 
BRANCH  14  16
ATOM     16  C   UNL     1      14.745   6.845  20.181  0.00  0.00    -0.030 A 
ATOM     20  C   UNL     1      15.171   7.166  18.892  0.00  0.00    +0.009 A 
ATOM     21  C   UNL     1      13.381   6.739  20.458  0.00  0.00    +0.009 A 
ATOM     24  C   UNL     1      14.234   7.383  17.881  0.00  0.00    +0.046 A 
ATOM     25  C   UNL     1      12.445   6.955  19.447  0.00  0.00    +0.046 A 
ATOM     28  C   UNL     1      12.872   7.276  18.159  0.00  0.00    +0.120 A 
BRANCH  28   3
ATOM      3  O   UNL     1      11.957   7.487  17.172  0.00  0.00    -0.495 OA
ATOM     29  C   UNL     1      11.290   8.748  17.163  0.00  0.00    +0.277 C 
ENDBRANCH  28   3
ENDBRANCH  14  16
ENDBRANCH   5  14
TORSDOF 5
ENDMDL
MODEL 6
REMARK VINA RESULT:      -6.7     24.682     26.800
REMARK  Name = 56775075
REMARK  6 active torsions:
REMARK  status: ('A' for Active; 'I' for Inactive)
REMARK    1  A    between atoms: O_3  and  C_28
REMARK    2  A    between atoms: O_3  and  C_29
REMARK    3  A    between atoms: N_4  and  C_11
REMARK    4  A    between atoms: N_5  and  C_14
REMARK    5  A    between atoms: C_11  and  C_15
REMARK    6  A    between atoms: C_14  and  C_16
REMARK                            x       y       z     vdW  Elec       q    Type
REMARK                         _______ _______ _______ _____ _____    ______ ____
ROOT
ATOM      1  O   UNL     1     -15.484   7.987  22.304  0.00  0.00    -0.364 OA
ATOM      2  O   UNL     1     -13.351   5.214  21.883  0.00  0.00    -0.273 OA
ATOM      4  N   UNL     1     -13.898  10.864  22.047  0.00  0.00    -0.294 NA
ATOM      5  N   UNL     1     -13.016   7.419  21.220  0.00  0.00    -0.288 N 
ATOM      7  C   UNL     1     -13.538   8.779  21.118  0.00  0.00    +0.120 C 
ATOM      8  C   UNL     1     -15.045   8.908  21.308  0.00  0.00    +0.154 C 
ATOM      9  C   UNL     1     -12.999   9.720  22.192  0.00  0.00    +0.110 C 
ATOM     10  C   UNL     1     -15.250  10.323  21.856  0.00  0.00    +0.118 C 
ATOM     12  C   UNL     1     -13.777   6.355  21.695  0.00  0.00    +0.242 C 
ATOM     13  C   UNL     1     -15.244   6.658  21.902  0.00  0.00    +0.256 C 
ENDROOT
BRANCH   4  11
ATOM     11  C   UNL     1     -13.812  11.792  23.164  0.00  0.00    +0.121 C 
BRANCH  11  15
ATOM      6  N   UNL     1     -14.450   9.996  26.307  0.00  0.00    -0.360 N 
ATOM     15  C   UNL     1     -13.790  11.080  24.486  0.00  0.00    -0.008 A 
ATOM     17  C   UNL     1     -12.644  10.821  25.289  0.00  0.00    +0.004 A 
ATOM     18  C   UNL     1     -14.885  10.562  25.137  0.00  0.00    +0.088 A 
ATOM     19  C   UNL     1     -13.086  10.140  26.424  0.00  0.00    +0.047 A 
ATOM     22  C   UNL     1     -11.269  11.100  25.157  0.00  0.00    +0.010 A 
ATOM     23  C   UNL     1     -12.218   9.722  27.441  0.00  0.00    +0.026 A 
ATOM     26  C   UNL     1     -10.390  10.689  26.166  0.00  0.00    +0.001 A 
ATOM     27  C   UNL     1     -10.859  10.010  27.288  0.00  0.00    +0.002 A 
ATOM     30  H   UNL     1     -15.044   9.539  26.984  0.00  0.00    +0.165 HD
ENDBRANCH  11  15
ENDBRANCH   4  11
BRANCH   5  14
ATOM     14  C   UNL     1     -11.610   7.223  20.892  0.00  0.00    +0.143 C 
BRANCH  14  16
ATOM     16  C   UNL     1     -11.213   7.968  19.652  0.00  0.00    -0.030 A 
ATOM     20  C   UNL     1     -11.580   7.482  18.396  0.00  0.00    +0.009 A 
ATOM     21  C   UNL     1     -10.478   9.150  19.753  0.00  0.00    +0.009 A 
ATOM     24  C   UNL     1     -11.211   8.175  17.244  0.00  0.00    +0.046 A 
ATOM     25  C   UNL     1     -10.109   9.844  18.601  0.00  0.00    +0.046 A 
ATOM     28  C   UNL     1     -10.476   9.357  17.346  0.00  0.00    +0.120 A 
BRANCH  28   3
ATOM      3  O   UNL     1     -10.116  10.035  16.222  0.00  0.00    -0.495 OA
ATOM     29  C   UNL     1      -9.835  11.426  16.364  0.00  0.00    +0.277 C 
ENDBRANCH  28   3
ENDBRANCH  14  16
ENDBRANCH   5  14
TORSDOF 5
ENDMDL
MODEL 7
REMARK VINA RESULT:      -6.7     27.757     29.289
REMARK  Name = 56775075
REMARK  6 active torsions:
REMARK  status: ('A' for Active; 'I' for Inactive)
REMARK    1  A    between atoms: O_3  and  C_28
REMARK    2  A    between atoms: O_3  and  C_29
REMARK    3  A    between atoms: N_4  and  C_11
REMARK    4  A    between atoms: N_5  and  C_14
REMARK    5  A    between atoms: C_11  and  C_15
REMARK    6  A    between atoms: C_14  and  C_16
REMARK                            x       y       z     vdW  Elec       q    Type
REMARK                         _______ _______ _______ _____ _____    ______ ____
ROOT
ATOM      1  O   UNL     1      -3.990 -13.983  15.353  0.00  0.00    -0.364 OA
ATOM      2  O   UNL     1      -1.262 -14.196  13.132  0.00  0.00    -0.273 OA
ATOM      4  N   UNL     1      -4.913 -10.876  15.943  0.00  0.00    -0.294 NA
ATOM      5  N   UNL     1      -2.742 -12.429  13.451  0.00  0.00    -0.288 N 
ATOM      7  C   UNL     1      -3.929 -11.908  14.124  0.00  0.00    +0.120 C 
ATOM      8  C   UNL     1      -4.808 -12.961  14.790  0.00  0.00    +0.154 C 
ATOM      9  C   UNL     1      -3.608 -10.976  15.290  0.00  0.00    +0.110 C 
ATOM     10  C   UNL     1      -5.495 -12.224  15.943  0.00  0.00    +0.118 C 
ATOM     12  C   UNL     1      -2.305 -13.741  13.606  0.00  0.00    +0.242 C 
ATOM     13  C   UNL     1      -3.256 -14.650  14.352  0.00  0.00    +0.256 C 
ENDROOT
BRANCH   4  11
ATOM     11  C   UNL     1      -4.832 -10.293  17.273  0.00  0.00    +0.121 C 
BRANCH  11  15
ATOM      6  N   UNL     1      -7.183 -11.718  19.712  0.00  0.00    -0.360 N 
ATOM     15  C   UNL     1      -5.985 -10.709  18.140  0.00  0.00    -0.008 A 
ATOM     17  C   UNL     1      -7.327 -10.243  18.044  0.00  0.00    +0.004 A 
ATOM     18  C   UNL     1      -5.928 -11.614  19.174  0.00  0.00    +0.088 A 
ATOM     19  C   UNL     1      -8.057 -10.892  19.041  0.00  0.00    +0.047 A 
ATOM     22  C   UNL     1      -7.991  -9.330  17.202  0.00  0.00    +0.010 A 
ATOM     23  C   UNL     1      -9.425 -10.673  19.241  0.00  0.00    +0.026 A 
ATOM     26  C   UNL     1      -9.360  -9.100  17.390  0.00  0.00    +0.001 A 
ATOM     27  C   UNL     1     -10.063  -9.761  18.394  0.00  0.00    +0.002 A 
ATOM     30  H   UNL     1      -7.432 -12.314  20.489  0.00  0.00    +0.165 HD
ENDBRANCH  11  15
ENDBRANCH   4  11
BRANCH   5  14
ATOM     14  C   UNL     1      -1.956 -11.484  12.669  0.00  0.00    +0.143 C 
BRANCH  14  16
ATOM     16  C   UNL     1      -2.707 -10.985  11.470  0.00  0.00    -0.030 A 
ATOM     20  C   UNL     1      -3.481 -11.865  10.713  0.00  0.00    +0.009 A 
ATOM     21  C   UNL     1      -2.634  -9.638  11.113  0.00  0.00    +0.009 A 
ATOM     24  C   UNL     1      -4.179 -11.400   9.599  0.00  0.00    +0.046 A 
ATOM     25  C   UNL     1      -3.332  -9.172   9.999  0.00  0.00    +0.046 A 
ATOM     28  C   UNL     1      -4.106 -10.053   9.243  0.00  0.00    +0.120 A 
BRANCH  28   3
ATOM      3  O   UNL     1      -4.788  -9.598   8.156  0.00  0.00    -0.495 OA
ATOM     29  C   UNL     1      -5.207 -10.569   7.199  0.00  0.00    +0.277 C 
ENDBRANCH  28   3
ENDBRANCH  14  16
ENDBRANCH   5  14
TORSDOF 5
ENDMDL
MODEL 8
REMARK VINA RESULT:      -6.6     28.357     29.847
REMARK  Name = 56775075
REMARK  6 active torsions:
REMARK  status: ('A' for Active; 'I' for Inactive)
REMARK    1  A    between atoms: O_3  and  C_28
REMARK    2  A    between atoms: O_3  and  C_29
REMARK    3  A    between atoms: N_4  and  C_11
REMARK    4  A    between atoms: N_5  and  C_14
REMARK    5  A    between atoms: C_11  and  C_15
REMARK    6  A    between atoms: C_14  and  C_16
REMARK                            x       y       z     vdW  Elec       q    Type
REMARK                         _______ _______ _______ _____ _____    ______ ____
ROOT
ATOM      1  O   UNL     1      -8.795 -12.084  17.730  0.00  0.00    -0.364 OA
ATOM      2  O   UNL     1      -5.461 -12.654  18.720  0.00  0.00    -0.273 OA
ATOM      4  N   UNL     1      -9.299  -9.009  16.660  0.00  0.00    -0.294 NA
ATOM      5  N   UNL     1      -6.302 -10.982  17.337  0.00  0.00    -0.288 N 
ATOM      7  C   UNL     1      -7.450 -10.396  16.651  0.00  0.00    +0.120 C 
ATOM      8  C   UNL     1      -8.670 -11.306  16.543  0.00  0.00    +0.154 C 
ATOM      9  C   UNL     1      -8.027  -9.175  17.363  0.00  0.00    +0.110 C 
ATOM     10  C   UNL     1      -9.865 -10.352  16.480  0.00  0.00    +0.118 C 
ATOM     12  C   UNL     1      -6.379 -12.172  18.053  0.00  0.00    +0.242 C 
ATOM     13  C   UNL     1      -7.680 -12.928  17.901  0.00  0.00    +0.256 C 
ENDROOT
BRANCH   4  11
ATOM     11  C   UNL     1     -10.204  -8.100  17.345  0.00  0.00    +0.121 C 
BRANCH  11  15
ATOM      6  N   UNL     1     -11.438  -5.648  14.901  0.00  0.00    -0.360 N 
ATOM     15  C   UNL     1     -10.960  -7.229  16.384  0.00  0.00    -0.008 A 
ATOM     17  C   UNL     1     -12.343  -7.323  16.064  0.00  0.00    +0.004 A 
ATOM     18  C   UNL     1     -10.430  -6.190  15.654  0.00  0.00    +0.088 A 
ATOM     19  C   UNL     1     -12.617  -6.321  15.132  0.00  0.00    +0.047 A 
ATOM     22  C   UNL     1     -13.391  -8.168  16.479  0.00  0.00    +0.010 A 
ATOM     23  C   UNL     1     -13.892  -6.119  14.590  0.00  0.00    +0.026 A 
ATOM     26  C   UNL     1     -14.672  -7.979  15.946  0.00  0.00    +0.001 A 
ATOM     27  C   UNL     1     -14.916  -6.971  15.017  0.00  0.00    +0.002 A 
ATOM     30  H   UNL     1     -11.332  -4.868  14.267  0.00  0.00    +0.165 HD
ENDBRANCH  11  15
ENDBRANCH   4  11
BRANCH   5  14
ATOM     14  C   UNL     1      -5.064 -10.212  17.329  0.00  0.00    +0.143 C 
BRANCH  14  16
ATOM     16  C   UNL     1      -4.228 -10.506  16.118  0.00  0.00    -0.030 A 
ATOM     20  C   UNL     1      -2.881 -10.840  16.264  0.00  0.00    +0.009 A 
ATOM     21  C   UNL     1      -4.797 -10.447  14.846  0.00  0.00    +0.009 A 
ATOM     24  C   UNL     1      -2.104 -11.113  15.138  0.00  0.00    +0.046 A 
ATOM     25  C   UNL     1      -4.021 -10.720  13.720  0.00  0.00    +0.046 A 
ATOM     28  C   UNL     1      -2.674 -11.054  13.866  0.00  0.00    +0.120 A 
BRANCH  28   3
ATOM      3  O   UNL     1      -1.917 -11.321  12.767  0.00  0.00    -0.495 OA
ATOM     29  C   UNL     1      -1.759 -10.271  11.815  0.00  0.00    +0.277 C 
ENDBRANCH  28   3
ENDBRANCH  14  16
ENDBRANCH   5  14
TORSDOF 5
ENDMDL
MODEL 9
REMARK VINA RESULT:      -6.6     26.588     29.986
REMARK  Name = 56775075
REMARK  6 active torsions:
REMARK  status: ('A' for Active; 'I' for Inactive)
REMARK    1  A    between atoms: O_3  and  C_28
REMARK    2  A    between atoms: O_3  and  C_29
REMARK    3  A    between atoms: N_4  and  C_11
REMARK    4  A    between atoms: N_5  and  C_14
REMARK    5  A    between atoms: C_11  and  C_15
REMARK    6  A    between atoms: C_14  and  C_16
REMARK                            x       y       z     vdW  Elec       q    Type
REMARK                         _______ _______ _______ _____ _____    ______ ____
ROOT
ATOM      1  O   UNL     1     -15.619   8.638  32.964  0.00  0.00    -0.364 OA
ATOM      2  O   UNL     1     -16.924   5.539  34.019  0.00  0.00    -0.273 OA
ATOM      4  N   UNL     1     -12.409   8.962  33.631  0.00  0.00    -0.294 NA
ATOM      5  N   UNL     1     -14.707   6.124  33.625  0.00  0.00    -0.288 N 
ATOM      7  C   UNL     1     -13.747   7.132  33.182  0.00  0.00    +0.120 C 
ATOM      8  C   UNL     1     -14.349   8.302  32.411  0.00  0.00    +0.154 C 
ATOM      9  C   UNL     1     -13.034   7.840  34.331  0.00  0.00    +0.110 C 
ATOM     10  C   UNL     1     -13.399   9.474  32.675  0.00  0.00    +0.118 C 
ATOM     12  C   UNL     1     -16.083   6.322  33.574  0.00  0.00    +0.242 C 
ATOM     13  C   UNL     1     -16.525   7.566  32.835  0.00  0.00    +0.256 C 
ENDROOT
BRANCH   4  11
ATOM     11  C   UNL     1     -11.916   9.986  34.539  0.00  0.00    +0.121 C 
BRANCH  11  15
ATOM      6  N   UNL     1      -8.324  10.485  33.943  0.00  0.00    -0.360 N 
ATOM     15  C   UNL     1     -10.417  10.056  34.547  0.00  0.00    -0.008 A 
ATOM     17  C   UNL     1      -9.551   9.553  35.558  0.00  0.00    +0.004 A 
ATOM     18  C   UNL     1      -9.634  10.622  33.567  0.00  0.00    +0.088 A 
ATOM     19  C   UNL     1      -8.244   9.835  35.155  0.00  0.00    +0.047 A 
ATOM     22  C   UNL     1      -9.754   8.884  36.781  0.00  0.00    +0.010 A 
ATOM     23  C   UNL     1      -7.124   9.480  35.916  0.00  0.00    +0.026 A 
ATOM     26  C   UNL     1      -8.644   8.522  37.554  0.00  0.00    +0.001 A 
ATOM     27  C   UNL     1      -7.351   8.817  37.126  0.00  0.00    +0.002 A 
ATOM     30  H   UNL     1      -7.531  10.813  33.409  0.00  0.00    +0.165 HD
ENDBRANCH  11  15
ENDBRANCH   4  11
BRANCH   5  14
ATOM     14  C   UNL     1     -14.164   4.913  34.227  0.00  0.00    +0.143 C 
BRANCH  14  16
ATOM     16  C   UNL     1     -14.092   3.781  33.245  0.00  0.00    -0.030 A 
ATOM     20  C   UNL     1     -14.714   2.565  33.533  0.00  0.00    +0.009 A 
ATOM     21  C   UNL     1     -13.405   3.944  32.041  0.00  0.00    +0.009 A 
ATOM     24  C   UNL     1     -14.647   1.514  32.619  0.00  0.00    +0.046 A 
ATOM     25  C   UNL     1     -13.338   2.892  31.128  0.00  0.00    +0.046 A 
ATOM     28  C   UNL     1     -13.960   1.677  31.416  0.00  0.00    +0.120 A 
BRANCH  28   3
ATOM      3  O   UNL     1     -13.895   0.651  30.524  0.00  0.00    -0.495 OA
ATOM     29  C   UNL     1     -14.999   0.493  29.635  0.00  0.00    +0.277 C 
ENDBRANCH  28   3
ENDBRANCH  14  16
ENDBRANCH   5  14
TORSDOF 5
ENDMDL
MODEL 10
REMARK VINA RESULT:      -6.6      5.451      8.182
REMARK  Name = 56775075
REMARK  6 active torsions:
REMARK  status: ('A' for Active; 'I' for Inactive)
REMARK    1  A    between atoms: O_3  and  C_28
REMARK    2  A    between atoms: O_3  and  C_29
REMARK    3  A    between atoms: N_4  and  C_11
REMARK    4  A    between atoms: N_5  and  C_14
REMARK    5  A    between atoms: C_11  and  C_15
REMARK    6  A    between atoms: C_14  and  C_16
REMARK                            x       y       z     vdW  Elec       q    Type
REMARK                         _______ _______ _______ _____ _____    ______ ____
ROOT
ATOM      1  O   UNL     1      21.604   8.516  21.740  0.00  0.00    -0.364 OA
ATOM      2  O   UNL     1      23.807   6.094  20.436  0.00  0.00    -0.273 OA
ATOM      4  N   UNL     1      18.447   7.587  21.578  0.00  0.00    -0.294 NA
ATOM      5  N   UNL     1      21.618   5.820  21.176  0.00  0.00    -0.288 N 
ATOM      7  C   UNL     1      20.427   6.410  21.781  0.00  0.00    +0.120 C 
ATOM      8  C   UNL     1      20.652   7.751  22.473  0.00  0.00    +0.154 C 
ATOM      9  C   UNL     1      19.337   6.754  20.768  0.00  0.00    +0.110 C 
ATOM     10  C   UNL     1      19.303   8.469  22.381  0.00  0.00    +0.118 C 
ATOM     12  C   UNL     1      22.809   6.521  21.020  0.00  0.00    +0.242 C 
ATOM     13  C   UNL     1      22.855   7.868  21.707  0.00  0.00    +0.256 C 
ENDROOT
BRANCH   4  11
ATOM     11  C   UNL     1      17.476   8.314  20.776  0.00  0.00    +0.121 C 
BRANCH  11  15
ATOM      6  N   UNL     1      14.548   6.106  21.014  0.00  0.00    -0.360 N 
ATOM     15  C   UNL     1      16.173   7.578  20.667  0.00  0.00    -0.008 A 
ATOM     17  C   UNL     1      15.102   7.880  19.779  0.00  0.00    +0.004 A 
ATOM     18  C   UNL     1      15.803   6.483  21.412  0.00  0.00    +0.088 A 
ATOM     19  C   UNL     1      14.096   6.942  20.018  0.00  0.00    +0.047 A 
ATOM     22  C   UNL     1      14.892   8.865  18.794  0.00  0.00    +0.010 A 
ATOM     23  C   UNL     1      12.883   6.939  19.318  0.00  0.00    +0.026 A 
ATOM     26  C   UNL     1      13.684   8.874  18.085  0.00  0.00    +0.001 A 
ATOM     27  C   UNL     1      12.698   7.925  18.345  0.00  0.00    +0.002 A 
ATOM     30  H   UNL     1      14.029   5.328  21.396  0.00  0.00    +0.165 HD
ENDBRANCH  11  15
ENDBRANCH   4  11
BRANCH   5  14
ATOM     14  C   UNL     1      21.488   4.471  20.640  0.00  0.00    +0.143 C 
BRANCH  14  16
ATOM     16  C   UNL     1      22.319   3.481  21.402  0.00  0.00    -0.030 A 
ATOM     20  C   UNL     1      23.181   2.621  20.720  0.00  0.00    +0.009 A 
ATOM     21  C   UNL     1      22.232   3.421  22.793  0.00  0.00    +0.009 A 
ATOM     24  C   UNL     1      23.954   1.702  21.429  0.00  0.00    +0.046 A 
ATOM     25  C   UNL     1      23.005   2.501  23.502  0.00  0.00    +0.046 A 
ATOM     28  C   UNL     1      23.867   1.642  22.819  0.00  0.00    +0.120 A 
BRANCH  28   3
ATOM      3  O   UNL     1      24.622   0.746  23.512  0.00  0.00    -0.495 OA
ATOM     29  C   UNL     1      25.733   0.168  22.829  0.00  0.00    +0.277 C 
ENDBRANCH  28   3
ENDBRANCH  14  16
ENDBRANCH   5  14
TORSDOF 5
ENDMDL
