MODEL 1
REMARK VINA RESULT:      -7.7      0.000      0.000
REMARK  Name = 11941298
REMARK  4 active torsions:
REMARK  status: ('A' for Active; 'I' for Inactive)
REMARK    1  A    between atoms: N_5  and  C_11
REMARK    2  A    between atoms: N_6  and  C_12
REMARK    3  A    between atoms: C_15  and  C_16
REMARK    4  A    between atoms: C_23  and  C_26
REMARK                            x       y       z     vdW  Elec       q    Type
REMARK                         _______ _______ _______ _____ _____    ______ ____
ROOT
ATOM      2  O   UNL     1      -5.890 -11.729  10.096  0.00  0.00    -0.370 OA
ATOM      3  O   UNL     1      -4.306  -9.045   9.948  0.00  0.00    -0.370 OA
ATOM      9  C   UNL     1      -4.087 -10.349   9.386  0.00  0.00    +0.171 C 
ATOM     10  C   UNL     1      -4.536 -11.366  10.417  0.00  0.00    +0.171 C 
ATOM     11  C   UNL     1      -5.014 -10.579   8.214  0.00  0.00    +0.130 C 
ATOM     12  C   UNL     1      -4.494 -10.611  11.725  0.00  0.00    +0.130 C 
ATOM     13  C   UNL     1      -6.286 -11.052   8.893  0.00  0.00    +0.185 C 
ATOM     14  C   UNL     1      -4.783  -9.185  11.295  0.00  0.00    +0.185 C 
ENDROOT
BRANCH  12   6
ATOM      6  N   UNL     1      -3.171 -10.700  12.304  0.00  0.00    -0.306 N 
ATOM      7  N   UNL     1      -4.001 -10.547  14.494  0.00  0.00    -0.214 NA
ATOM      8  N   UNL     1      -1.637 -10.764  14.078  0.00  0.00    -0.223 NA
ATOM     22  C   UNL     1      -2.929 -10.670  13.666  0.00  0.00    +0.216 A 
ATOM     23  C   UNL     1      -3.729 -10.520  15.815  0.00  0.00    +0.076 A 
ATOM     24  C   UNL     1      -1.438 -10.731  15.413  0.00  0.00    +0.116 A 
ATOM     25  C   UNL     1      -2.455 -10.609  16.337  0.00  0.00    +0.048 A 
ATOM     33  H   UNL     1      -2.370 -10.846  11.700  0.00  0.00    +0.149 HD
BRANCH  23  26
ATOM      1  F   UNL     1      -8.178  -8.846  16.666  0.00  0.00    -0.205 F 
ATOM     26  C   UNL     1      -4.880 -10.389  16.675  0.00  0.00    +0.003 A 
ATOM     27  C   UNL     1      -5.997  -9.666  16.248  0.00  0.00    +0.048 A 
ATOM     28  C   UNL     1      -4.883 -10.986  17.938  0.00  0.00    +0.010 A 
ATOM     29  C   UNL     1      -7.109  -9.540  17.080  0.00  0.00    +0.124 A 
ATOM     30  C   UNL     1      -5.996 -10.860  18.769  0.00  0.00    +0.003 A 
ATOM     31  C   UNL     1      -7.109 -10.137  18.340  0.00  0.00    +0.038 A 
ENDBRANCH  23  26
ENDBRANCH  12   6
BRANCH  11   5
ATOM      4  O   UNL     1      -5.489 -10.834   5.360  0.00  0.00    -0.276 OA
ATOM      5  N   UNL     1      -4.490 -11.586   7.324  0.00  0.00    -0.307 N 
ATOM     16  C   UNL     1      -4.775 -11.626   5.968  0.00  0.00    +0.216 C 
ATOM     32  H   UNL     1      -3.831 -12.258   7.708  0.00  0.00    +0.149 HD
BRANCH  16  15
ATOM     15  C   UNL     1      -4.082 -12.761   5.273  0.00  0.00    +0.075 C 
ATOM     17  C   UNL     1      -3.166 -12.217   4.174  0.00  0.00    +0.013 C 
ATOM     18  C   UNL     1      -3.301 -13.597   6.291  0.00  0.00    +0.013 C 
ATOM     19  C   UNL     1      -2.368 -13.332   3.503  0.00  0.00    +0.001 C 
ATOM     20  C   UNL     1      -2.503 -14.708   5.614  0.00  0.00    +0.001 C 
ATOM     21  C   UNL     1      -1.590 -14.160   4.521  0.00  0.00    +0.000 C 
ENDBRANCH  16  15
ENDBRANCH  11   5
TORSDOF 4
ENDMDL
MODEL 2
REMARK VINA RESULT:      -7.4     22.294     24.644
REMARK  Name = 11941298
REMARK  4 active torsions:
REMARK  status: ('A' for Active; 'I' for Inactive)
REMARK    1  A    between atoms: N_5  and  C_11
REMARK    2  A    between atoms: N_6  and  C_12
REMARK    3  A    between atoms: C_15  and  C_16
REMARK    4  A    between atoms: C_23  and  C_26
REMARK                            x       y       z     vdW  Elec       q    Type
REMARK                         _______ _______ _______ _____ _____    ______ ____
ROOT
ATOM      2  O   UNL     1     -15.850   3.429  24.374  0.00  0.00    -0.370 OA
ATOM      3  O   UNL     1     -18.439   5.164  24.226  0.00  0.00    -0.370 OA
ATOM      9  C   UNL     1     -17.050   5.446  23.989  0.00  0.00    +0.171 C 
ATOM     10  C   UNL     1     -16.249   4.657  25.006  0.00  0.00    +0.171 C 
ATOM     11  C   UNL     1     -16.617   4.876  22.657  0.00  0.00    +0.130 C 
ATOM     12  C   UNL     1     -17.234   4.378  26.117  0.00  0.00    +0.130 C 
ATOM     13  C   UNL     1     -16.296   3.435  23.010  0.00  0.00    +0.185 C 
ATOM     14  C   UNL     1     -18.559   4.317  25.379  0.00  0.00    +0.185 C 
ENDROOT
BRANCH  12   6
ATOM      6  N   UNL     1     -17.237   5.474  27.062  0.00  0.00    -0.306 N 
ATOM      7  N   UNL     1     -16.453   4.115  28.807  0.00  0.00    -0.214 NA
ATOM      8  N   UNL     1     -16.901   6.456  29.166  0.00  0.00    -0.223 NA
ATOM     22  C   UNL     1     -16.853   5.344  28.384  0.00  0.00    +0.216 A 
ATOM     23  C   UNL     1     -16.085   4.024  30.102  0.00  0.00    +0.076 A 
ATOM     24  C   UNL     1     -16.519   6.293  30.450  0.00  0.00    +0.116 A 
ATOM     25  C   UNL     1     -16.098   5.090  30.979  0.00  0.00    +0.048 A 
ATOM     33  H   UNL     1     -17.482   6.405  26.745  0.00  0.00    +0.149 HD
BRANCH  23  26
ATOM      1  F   UNL     1     -14.488   1.029  33.536  0.00  0.00    -0.205 F 
ATOM     26  C   UNL     1     -15.665   2.712  30.530  0.00  0.00    +0.003 A 
ATOM     27  C   UNL     1     -15.271   2.499  31.853  0.00  0.00    +0.048 A 
ATOM     28  C   UNL     1     -15.650   1.650  29.622  0.00  0.00    +0.010 A 
ATOM     29  C   UNL     1     -14.865   1.230  32.266  0.00  0.00    +0.124 A 
ATOM     30  C   UNL     1     -15.243   0.382  30.036  0.00  0.00    +0.003 A 
ATOM     31  C   UNL     1     -14.851   0.172  31.358  0.00  0.00    +0.038 A 
ENDBRANCH  23  26
ENDBRANCH  12   6
BRANCH  11   5
ATOM      4  O   UNL     1     -16.495   7.558  21.549  0.00  0.00    -0.276 OA
ATOM      5  N   UNL     1     -15.455   5.562  22.148  0.00  0.00    -0.307 N 
ATOM     16  C   UNL     1     -15.495   6.849  21.636  0.00  0.00    +0.216 C 
ATOM     32  H   UNL     1     -14.557   5.094  22.232  0.00  0.00    +0.149 HD
BRANCH  16  15
ATOM     15  C   UNL     1     -14.143   7.332  21.200  0.00  0.00    +0.075 C 
ATOM     17  C   UNL     1     -13.091   6.258  21.482  0.00  0.00    +0.013 C 
ATOM     18  C   UNL     1     -14.178   7.707  19.716  0.00  0.00    +0.013 C 
ATOM     19  C   UNL     1     -11.714   6.668  20.966  0.00  0.00    +0.001 C 
ATOM     20  C   UNL     1     -12.798   8.114  19.205  0.00  0.00    +0.001 C 
ATOM     21  C   UNL     1     -11.753   7.039  19.487  0.00  0.00    +0.000 C 
ENDBRANCH  16  15
ENDBRANCH  11   5
TORSDOF 4
ENDMDL
MODEL 3
REMARK VINA RESULT:      -7.3     24.895     28.839
REMARK  Name = 11941298
REMARK  4 active torsions:
REMARK  status: ('A' for Active; 'I' for Inactive)
REMARK    1  A    between atoms: N_5  and  C_11
REMARK    2  A    between atoms: N_6  and  C_12
REMARK    3  A    between atoms: C_15  and  C_16
REMARK    4  A    between atoms: C_23  and  C_26
REMARK                            x       y       z     vdW  Elec       q    Type
REMARK                         _______ _______ _______ _____ _____    ______ ____
ROOT
ATOM      2  O   UNL     1     -13.230   3.409  31.619  0.00  0.00    -0.370 OA
ATOM      3  O   UNL     1     -15.707   3.457  33.515  0.00  0.00    -0.370 OA
ATOM      9  C   UNL     1     -15.557   3.540  32.088  0.00  0.00    +0.171 C 
ATOM     10  C   UNL     1     -14.303   4.346  31.812  0.00  0.00    +0.171 C 
ATOM     11  C   UNL     1     -15.254   2.176  31.510  0.00  0.00    +0.130 C 
ATOM     12  C   UNL     1     -14.085   5.137  33.079  0.00  0.00    +0.130 C 
ATOM     13  C   UNL     1     -13.751   2.074  31.692  0.00  0.00    +0.185 C 
ATOM     14  C   UNL     1     -14.674   4.230  34.144  0.00  0.00    +0.185 C 
ENDROOT
BRANCH  12   6
ATOM      6  N   UNL     1     -14.822   6.381  33.019  0.00  0.00    -0.306 N 
ATOM      7  N   UNL     1     -13.284   7.486  34.404  0.00  0.00    -0.214 NA
ATOM      8  N   UNL     1     -15.211   8.638  33.527  0.00  0.00    -0.223 NA
ATOM     22  C   UNL     1     -14.428   7.536  33.670  0.00  0.00    +0.216 A 
ATOM     23  C   UNL     1     -12.929   8.630  35.026  0.00  0.00    +0.076 A 
ATOM     24  C   UNL     1     -14.797   9.747  34.176  0.00  0.00    +0.116 A 
ATOM     25  C   UNL     1     -13.653   9.802  34.947  0.00  0.00    +0.048 A 
ATOM     33  H   UNL     1     -15.646   6.444  32.431  0.00  0.00    +0.149 HD
BRANCH  23  26
ATOM      1  F   UNL     1     -10.312   6.654  38.571  0.00  0.00    -0.205 F 
ATOM     26  C   UNL     1     -11.714   8.555  35.800  0.00  0.00    +0.003 A 
ATOM     27  C   UNL     1     -11.596   7.622  36.833  0.00  0.00    +0.048 A 
ATOM     28  C   UNL     1     -10.650   9.416  35.518  0.00  0.00    +0.010 A 
ATOM     29  C   UNL     1     -10.421   7.551  37.581  0.00  0.00    +0.124 A 
ATOM     30  C   UNL     1      -9.475   9.343  36.267  0.00  0.00    +0.003 A 
ATOM     31  C   UNL     1      -9.361   8.411  37.298  0.00  0.00    +0.038 A 
ENDBRANCH  23  26
ENDBRANCH  12   6
BRANCH  11   5
ATOM      4  O   UNL     1     -16.108  -0.168  30.024  0.00  0.00    -0.276 OA
ATOM      5  N   UNL     1     -15.618   2.107  30.117  0.00  0.00    -0.307 N 
ATOM     16  C   UNL     1     -16.015   0.935  29.491  0.00  0.00    +0.216 C 
ATOM     32  H   UNL     1     -15.642   2.977  29.591  0.00  0.00    +0.149 HD
BRANCH  16  15
ATOM     15  C   UNL     1     -16.361   1.148  28.047  0.00  0.00    +0.075 C 
ATOM     17  C   UNL     1     -17.818   0.753  27.796  0.00  0.00    +0.013 C 
ATOM     18  C   UNL     1     -16.102   2.606  27.658  0.00  0.00    +0.013 C 
ATOM     19  C   UNL     1     -18.242   1.043  26.359  0.00  0.00    +0.001 C 
ATOM     20  C   UNL     1     -16.530   2.891  26.221  0.00  0.00    +0.001 C 
ATOM     21  C   UNL     1     -17.983   2.497  25.978  0.00  0.00    +0.000 C 
ENDBRANCH  16  15
ENDBRANCH  11   5
TORSDOF 4
ENDMDL
MODEL 4
REMARK VINA RESULT:      -7.2      7.926      9.324
REMARK  Name = 11941298
REMARK  4 active torsions:
REMARK  status: ('A' for Active; 'I' for Inactive)
REMARK    1  A    between atoms: N_5  and  C_11
REMARK    2  A    between atoms: N_6  and  C_12
REMARK    3  A    between atoms: C_15  and  C_16
REMARK    4  A    between atoms: C_23  and  C_26
REMARK                            x       y       z     vdW  Elec       q    Type
REMARK                         _______ _______ _______ _____ _____    ______ ____
ROOT
ATOM      2  O   UNL     1     -12.533  -8.173  14.820  0.00  0.00    -0.370 OA
ATOM      3  O   UNL     1     -11.023  -5.969  16.431  0.00  0.00    -0.370 OA
ATOM      9  C   UNL     1     -11.112  -6.279  15.030  0.00  0.00    +0.171 C 
ATOM     10  C   UNL     1     -11.150  -7.789  14.902  0.00  0.00    +0.171 C 
ATOM     11  C   UNL     1     -12.444  -5.828  14.476  0.00  0.00    +0.130 C 
ATOM     12  C   UNL     1     -10.545  -8.285  16.194  0.00  0.00    +0.130 C 
ATOM     13  C   UNL     1     -13.351  -6.994  14.821  0.00  0.00    +0.185 C 
ATOM     14  C   UNL     1     -10.918  -7.191  17.178  0.00  0.00    +0.185 C 
ENDROOT
BRANCH  12   6
ATOM      6  N   UNL     1      -9.107  -8.373  16.065  0.00  0.00    -0.306 N 
ATOM      7  N   UNL     1      -8.965 -10.123  17.622  0.00  0.00    -0.214 NA
ATOM      8  N   UNL     1      -6.988  -9.256  16.550  0.00  0.00    -0.223 NA
ATOM     22  C   UNL     1      -8.330  -9.278  16.766  0.00  0.00    +0.216 A 
ATOM     23  C   UNL     1      -8.178 -10.992  18.290  0.00  0.00    +0.076 A 
ATOM     24  C   UNL     1      -6.261 -10.152  17.251  0.00  0.00    +0.116 A 
ATOM     25  C   UNL     1      -6.807 -11.053  18.143  0.00  0.00    +0.048 A 
ATOM     33  H   UNL     1      -8.630  -7.785  15.391  0.00  0.00    +0.149 HD
BRANCH  23  26
ATOM      1  F   UNL     1     -12.057 -12.110  20.938  0.00  0.00    -0.205 F 
ATOM     26  C   UNL     1      -8.871 -11.879  19.191  0.00  0.00    +0.003 A 
ATOM     27  C   UNL     1     -10.156 -11.561  19.639  0.00  0.00    +0.048 A 
ATOM     28  C   UNL     1      -8.261 -13.061  19.619  0.00  0.00    +0.010 A 
ATOM     29  C   UNL     1     -10.826 -12.419  20.511  0.00  0.00    +0.124 A 
ATOM     30  C   UNL     1      -8.932 -13.918  20.491  0.00  0.00    +0.003 A 
ATOM     31  C   UNL     1     -10.214 -13.598  20.937  0.00  0.00    +0.038 A 
ENDBRANCH  23  26
ENDBRANCH  12   6
BRANCH  11   5
ATOM      4  O   UNL     1     -13.110  -3.415  13.002  0.00  0.00    -0.276 OA
ATOM      5  N   UNL     1     -12.374  -5.624  13.049  0.00  0.00    -0.307 N 
ATOM     16  C   UNL     1     -12.715  -4.430  12.434  0.00  0.00    +0.216 C 
ATOM     32  H   UNL     1     -11.995  -6.379  12.483  0.00  0.00    +0.149 HD
BRANCH  16  15
ATOM     15  C   UNL     1     -12.526  -4.481  10.946  0.00  0.00    +0.075 C 
ATOM     17  C   UNL     1     -11.586  -3.359  10.501  0.00  0.00    +0.013 C 
ATOM     18  C   UNL     1     -11.993  -5.856  10.535  0.00  0.00    +0.013 C 
ATOM     19  C   UNL     1     -11.290  -3.431   9.005  0.00  0.00    +0.001 C 
ATOM     20  C   UNL     1     -11.696  -5.921   9.039  0.00  0.00    +0.001 C 
ATOM     21  C   UNL     1     -10.757  -4.802   8.601  0.00  0.00    +0.000 C 
ENDBRANCH  16  15
ENDBRANCH  11   5
TORSDOF 4
ENDMDL
MODEL 5
REMARK VINA RESULT:      -7.2     22.531     24.600
REMARK  Name = 11941298
REMARK  4 active torsions:
REMARK  status: ('A' for Active; 'I' for Inactive)
REMARK    1  A    between atoms: N_5  and  C_11
REMARK    2  A    between atoms: N_6  and  C_12
REMARK    3  A    between atoms: C_15  and  C_16
REMARK    4  A    between atoms: C_23  and  C_26
REMARK                            x       y       z     vdW  Elec       q    Type
REMARK                         _______ _______ _______ _____ _____    ______ ____
ROOT
ATOM      2  O   UNL     1     -14.194   4.507  23.835  0.00  0.00    -0.370 OA
ATOM      3  O   UNL     1     -16.790   4.041  22.169  0.00  0.00    -0.370 OA
ATOM      9  C   UNL     1     -16.165   5.216  22.710  0.00  0.00    +0.171 C 
ATOM     10  C   UNL     1     -15.576   4.837  24.054  0.00  0.00    +0.171 C 
ATOM     11  C   UNL     1     -14.964   5.604  21.877  0.00  0.00    +0.130 C 
ATOM     12  C   UNL     1     -16.349   3.605  24.462  0.00  0.00    +0.130 C 
ATOM     13  C   UNL     1     -13.871   4.722  22.453  0.00  0.00    +0.185 C 
ATOM     14  C   UNL     1     -16.701   2.976  23.127  0.00  0.00    +0.185 C 
ENDROOT
BRANCH  12   6
ATOM      6  N   UNL     1     -17.552   3.988  25.168  0.00  0.00    -0.306 N 
ATOM      7  N   UNL     1     -16.750   3.158  27.211  0.00  0.00    -0.214 NA
ATOM      8  N   UNL     1     -18.927   4.181  27.060  0.00  0.00    -0.223 NA
ATOM     22  C   UNL     1     -17.749   3.769  26.520  0.00  0.00    +0.216 A 
ATOM     23  C   UNL     1     -16.975   2.959  28.526  0.00  0.00    +0.076 A 
ATOM     24  C   UNL     1     -19.085   3.951  28.380  0.00  0.00    +0.116 A 
ATOM     25  C   UNL     1     -18.134   3.338  29.171  0.00  0.00    +0.048 A 
ATOM     33  H   UNL     1     -18.281   4.492  24.675  0.00  0.00    +0.149 HD
BRANCH  23  26
ATOM      1  F   UNL     1     -12.721   3.140  30.805  0.00  0.00    -0.205 F 
ATOM     26  C   UNL     1     -15.903   2.310  29.240  0.00  0.00    +0.003 A 
ATOM     27  C   UNL     1     -14.807   3.053  29.687  0.00  0.00    +0.048 A 
ATOM     28  C   UNL     1     -15.956   0.936  29.488  0.00  0.00    +0.010 A 
ATOM     29  C   UNL     1     -13.770   2.425  30.377  0.00  0.00    +0.124 A 
ATOM     30  C   UNL     1     -14.918   0.309  30.178  0.00  0.00    +0.003 A 
ATOM     31  C   UNL     1     -13.826   1.053  30.623  0.00  0.00    +0.038 A 
ENDBRANCH  23  26
ENDBRANCH  12   6
BRANCH  11   5
ATOM      4  O   UNL     1     -13.573   7.326  19.997  0.00  0.00    -0.276 OA
ATOM      5  N   UNL     1     -14.646   7.002  22.037  0.00  0.00    -0.307 N 
ATOM     16  C   UNL     1     -13.975   7.744  21.079  0.00  0.00    +0.216 C 
ATOM     32  H   UNL     1     -14.991   7.471  22.871  0.00  0.00    +0.149 HD
BRANCH  16  15
ATOM     15  C   UNL     1     -13.797   9.177  21.488  0.00  0.00    +0.075 C 
ATOM     17  C   UNL     1     -14.032   9.321  22.994  0.00  0.00    +0.013 C 
ATOM     18  C   UNL     1     -12.402   9.663  21.090  0.00  0.00    +0.013 C 
ATOM     19  C   UNL     1     -13.769  10.747  23.471  0.00  0.00    +0.001 C 
ATOM     20  C   UNL     1     -12.142  11.088  21.572  0.00  0.00    +0.001 C 
ATOM     21  C   UNL     1     -12.376  11.226  23.073  0.00  0.00    +0.000 C 
ENDBRANCH  16  15
ENDBRANCH  11   5
TORSDOF 4
ENDMDL
MODEL 6
REMARK VINA RESULT:      -7.1     28.314     32.211
REMARK  Name = 11941298
REMARK  4 active torsions:
REMARK  status: ('A' for Active; 'I' for Inactive)
REMARK    1  A    between atoms: N_5  and  C_11
REMARK    2  A    between atoms: N_6  and  C_12
REMARK    3  A    between atoms: C_15  and  C_16
REMARK    4  A    between atoms: C_23  and  C_26
REMARK                            x       y       z     vdW  Elec       q    Type
REMARK                         _______ _______ _______ _____ _____    ______ ____
ROOT
ATOM      2  O   UNL     1      13.363  13.105  23.904  0.00  0.00    -0.370 OA
ATOM      3  O   UNL     1      10.463  13.086  25.053  0.00  0.00    -0.370 OA
ATOM      9  C   UNL     1      11.700  12.501  25.492  0.00  0.00    +0.171 C 
ATOM     10  C   UNL     1      12.451  12.051  24.254  0.00  0.00    +0.171 C 
ATOM     11  C   UNL     1      12.594  13.556  26.102  0.00  0.00    +0.130 C 
ATOM     12  C   UNL     1      11.378  11.915  23.199  0.00  0.00    +0.130 C 
ATOM     13  C   UNL     1      13.273  14.151  24.883  0.00  0.00    +0.185 C 
ATOM     14  C   UNL     1      10.357  12.954  23.627  0.00  0.00    +0.185 C 
ENDROOT
BRANCH  12   6
ATOM      6  N   UNL     1      10.797  10.591  23.252  0.00  0.00    -0.306 N 
ATOM      7  N   UNL     1      11.759   9.970  21.203  0.00  0.00    -0.214 NA
ATOM      8  N   UNL     1      10.384   8.427  22.445  0.00  0.00    -0.223 NA
ATOM     22  C   UNL     1      10.985   9.634  22.271  0.00  0.00    +0.216 A 
ATOM     23  C   UNL     1      11.920   9.013  20.265  0.00  0.00    +0.076 A 
ATOM     24  C   UNL     1      10.588   7.518  21.468  0.00  0.00    +0.116 A 
ATOM     25  C   UNL     1      11.354   7.758  20.346  0.00  0.00    +0.048 A 
ATOM     33  H   UNL     1      10.264  10.313  24.068  0.00  0.00    +0.149 HD
BRANCH  23  26
ATOM      1  F   UNL     1      14.337   7.861  16.247  0.00  0.00    -0.205 F 
ATOM     26  C   UNL     1      12.744   9.389  19.142  0.00  0.00    +0.003 A 
ATOM     27  C   UNL     1      13.152   8.425  18.218  0.00  0.00    +0.048 A 
ATOM     28  C   UNL     1      13.137  10.720  18.975  0.00  0.00    +0.010 A 
ATOM     29  C   UNL     1      13.948   8.788  17.132  0.00  0.00    +0.124 A 
ATOM     30  C   UNL     1      13.933  11.082  17.888  0.00  0.00    +0.003 A 
ATOM     31  C   UNL     1      14.339  10.117  16.968  0.00  0.00    +0.038 A 
ENDBRANCH  23  26
ENDBRANCH  12   6
BRANCH  11   5
ATOM      4  O   UNL     1      14.097  14.893  28.197  0.00  0.00    -0.276 OA
ATOM      5  N   UNL     1      13.555  12.969  27.003  0.00  0.00    -0.307 N 
ATOM     16  C   UNL     1      14.227  13.692  27.976  0.00  0.00    +0.216 C 
ATOM     32  H   UNL     1      13.694  11.963  26.954  0.00  0.00    +0.149 HD
BRANCH  16  15
ATOM     15  C   UNL     1      15.150  12.833  28.790  0.00  0.00    +0.075 C 
ATOM     17  C   UNL     1      14.474  12.444  30.106  0.00  0.00    +0.013 C 
ATOM     18  C   UNL     1      15.559  11.598  27.983  0.00  0.00    +0.013 C 
ATOM     19  C   UNL     1      15.341  11.491  30.925  0.00  0.00    +0.001 C 
ATOM     20  C   UNL     1      16.423  10.647  28.807  0.00  0.00    +0.001 C 
ATOM     21  C   UNL     1      15.744  10.261  30.117  0.00  0.00    +0.000 C 
ENDBRANCH  16  15
ENDBRANCH  11   5
TORSDOF 4
ENDMDL
MODEL 7
REMARK VINA RESULT:      -7.1      3.235     10.339
REMARK  Name = 11941298
REMARK  4 active torsions:
REMARK  status: ('A' for Active; 'I' for Inactive)
REMARK    1  A    between atoms: N_5  and  C_11
REMARK    2  A    between atoms: N_6  and  C_12
REMARK    3  A    between atoms: C_15  and  C_16
REMARK    4  A    between atoms: C_23  and  C_26
REMARK                            x       y       z     vdW  Elec       q    Type
REMARK                         _______ _______ _______ _____ _____    ______ ____
ROOT
ATOM      2  O   UNL     1      -4.814 -12.280  12.149  0.00  0.00    -0.370 OA
ATOM      3  O   UNL     1      -3.309  -9.758  11.098  0.00  0.00    -0.370 OA
ATOM      9  C   UNL     1      -4.243  -9.972  12.169  0.00  0.00    +0.171 C 
ATOM     10  C   UNL     1      -5.255 -10.993  11.688  0.00  0.00    +0.171 C 
ATOM     11  C   UNL     1      -3.560 -10.651  13.334  0.00  0.00    +0.130 C 
ATOM     12  C   UNL     1      -5.169 -10.918  10.182  0.00  0.00    +0.130 C 
ATOM     13  C   UNL     1      -3.628 -12.116  12.942  0.00  0.00    +0.185 C 
ATOM     14  C   UNL     1      -3.724 -10.515   9.951  0.00  0.00    +0.185 C 
ENDROOT
BRANCH  12   6
ATOM      6  N   UNL     1      -6.059  -9.892   9.684  0.00  0.00    -0.306 N 
ATOM      7  N   UNL     1      -5.755 -10.555   7.454  0.00  0.00    -0.214 NA
ATOM      8  N   UNL     1      -7.205  -8.712   8.011  0.00  0.00    -0.223 NA
ATOM     22  C   UNL     1      -6.348  -9.715   8.343  0.00  0.00    +0.216 A 
ATOM     23  C   UNL     1      -6.058 -10.354   6.155  0.00  0.00    +0.076 A 
ATOM     24  C   UNL     1      -7.464  -8.568   6.694  0.00  0.00    +0.116 A 
ATOM     25  C   UNL     1      -6.914  -9.366   5.712  0.00  0.00    +0.048 A 
ATOM     33  H   UNL     1      -6.548  -9.295  10.342  0.00  0.00    +0.149 HD
BRANCH  23  26
ATOM      1  F   UNL     1      -2.323 -13.144   4.900  0.00  0.00    -0.205 F 
ATOM     26  C   UNL     1      -5.418 -11.256   5.229  0.00  0.00    +0.003 A 
ATOM     27  C   UNL     1      -4.154 -11.776   5.516  0.00  0.00    +0.048 A 
ATOM     28  C   UNL     1      -6.061 -11.614   4.041  0.00  0.00    +0.010 A 
ATOM     29  C   UNL     1      -3.535 -12.648   4.621  0.00  0.00    +0.124 A 
ATOM     30  C   UNL     1      -5.442 -12.487   3.147  0.00  0.00    +0.003 A 
ATOM     31  C   UNL     1      -4.179 -13.003   3.436  0.00  0.00    +0.038 A 
ENDBRANCH  23  26
ENDBRANCH  12   6
BRANCH  11   5
ATOM      4  O   UNL     1      -2.523 -10.879  16.037  0.00  0.00    -0.276 OA
ATOM      5  N   UNL     1      -4.266 -10.407  14.568  0.00  0.00    -0.307 N 
ATOM     16  C   UNL     1      -3.684 -10.543  15.818  0.00  0.00    +0.216 C 
ATOM     32  H   UNL     1      -5.219 -10.057  14.505  0.00  0.00    +0.149 HD
BRANCH  16  15
ATOM     15  C   UNL     1      -4.632 -10.204  16.930  0.00  0.00    +0.075 C 
ATOM     17  C   UNL     1      -6.049 -10.040  16.374  0.00  0.00    +0.013 C 
ATOM     18  C   UNL     1      -4.576 -11.285  18.012  0.00  0.00    +0.013 C 
ATOM     19  C   UNL     1      -7.065  -9.788  17.485  0.00  0.00    +0.001 C 
ATOM     20  C   UNL     1      -5.595 -11.029  19.119  0.00  0.00    +0.001 C 
ATOM     21  C   UNL     1      -7.006 -10.870  18.559  0.00  0.00    +0.000 C 
ENDBRANCH  16  15
ENDBRANCH  11   5
TORSDOF 4
ENDMDL
MODEL 8
REMARK VINA RESULT:      -7.0     22.445     25.828
REMARK  Name = 11941298
REMARK  4 active torsions:
REMARK  status: ('A' for Active; 'I' for Inactive)
REMARK    1  A    between atoms: N_5  and  C_11
REMARK    2  A    between atoms: N_6  and  C_12
REMARK    3  A    between atoms: C_15  and  C_16
REMARK    4  A    between atoms: C_23  and  C_26
REMARK                            x       y       z     vdW  Elec       q    Type
REMARK                         _______ _______ _______ _____ _____    ______ ____
ROOT
ATOM      2  O   UNL     1     -17.168   5.015  25.290  0.00  0.00    -0.370 OA
ATOM      3  O   UNL     1     -16.238   2.198  24.324  0.00  0.00    -0.370 OA
ATOM      9  C   UNL     1     -15.725   3.125  25.294  0.00  0.00    +0.171 C 
ATOM     10  C   UNL     1     -15.935   4.521  24.741  0.00  0.00    +0.171 C 
ATOM     11  C   UNL     1     -16.569   3.095  26.549  0.00  0.00    +0.130 C 
ATOM     12  C   UNL     1     -16.072   4.312  23.252  0.00  0.00    +0.130 C 
ATOM     13  C   UNL     1     -17.702   4.042  26.200  0.00  0.00    +0.185 C 
ATOM     14  C   UNL     1     -16.678   2.923  23.165  0.00  0.00    +0.185 C 
ENDROOT
BRANCH  12   6
ATOM      6  N   UNL     1     -14.767   4.328  22.628  0.00  0.00    -0.306 N 
ATOM      7  N   UNL     1     -14.801   6.660  22.365  0.00  0.00    -0.214 NA
ATOM      8  N   UNL     1     -12.912   5.358  21.624  0.00  0.00    -0.223 NA
ATOM     22  C   UNL     1     -14.142   5.483  22.193  0.00  0.00    +0.216 A 
ATOM     23  C   UNL     1     -14.163   7.766  21.929  0.00  0.00    +0.076 A 
ATOM     24  C   UNL     1     -12.332   6.505  21.211  0.00  0.00    +0.116 A 
ATOM     25  C   UNL     1     -12.916   7.749  21.339  0.00  0.00    +0.048 A 
ATOM     33  H   UNL     1     -14.244   3.464  22.543  0.00  0.00    +0.149 HD
BRANCH  23  26
ATOM      1  F   UNL     1     -16.017  11.146  24.836  0.00  0.00    -0.205 F 
ATOM     26  C   UNL     1     -14.880   9.003  22.121  0.00  0.00    +0.003 A 
ATOM     27  C   UNL     1     -15.108   9.488  23.412  0.00  0.00    +0.048 A 
ATOM     28  C   UNL     1     -15.348   9.721  21.018  0.00  0.00    +0.010 A 
ATOM     29  C   UNL     1     -15.801  10.684  23.598  0.00  0.00    +0.124 A 
ATOM     30  C   UNL     1     -16.041  10.917  21.206  0.00  0.00    +0.003 A 
ATOM     31  C   UNL     1     -16.268  11.398  22.495  0.00  0.00    +0.038 A 
ENDBRANCH  23  26
ENDBRANCH  12   6
BRANCH  11   5
ATOM      4  O   UNL     1     -15.691   1.551  28.847  0.00  0.00    -0.276 OA
ATOM      5  N   UNL     1     -15.825   3.568  27.690  0.00  0.00    -0.307 N 
ATOM     16  C   UNL     1     -15.449   2.751  28.745  0.00  0.00    +0.216 C 
ATOM     32  H   UNL     1     -15.511   4.535  27.681  0.00  0.00    +0.149 HD
BRANCH  16  15
ATOM     15  C   UNL     1     -14.663   3.490  29.787  0.00  0.00    +0.075 C 
ATOM     17  C   UNL     1     -15.610   4.297  30.678  0.00  0.00    +0.013 C 
ATOM     18  C   UNL     1     -13.827   2.504  30.607  0.00  0.00    +0.013 C 
ATOM     19  C   UNL     1     -14.862   4.992  31.813  0.00  0.00    +0.001 C 
ATOM     20  C   UNL     1     -13.082   3.203  31.742  0.00  0.00    +0.001 C 
ATOM     21  C   UNL     1     -14.031   4.004  32.628  0.00  0.00    +0.000 C 
ENDBRANCH  16  15
ENDBRANCH  11   5
TORSDOF 4
ENDMDL
MODEL 9
REMARK VINA RESULT:      -7.0     22.259     25.290
REMARK  Name = 11941298
REMARK  4 active torsions:
REMARK  status: ('A' for Active; 'I' for Inactive)
REMARK    1  A    between atoms: N_5  and  C_11
REMARK    2  A    between atoms: N_6  and  C_12
REMARK    3  A    between atoms: C_15  and  C_16
REMARK    4  A    between atoms: C_23  and  C_26
REMARK                            x       y       z     vdW  Elec       q    Type
REMARK                         _______ _______ _______ _____ _____    ______ ____
ROOT
ATOM      2  O   UNL     1     -17.604   4.473  25.871  0.00  0.00    -0.370 OA
ATOM      3  O   UNL     1     -16.460   1.886  24.555  0.00  0.00    -0.370 OA
ATOM      9  C   UNL     1     -16.170   2.578  25.780  0.00  0.00    +0.171 C 
ATOM     10  C   UNL     1     -16.278   4.063  25.497  0.00  0.00    +0.171 C 
ATOM     11  C   UNL     1     -17.256   2.318  26.800  0.00  0.00    +0.130 C 
ATOM     12  C   UNL     1     -16.101   4.168  24.001  0.00  0.00    +0.130 C 
ATOM     13  C   UNL     1     -18.304   3.351  26.430  0.00  0.00    +0.185 C 
ATOM     14  C   UNL     1     -16.658   2.846  23.506  0.00  0.00    +0.185 C 
ENDROOT
BRANCH  12   6
ATOM      6  N   UNL     1     -14.695   4.271  23.675  0.00  0.00    -0.306 N 
ATOM      7  N   UNL     1     -15.089   5.857  21.992  0.00  0.00    -0.214 NA
ATOM      8  N   UNL     1     -12.852   5.105  22.486  0.00  0.00    -0.223 NA
ATOM     22  C   UNL     1     -14.197   5.102  22.688  0.00  0.00    +0.216 A 
ATOM     23  C   UNL     1     -14.570   6.656  21.036  0.00  0.00    +0.076 A 
ATOM     24  C   UNL     1     -12.402   5.928  21.515  0.00  0.00    +0.116 A 
ATOM     25  C   UNL     1     -13.222   6.733  20.751  0.00  0.00    +0.048 A 
ATOM     33  H   UNL     1     -14.017   3.754  24.224  0.00  0.00    +0.149 HD
BRANCH  23  26
ATOM      1  F   UNL     1     -18.725   9.109  20.860  0.00  0.00    -0.205 F 
ATOM     26  C   UNL     1     -15.532   7.448  20.310  0.00  0.00    +0.003 A 
ATOM     27  C   UNL     1     -16.688   7.906  20.948  0.00  0.00    +0.048 A 
ATOM     28  C   UNL     1     -15.313   7.760  18.966  0.00  0.00    +0.010 A 
ATOM     29  C   UNL     1     -17.618   8.672  20.245  0.00  0.00    +0.124 A 
ATOM     30  C   UNL     1     -16.244   8.525  18.264  0.00  0.00    +0.003 A 
ATOM     31  C   UNL     1     -17.396   8.981  18.904  0.00  0.00    +0.038 A 
ENDBRANCH  23  26
ENDBRANCH  12   6
BRANCH  11   5
ATOM      4  O   UNL     1     -15.848   0.412  28.480  0.00  0.00    -0.276 OA
ATOM      5  N   UNL     1     -16.771   2.523  28.143  0.00  0.00    -0.307 N 
ATOM     16  C   UNL     1     -16.106   1.547  28.869  0.00  0.00    +0.216 C 
ATOM     32  H   UNL     1     -16.870   3.452  28.544  0.00  0.00    +0.149 HD
BRANCH  16  15
ATOM     15  C   UNL     1     -15.689   2.032  30.227  0.00  0.00    +0.075 C 
ATOM     17  C   UNL     1     -15.127   0.867  31.045  0.00  0.00    +0.013 C 
ATOM     18  C   UNL     1     -14.666   3.162  30.085  0.00  0.00    +0.013 C 
ATOM     19  C   UNL     1     -14.602   1.333  32.401  0.00  0.00    +0.001 C 
ATOM     20  C   UNL     1     -14.142   3.622  31.443  0.00  0.00    +0.001 C 
ATOM     21  C   UNL     1     -13.581   2.457  32.254  0.00  0.00    +0.000 C 
ENDBRANCH  16  15
ENDBRANCH  11   5
TORSDOF 4
ENDMDL
MODEL 10
REMARK VINA RESULT:      -6.9     30.656     32.800
REMARK  Name = 11941298
REMARK  4 active torsions:
REMARK  status: ('A' for Active; 'I' for Inactive)
REMARK    1  A    between atoms: N_5  and  C_11
REMARK    2  A    between atoms: N_6  and  C_12
REMARK    3  A    between atoms: C_15  and  C_16
REMARK    4  A    between atoms: C_23  and  C_26
REMARK                            x       y       z     vdW  Elec       q    Type
REMARK                         _______ _______ _______ _____ _____    ______ ____
ROOT
ATOM      2  O   UNL     1      -7.293   8.638  37.049  0.00  0.00    -0.370 OA
ATOM      3  O   UNL     1      -6.787  11.668  37.596  0.00  0.00    -0.370 OA
ATOM      9  C   UNL     1      -7.079  10.917  36.406  0.00  0.00    +0.171 C 
ATOM     10  C   UNL     1      -6.355   9.590  36.519  0.00  0.00    +0.171 C 
ATOM     11  C   UNL     1      -8.542  10.537  36.370  0.00  0.00    +0.130 C 
ATOM     12  C   UNL     1      -5.255   9.853  37.519  0.00  0.00    +0.130 C 
ATOM     13  C   UNL     1      -8.570   9.273  37.210  0.00  0.00    +0.185 C 
ATOM     14  C   UNL     1      -5.859  10.928  38.405  0.00  0.00    +0.185 C 
ENDROOT
BRANCH  12   6
ATOM      6  N   UNL     1      -4.083  10.364  36.842  0.00  0.00    -0.306 N 
ATOM      7  N   UNL     1      -2.696   8.709  37.762  0.00  0.00    -0.214 NA
ATOM      8  N   UNL     1      -1.808  10.379  36.268  0.00  0.00    -0.223 NA
ATOM     22  C   UNL     1      -2.825   9.801  36.961  0.00  0.00    +0.216 A 
ATOM     23  C   UNL     1      -1.456   8.186  37.856  0.00  0.00    +0.076 A 
ATOM     24  C   UNL     1      -0.595   9.804  36.407  0.00  0.00    +0.116 A 
ATOM     25  C   UNL     1      -0.357   8.696  37.195  0.00  0.00    +0.048 A 
ATOM     33  H   UNL     1      -4.177  11.143  36.201  0.00  0.00    +0.149 HD
BRANCH  23  26
ATOM      1  F   UNL     1       1.054   4.405  39.505  0.00  0.00    -0.205 F 
ATOM     26  C   UNL     1      -1.342   7.029  38.710  0.00  0.00    +0.003 A 
ATOM     27  C   UNL     1      -0.176   6.259  38.696  0.00  0.00    +0.048 A 
ATOM     28  C   UNL     1      -2.396   6.674  39.555  0.00  0.00    +0.010 A 
ATOM     29  C   UNL     1      -0.065   5.141  39.522  0.00  0.00    +0.124 A 
ATOM     30  C   UNL     1      -2.285   5.555  40.381  0.00  0.00    +0.003 A 
ATOM     31  C   UNL     1      -1.120   4.789  40.364  0.00  0.00    +0.038 A 
ENDBRANCH  23  26
ENDBRANCH  12   6
BRANCH  11   5
ATOM      4  O   UNL     1      -9.541  12.463  34.439  0.00  0.00    -0.276 OA
ATOM      5  N   UNL     1      -8.982  10.279  35.021  0.00  0.00    -0.307 N 
ATOM     16  C   UNL     1      -9.445  11.269  34.168  0.00  0.00    +0.216 C 
ATOM     32  H   UNL     1      -8.884   9.331  34.666  0.00  0.00    +0.149 HD
BRANCH  16  15
ATOM     15  C   UNL     1      -9.813  10.732  32.817  0.00  0.00    +0.075 C 
ATOM     17  C   UNL     1     -10.709   9.501  32.971  0.00  0.00    +0.013 C 
ATOM     18  C   UNL     1     -10.498  11.823  31.991  0.00  0.00    +0.013 C 
ATOM     19  C   UNL     1     -11.186   8.977  31.619  0.00  0.00    +0.001 C 
ATOM     20  C   UNL     1     -10.975  11.294  30.641  0.00  0.00    +0.001 C 
ATOM     21  C   UNL     1     -11.869  10.068  30.801  0.00  0.00    +0.000 C 
ENDBRANCH  16  15
ENDBRANCH  11   5
TORSDOF 4
ENDMDL
