MODEL 1
REMARK VINA RESULT:      -7.3      0.000      0.000
REMARK  Name = 40777397
REMARK  5 active torsions:
REMARK  status: ('A' for Active; 'I' for Inactive)
REMARK    1  A    between atoms: C_8  and  C_12
REMARK    2  A    between atoms: C_9  and  C_14
REMARK    3  A    between atoms: C_12  and  C_15
REMARK    4  A    between atoms: C_14  and  C_16
REMARK    5  A    between atoms: C_23  and  C_25
REMARK                            x       y       z     vdW  Elec       q    Type
REMARK                         _______ _______ _______ _____ _____    ______ ____
ROOT
ATOM      3  N   UNL     1      15.539   3.685   1.475  0.00  0.00    -0.316 NA
ATOM      8  C   UNL     1      13.337   4.606  -0.261  0.00  0.00    +0.004 C 
ATOM      9  C   UNL     1      13.129   4.225   1.224  0.00  0.00    +0.012 C 
ATOM     10  C   UNL     1      14.804   5.017  -0.472  0.00  0.00    +0.019 C 
ATOM     11  C   UNL     1      14.176   3.206   1.703  0.00  0.00    +0.085 C 
ATOM     13  C   UNL     1      15.785   3.975   0.063  0.00  0.00    +0.081 C 
ATOM     34  H   UNL     1      16.203   2.981   1.795  0.00  0.00    +0.122 HD
ENDROOT
BRANCH   8  12
ATOM     12  C   UNL     1      12.932   3.506  -1.249  0.00  0.00    +0.100 C 
BRANCH  12  15
ATOM      1  O   UNL     1      13.505   4.092  -3.478  0.00  0.00    -0.276 OA
ATOM      4  N   UNL     1      11.368   4.664  -2.765  0.00  0.00    -0.298 N 
ATOM      5  N   UNL     1       8.696   5.647  -3.286  0.00  0.00    -0.312 N 
ATOM      7  N   UNL     1       6.892   7.089  -2.791  0.00  0.00    -0.240 NA
ATOM     15  C   UNL     1      12.638   4.108  -2.601  0.00  0.00    +0.216 C 
ATOM     17  C   UNL     1      11.008   5.271  -4.043  0.00  0.00    +0.126 C 
ATOM     18  C   UNL     1      10.336   4.673  -1.726  0.00  0.00    +0.126 C 
ATOM     19  C   UNL     1       9.525   5.096  -4.361  0.00  0.00    +0.125 C 
ATOM     20  C   UNL     1       9.283   5.758  -1.948  0.00  0.00    +0.125 C 
ATOM     22  C   UNL     1       7.398   6.085  -3.542  0.00  0.00    +0.121 A 
ATOM     24  C   UNL     1       6.705   5.453  -4.561  0.00  0.00    +0.043 A 
ATOM     26  C   UNL     1       5.409   5.880  -4.828  0.00  0.00    +0.005 A 
ATOM     27  C   UNL     1       5.630   7.476  -3.079  0.00  0.00    +0.113 A 
ATOM     30  C   UNL     1       4.853   6.909  -4.077  0.00  0.00    +0.020 A 
ENDBRANCH  12  15
ENDBRANCH   8  12
BRANCH   9  14
ATOM     14  C   UNL     1      11.715   3.722   1.521  0.00  0.00    +0.064 C 
BRANCH  14  16
ATOM      2  O   UNL     1       9.824   6.322   3.144  0.00  0.00    -0.354 OA
ATOM      6  N   UNL     1      10.367   5.717   2.016  0.00  0.00    -0.083 NA
ATOM     16  C   UNL     1      11.000   4.634   2.476  0.00  0.00    +0.085 A 
ATOM     21  C   UNL     1      10.892   4.505   3.872  0.00  0.00    +0.076 A 
ATOM     23  C   UNL     1      10.143   5.591   4.242  0.00  0.00    +0.167 A 
BRANCH  23  25
ATOM     25  C   UNL     1       9.649   6.096   5.490  0.00  0.00    +0.020 A 
ATOM     28  C   UNL     1       8.776   7.183   5.506  0.00  0.00    +0.011 A 
ATOM     29  C   UNL     1      10.041   5.498   6.688  0.00  0.00    +0.011 A 
ATOM     31  C   UNL     1       8.295   7.674   6.720  0.00  0.00    +0.001 A 
ATOM     32  C   UNL     1       9.561   5.989   7.902  0.00  0.00    +0.001 A 
ATOM     33  C   UNL     1       8.688   7.077   7.919  0.00  0.00    +0.000 A 
ENDBRANCH  23  25
ENDBRANCH  14  16
ENDBRANCH   9  14
TORSDOF 5
ENDMDL
MODEL 2
REMARK VINA RESULT:      -7.2     24.065     26.190
REMARK  Name = 40777397
REMARK  5 active torsions:
REMARK  status: ('A' for Active; 'I' for Inactive)
REMARK    1  A    between atoms: C_8  and  C_12
REMARK    2  A    between atoms: C_9  and  C_14
REMARK    3  A    between atoms: C_12  and  C_15
REMARK    4  A    between atoms: C_14  and  C_16
REMARK    5  A    between atoms: C_23  and  C_25
REMARK                            x       y       z     vdW  Elec       q    Type
REMARK                         _______ _______ _______ _____ _____    ______ ____
ROOT
ATOM      3  N   UNL     1      -4.181 -14.020  15.759  0.00  0.00    -0.316 NA
ATOM      8  C   UNL     1      -2.969 -11.716  14.369  0.00  0.00    +0.004 C 
ATOM      9  C   UNL     1      -3.305 -11.701  15.879  0.00  0.00    +0.012 C 
ATOM     10  C   UNL     1      -2.773 -13.172  13.914  0.00  0.00    +0.019 C 
ATOM     11  C   UNL     1      -4.459 -12.658  16.215  0.00  0.00    +0.085 C 
ATOM     13  C   UNL     1      -3.940 -14.072  14.317  0.00  0.00    +0.081 C 
ATOM     34  H   UNL     1      -4.971 -14.622  15.990  0.00  0.00    +0.122 HD
ENDROOT
BRANCH   8  12
ATOM     12  C   UNL     1      -4.007 -11.006  13.491  0.00  0.00    +0.100 C 
BRANCH  12  15
ATOM      1  O   UNL     1      -2.102 -10.290  12.269  0.00  0.00    -0.276 OA
ATOM      4  N   UNL     1      -4.174  -9.921  11.283  0.00  0.00    -0.298 N 
ATOM      5  N   UNL     1      -5.809  -9.137   9.026  0.00  0.00    -0.312 N 
ATOM      7  N   UNL     1      -7.565  -7.867   8.090  0.00  0.00    -0.240 NA
ATOM     15  C   UNL     1      -3.332 -10.378  12.297  0.00  0.00    +0.216 C 
ATOM     17  C   UNL     1      -3.597  -9.295  10.095  0.00  0.00    +0.126 C 
ATOM     18  C   UNL     1      -5.634 -10.035  11.314  0.00  0.00    +0.126 C 
ATOM     19  C   UNL     1      -4.423  -9.578   8.843  0.00  0.00    +0.125 C 
ATOM     20  C   UNL     1      -6.326  -9.031  10.392  0.00  0.00    +0.125 C 
ATOM     22  C   UNL     1      -6.597  -8.797   7.929  0.00  0.00    +0.121 A 
ATOM     24  C   UNL     1      -6.333  -9.442   6.732  0.00  0.00    +0.043 A 
ATOM     26  C   UNL     1      -7.112  -9.113   5.629  0.00  0.00    +0.005 A 
ATOM     27  C   UNL     1      -8.302  -7.572   6.996  0.00  0.00    +0.113 A 
ATOM     30  C   UNL     1      -8.117  -8.161   5.755  0.00  0.00    +0.020 A 
ENDBRANCH  12  15
ENDBRANCH   8  12
BRANCH   9  14
ATOM     14  C   UNL     1      -3.599 -10.297  16.412  0.00  0.00    +0.064 C 
BRANCH  14  16
ATOM      2  O   UNL     1      -6.414 -10.476  18.651  0.00  0.00    -0.354 OA
ATOM      6  N   UNL     1      -5.072 -10.670  18.343  0.00  0.00    -0.083 NA
ATOM     16  C   UNL     1      -4.939 -10.238  17.087  0.00  0.00    +0.085 A 
ATOM     21  C   UNL     1      -6.150  -9.764  16.554  0.00  0.00    +0.076 A 
ATOM     23  C   UNL     1      -7.045  -9.935  17.578  0.00  0.00    +0.167 A 
BRANCH  23  25
ATOM     25  C   UNL     1      -8.445  -9.675  17.745  0.00  0.00    +0.020 A 
ATOM     28  C   UNL     1      -9.215 -10.502  18.562  0.00  0.00    +0.011 A 
ATOM     29  C   UNL     1      -9.037  -8.594  17.091  0.00  0.00    +0.011 A 
ATOM     31  C   UNL     1     -10.577 -10.249  18.725  0.00  0.00    +0.001 A 
ATOM     32  C   UNL     1     -10.399  -8.341  17.254  0.00  0.00    +0.001 A 
ATOM     33  C   UNL     1     -11.170  -9.169  18.071  0.00  0.00    +0.000 A 
ENDBRANCH  23  25
ENDBRANCH  14  16
ENDBRANCH   9  14
TORSDOF 5
ENDMDL
MODEL 3
REMARK VINA RESULT:      -7.1     26.230     29.775
REMARK  Name = 40777397
REMARK  5 active torsions:
REMARK  status: ('A' for Active; 'I' for Inactive)
REMARK    1  A    between atoms: C_8  and  C_12
REMARK    2  A    between atoms: C_9  and  C_14
REMARK    3  A    between atoms: C_12  and  C_15
REMARK    4  A    between atoms: C_14  and  C_16
REMARK    5  A    between atoms: C_23  and  C_25
REMARK                            x       y       z     vdW  Elec       q    Type
REMARK                         _______ _______ _______ _____ _____    ______ ____
ROOT
ATOM      3  N   UNL     1     -12.988 -10.748  18.736  0.00  0.00    -0.316 NA
ATOM      8  C   UNL     1     -10.138  -9.984  18.720  0.00  0.00    +0.004 C 
ATOM      9  C   UNL     1     -11.160  -9.424  17.703  0.00  0.00    +0.012 C 
ATOM     10  C   UNL     1     -10.884 -10.424  19.990  0.00  0.00    +0.019 C 
ATOM     11  C   UNL     1     -12.330 -10.395  17.478  0.00  0.00    +0.085 C 
ATOM     13  C   UNL     1     -12.056 -11.356  19.685  0.00  0.00    +0.081 C 
ATOM     34  H   UNL     1     -13.750 -11.400  18.548  0.00  0.00    +0.122 HD
ENDROOT
BRANCH   8  12
ATOM     12  C   UNL     1      -9.274 -11.126  18.171  0.00  0.00    +0.100 C 
BRANCH  12  15
ATOM      1  O   UNL     1      -7.550 -10.772  19.765  0.00  0.00    -0.276 OA
ATOM      4  N   UNL     1      -6.899 -10.921  17.540  0.00  0.00    -0.298 N 
ATOM      5  N   UNL     1      -4.854 -11.112  15.500  0.00  0.00    -0.312 N 
ATOM      7  N   UNL     1      -3.881 -10.383  13.475  0.00  0.00    -0.240 NA
ATOM     15  C   UNL     1      -7.834 -10.925  18.575  0.00  0.00    +0.216 C 
ATOM     17  C   UNL     1      -5.484 -10.728  17.848  0.00  0.00    +0.126 C 
ATOM     18  C   UNL     1      -7.236 -11.114  16.127  0.00  0.00    +0.126 C 
ATOM     19  C   UNL     1      -4.580 -11.496  16.887  0.00  0.00    +0.125 C 
ATOM     20  C   UNL     1      -6.172 -10.557  15.183  0.00  0.00    +0.125 C 
ATOM     22  C   UNL     1      -3.873 -11.242  14.520  0.00  0.00    +0.121 A 
ATOM     24  C   UNL     1      -2.942 -12.256  14.682  0.00  0.00    +0.043 A 
ATOM     26  C   UNL     1      -1.957 -12.397  13.712  0.00  0.00    +0.005 A 
ATOM     27  C   UNL     1      -2.908 -10.551  12.552  0.00  0.00    +0.113 A 
ATOM     30  C   UNL     1      -1.933 -11.533  12.623  0.00  0.00    +0.020 A 
ENDBRANCH  12  15
ENDBRANCH   8  12
BRANCH   9  14
ATOM     14  C   UNL     1     -10.524  -9.031  16.368  0.00  0.00    +0.064 C 
BRANCH  14  16
ATOM      2  O   UNL     1     -11.548  -5.629  15.784  0.00  0.00    -0.354 OA
ATOM      6  N   UNL     1     -10.903  -6.609  16.530  0.00  0.00    -0.083 NA
ATOM     16  C   UNL     1     -11.092  -7.742  15.849  0.00  0.00    +0.085 A 
ATOM     21  C   UNL     1     -11.842  -7.542  14.677  0.00  0.00    +0.076 A 
ATOM     23  C   UNL     1     -12.103  -6.197  14.683  0.00  0.00    +0.167 A 
BRANCH  23  25
ATOM     25  C   UNL     1     -12.807  -5.304  13.810  0.00  0.00    +0.020 A 
ATOM     28  C   UNL     1     -12.099  -4.426  12.990  0.00  0.00    +0.011 A 
ATOM     29  C   UNL     1     -14.202  -5.313  13.782  0.00  0.00    +0.011 A 
ATOM     31  C   UNL     1     -12.785  -3.557  12.142  0.00  0.00    +0.001 A 
ATOM     32  C   UNL     1     -14.889  -4.444  12.934  0.00  0.00    +0.001 A 
ATOM     33  C   UNL     1     -14.180  -3.565  12.113  0.00  0.00    +0.000 A 
ENDBRANCH  23  25
ENDBRANCH  14  16
ENDBRANCH   9  14
TORSDOF 5
ENDMDL
MODEL 4
REMARK VINA RESULT:      -6.9      4.399      8.344
REMARK  Name = 40777397
REMARK  5 active torsions:
REMARK  status: ('A' for Active; 'I' for Inactive)
REMARK    1  A    between atoms: C_8  and  C_12
REMARK    2  A    between atoms: C_9  and  C_14
REMARK    3  A    between atoms: C_12  and  C_15
REMARK    4  A    between atoms: C_14  and  C_16
REMARK    5  A    between atoms: C_23  and  C_25
REMARK                            x       y       z     vdW  Elec       q    Type
REMARK                         _______ _______ _______ _____ _____    ______ ____
ROOT
ATOM      3  N   UNL     1       7.004   9.025  -2.237  0.00  0.00    -0.316 NA
ATOM      8  C   UNL     1       5.641   6.673  -3.385  0.00  0.00    +0.004 C 
ATOM      9  C   UNL     1       7.143   6.672  -3.014  0.00  0.00    +0.012 C 
ATOM     10  C   UNL     1       4.918   7.738  -2.543  0.00  0.00    +0.019 C 
ATOM     11  C   UNL     1       7.746   8.085  -3.076  0.00  0.00    +0.085 C 
ATOM     13  C   UNL     1       5.596   9.105  -2.623  0.00  0.00    +0.081 C 
ATOM     34  H   UNL     1       7.426   9.951  -2.312  0.00  0.00    +0.122 HD
ENDROOT
BRANCH   8  12
ATOM     12  C   UNL     1       5.368   6.882  -4.880  0.00  0.00    +0.100 C 
BRANCH  12  15
ATOM      1  O   UNL     1       3.393   8.178  -5.118  0.00  0.00    -0.276 OA
ATOM      4  N   UNL     1       3.160   5.874  -5.316  0.00  0.00    -0.298 N 
ATOM      5  N   UNL     1       1.592   3.526  -5.958  0.00  0.00    -0.312 N 
ATOM      7  N   UNL     1       0.772   1.379  -5.416  0.00  0.00    -0.240 NA
ATOM     15  C   UNL     1       3.887   7.048  -5.116  0.00  0.00    +0.216 C 
ATOM     17  C   UNL     1       1.719   5.950  -5.547  0.00  0.00    +0.126 C 
ATOM     18  C   UNL     1       3.750   4.534  -5.324  0.00  0.00    +0.126 C 
ATOM     19  C   UNL     1       1.231   4.846  -6.482  0.00  0.00    +0.125 C 
ATOM     20  C   UNL     1       2.727   3.435  -5.036  0.00  0.00    +0.125 C 
ATOM     22  C   UNL     1       0.852   2.398  -6.302  0.00  0.00    +0.121 A 
ATOM     24  C   UNL     1       0.238   2.395  -7.544  0.00  0.00    +0.043 A 
ATOM     26  C   UNL     1      -0.504   1.276  -7.901  0.00  0.00    +0.005 A 
ATOM     27  C   UNL     1       0.042   0.308  -5.798  0.00  0.00    +0.113 A 
ATOM     30  C   UNL     1      -0.609   0.208  -7.018  0.00  0.00    +0.020 A 
ENDBRANCH  12  15
ENDBRANCH   8  12
BRANCH   9  14
ATOM     14  C   UNL     1       7.967   5.698  -3.858  0.00  0.00    +0.064 C 
BRANCH  14  16
ATOM      2  O   UNL     1      10.274   3.345  -2.404  0.00  0.00    -0.354 OA
ATOM      6  N   UNL     1       9.371   3.737  -3.386  0.00  0.00    -0.083 NA
ATOM     16  C   UNL     1       8.964   4.954  -3.017  0.00  0.00    +0.085 A 
ATOM     21  C   UNL     1       9.570   5.380  -1.822  0.00  0.00    +0.076 A 
ATOM     23  C   UNL     1      10.384   4.332  -1.479  0.00  0.00    +0.167 A 
BRANCH  23  25
ATOM     25  C   UNL     1      11.287   4.071  -0.396  0.00  0.00    +0.020 A 
ATOM     28  C   UNL     1      12.591   3.657  -0.660  0.00  0.00    +0.011 A 
ATOM     29  C   UNL     1      10.859   4.232   0.923  0.00  0.00    +0.011 A 
ATOM     31  C   UNL     1      13.470   3.403   0.394  0.00  0.00    +0.001 A 
ATOM     32  C   UNL     1      11.736   3.978   1.977  0.00  0.00    +0.001 A 
ATOM     33  C   UNL     1      13.042   3.563   1.713  0.00  0.00    +0.000 A 
ENDBRANCH  23  25
ENDBRANCH  14  16
ENDBRANCH   9  14
TORSDOF 5
ENDMDL
MODEL 5
REMARK VINA RESULT:      -6.9     27.577     30.540
REMARK  Name = 40777397
REMARK  5 active torsions:
REMARK  status: ('A' for Active; 'I' for Inactive)
REMARK    1  A    between atoms: C_8  and  C_12
REMARK    2  A    between atoms: C_9  and  C_14
REMARK    3  A    between atoms: C_12  and  C_15
REMARK    4  A    between atoms: C_14  and  C_16
REMARK    5  A    between atoms: C_23  and  C_25
REMARK                            x       y       z     vdW  Elec       q    Type
REMARK                         _______ _______ _______ _____ _____    ______ ____
ROOT
ATOM      3  N   UNL     1     -13.082 -13.563  16.449  0.00  0.00    -0.316 NA
ATOM      8  C   UNL     1     -11.615 -11.009  16.628  0.00  0.00    +0.004 C 
ATOM      9  C   UNL     1     -11.391 -12.174  17.621  0.00  0.00    +0.012 C 
ATOM     10  C   UNL     1     -12.162 -11.575  15.307  0.00  0.00    +0.019 C 
ATOM     11  C   UNL     1     -12.641 -13.060  17.750  0.00  0.00    +0.085 C 
ATOM     13  C   UNL     1     -13.379 -12.475  15.518  0.00  0.00    +0.081 C 
ATOM     34  H   UNL     1     -13.917 -14.136  16.574  0.00  0.00    +0.122 HD
ENDROOT
BRANCH   8  12
ATOM     12  C   UNL     1     -12.525  -9.898  17.164  0.00  0.00    +0.100 C 
BRANCH  12  15
ATOM      1  O   UNL     1     -10.844  -8.387  17.891  0.00  0.00    -0.276 OA
ATOM      4  N   UNL     1     -12.280  -7.629  16.228  0.00  0.00    -0.298 N 
ATOM      5  N   UNL     1     -13.054  -5.675  14.238  0.00  0.00    -0.312 N 
ATOM      7  N   UNL     1     -14.665  -4.261  13.248  0.00  0.00    -0.240 NA
ATOM     15  C   UNL     1     -11.800  -8.575  17.134  0.00  0.00    +0.216 C 
ATOM     17  C   UNL     1     -11.634  -6.322  16.142  0.00  0.00    +0.126 C 
ATOM     18  C   UNL     1     -13.408  -7.858  15.323  0.00  0.00    +0.126 C 
ATOM     19  C   UNL     1     -11.674  -5.758  14.724  0.00  0.00    +0.125 C 
ATOM     20  C   UNL     1     -14.053  -6.560  14.841  0.00  0.00    +0.125 C 
ATOM     22  C   UNL     1     -13.406  -4.754  13.254  0.00  0.00    +0.121 A 
ATOM     24  C   UNL     1     -12.431  -4.402  12.335  0.00  0.00    +0.043 A 
ATOM     26  C   UNL     1     -12.769  -3.484  11.347  0.00  0.00    +0.005 A 
ATOM     27  C   UNL     1     -14.957  -3.371  12.273  0.00  0.00    +0.113 A 
ATOM     30  C   UNL     1     -14.054  -2.954  11.308  0.00  0.00    +0.020 A 
ENDBRANCH  12  15
ENDBRANCH   8  12
BRANCH   9  14
ATOM     14  C   UNL     1     -10.921 -11.704  18.999  0.00  0.00    +0.064 C 
BRANCH  14  16
ATOM      2  O   UNL     1      -7.514 -10.846  19.789  0.00  0.00    -0.354 OA
ATOM      6  N   UNL     1      -8.857 -10.983  20.121  0.00  0.00    -0.083 NA
ATOM     16  C   UNL     1      -9.443 -11.435  19.010  0.00  0.00    +0.085 A 
ATOM     21  C   UNL     1      -8.531 -11.602  17.954  0.00  0.00    +0.076 A 
ATOM     23  C   UNL     1      -7.332 -11.218  18.497  0.00  0.00    +0.167 A 
BRANCH  23  25
ATOM     25  C   UNL     1      -5.988 -11.130  18.008  0.00  0.00    +0.020 A 
ATOM     28  C   UNL     1      -4.931 -11.604  18.784  0.00  0.00    +0.011 A 
ATOM     29  C   UNL     1      -5.736 -10.571  16.754  0.00  0.00    +0.011 A 
ATOM     31  C   UNL     1      -3.622 -11.518  18.308  0.00  0.00    +0.001 A 
ATOM     32  C   UNL     1      -4.428 -10.484  16.278  0.00  0.00    +0.001 A 
ATOM     33  C   UNL     1      -3.370 -10.958  17.055  0.00  0.00    +0.000 A 
ENDBRANCH  23  25
ENDBRANCH  14  16
ENDBRANCH   9  14
TORSDOF 5
ENDMDL
MODEL 6
REMARK VINA RESULT:      -6.9     15.758     20.308
REMARK  Name = 40777397
REMARK  5 active torsions:
REMARK  status: ('A' for Active; 'I' for Inactive)
REMARK    1  A    between atoms: C_8  and  C_12
REMARK    2  A    between atoms: C_9  and  C_14
REMARK    3  A    between atoms: C_12  and  C_15
REMARK    4  A    between atoms: C_14  and  C_16
REMARK    5  A    between atoms: C_23  and  C_25
REMARK                            x       y       z     vdW  Elec       q    Type
REMARK                         _______ _______ _______ _____ _____    ______ ____
ROOT
ATOM      3  N   UNL     1      12.008   9.512  22.946  0.00  0.00    -0.316 NA
ATOM      8  C   UNL     1      12.019  11.276  20.581  0.00  0.00    +0.004 C 
ATOM      9  C   UNL     1      11.930   9.735  20.475  0.00  0.00    +0.012 C 
ATOM     10  C   UNL     1      11.490  11.715  21.957  0.00  0.00    +0.019 C 
ATOM     11  C   UNL     1      12.581   9.043  21.684  0.00  0.00    +0.085 C 
ATOM     13  C   UNL     1      12.153  10.958  23.106  0.00  0.00    +0.081 C 
ATOM     34  H   UNL     1      12.470   9.039  23.723  0.00  0.00    +0.122 HD
ENDROOT
BRANCH   8  12
ATOM     12  C   UNL     1      13.424  11.839  20.332  0.00  0.00    +0.100 C 
BRANCH  12  15
ATOM      1  O   UNL     1      12.867  14.103  19.881  0.00  0.00    -0.276 OA
ATOM      4  N   UNL     1      13.823  12.897  18.140  0.00  0.00    -0.298 N 
ATOM      5  N   UNL     1      14.986  12.747  15.493  0.00  0.00    -0.312 N 
ATOM      7  N   UNL     1      15.110  11.779  13.343  0.00  0.00    -0.240 NA
ATOM     15  C   UNL     1      13.343  13.054  19.441  0.00  0.00    +0.216 C 
ATOM     17  C   UNL     1      13.775  14.025  17.214  0.00  0.00    +0.126 C 
ATOM     18  C   UNL     1      14.397  11.653  17.621  0.00  0.00    +0.126 C 
ATOM     19  C   UNL     1      14.947  14.010  16.235  0.00  0.00    +0.125 C 
ATOM     20  C   UNL     1      14.352  11.572  16.096  0.00  0.00    +0.125 C 
ATOM     22  C   UNL     1      15.580  12.679  14.235  0.00  0.00    +0.121 A 
ATOM     24  C   UNL     1      16.627  13.550  13.980  0.00  0.00    +0.043 A 
ATOM     26  C   UNL     1      17.230  13.494  12.729  0.00  0.00    +0.005 A 
ATOM     27  C   UNL     1      15.720  11.753  12.137  0.00  0.00    +0.113 A 
ATOM     30  C   UNL     1      16.774  12.581  11.784  0.00  0.00    +0.020 A 
ENDBRANCH  12  15
ENDBRANCH   8  12
BRANCH   9  14
ATOM     14  C   UNL     1      12.510   9.190  19.168  0.00  0.00    +0.064 C 
BRANCH  14  16
ATOM      2  O   UNL     1      14.698   6.377  19.685  0.00  0.00    -0.354 OA
ATOM      6  N   UNL     1      13.454   6.935  19.415  0.00  0.00    -0.083 NA
ATOM     16  C   UNL     1      13.656   8.254  19.427  0.00  0.00    +0.085 A 
ATOM     21  C   UNL     1      14.995   8.588  19.696  0.00  0.00    +0.076 A 
ATOM     23  C   UNL     1      15.608   7.372  19.850  0.00  0.00    +0.167 A 
BRANCH  23  25
ATOM     25  C   UNL     1      16.947   6.948  20.136  0.00  0.00    +0.020 A 
ATOM     28  C   UNL     1      17.688   7.597  21.123  0.00  0.00    +0.011 A 
ATOM     29  C   UNL     1      17.509   5.885  19.428  0.00  0.00    +0.011 A 
ATOM     31  C   UNL     1      18.992   7.185  21.401  0.00  0.00    +0.001 A 
ATOM     32  C   UNL     1      18.812   5.472  19.706  0.00  0.00    +0.001 A 
ATOM     33  C   UNL     1      19.554   6.122  20.693  0.00  0.00    +0.000 A 
ENDBRANCH  23  25
ENDBRANCH  14  16
ENDBRANCH   9  14
TORSDOF 5
ENDMDL
MODEL 7
REMARK VINA RESULT:      -6.8     24.915     27.498
REMARK  Name = 40777397
REMARK  5 active torsions:
REMARK  status: ('A' for Active; 'I' for Inactive)
REMARK    1  A    between atoms: C_8  and  C_12
REMARK    2  A    between atoms: C_9  and  C_14
REMARK    3  A    between atoms: C_12  and  C_15
REMARK    4  A    between atoms: C_14  and  C_16
REMARK    5  A    between atoms: C_23  and  C_25
REMARK                            x       y       z     vdW  Elec       q    Type
REMARK                         _______ _______ _______ _____ _____    ______ ____
ROOT
ATOM      3  N   UNL     1      -6.866 -13.710  16.367  0.00  0.00    -0.316 NA
ATOM      8  C   UNL     1      -4.637 -11.851  16.901  0.00  0.00    +0.004 C 
ATOM      9  C   UNL     1      -5.859 -11.985  17.841  0.00  0.00    +0.012 C 
ATOM     10  C   UNL     1      -4.473 -13.155  16.103  0.00  0.00    +0.019 C 
ATOM     11  C   UNL     1      -7.111 -12.458  17.084  0.00  0.00    +0.085 C 
ATOM     13  C   UNL     1      -5.766 -13.583  15.411  0.00  0.00    +0.081 C 
ATOM     34  H   UNL     1      -7.713 -13.986  15.871  0.00  0.00    +0.122 HD
ENDROOT
BRANCH   8  12
ATOM     12  C   UNL     1      -4.705 -10.641  15.960  0.00  0.00    +0.100 C 
BRANCH  12  15
ATOM      1  O   UNL     1      -2.392 -10.765  15.437  0.00  0.00    -0.276 OA
ATOM      4  N   UNL     1      -3.858 -10.572  13.645  0.00  0.00    -0.298 N 
ATOM      5  N   UNL     1      -4.413 -10.599  10.804  0.00  0.00    -0.312 N 
ATOM      7  N   UNL     1      -5.355  -9.618   8.874  0.00  0.00    -0.240 NA
ATOM     15  C   UNL     1      -3.541 -10.668  15.000  0.00  0.00    +0.216 C 
ATOM     17  C   UNL     1      -2.787 -10.586  12.652  0.00  0.00    +0.126 C 
ATOM     18  C   UNL     1      -5.224 -10.468  13.127  0.00  0.00    +0.126 C 
ATOM     19  C   UNL     1      -3.222 -11.256  11.351  0.00  0.00    +0.125 C 
ATOM     20  C   UNL     1      -5.280  -9.861  11.725  0.00  0.00    +0.125 C 
ATOM     22  C   UNL     1      -4.688 -10.649   9.439  0.00  0.00    +0.121 A 
ATOM     24  C   UNL     1      -4.254 -11.767   8.744  0.00  0.00    +0.043 A 
ATOM     26  C   UNL     1      -4.522 -11.830   7.382  0.00  0.00    +0.005 A 
ATOM     27  C   UNL     1      -5.597  -9.715   7.547  0.00  0.00    +0.113 A 
ATOM     30  C   UNL     1      -5.206 -10.789   6.764  0.00  0.00    +0.020 A 
ENDBRANCH  12  15
ENDBRANCH   8  12
BRANCH   9  14
ATOM     14  C   UNL     1      -6.156 -10.704  18.623  0.00  0.00    +0.064 C 
BRANCH  14  16
ATOM      2  O   UNL     1      -9.699 -10.060  18.580  0.00  0.00    -0.354 OA
ATOM      6  N   UNL     1      -8.574 -10.717  19.064  0.00  0.00    -0.083 NA
ATOM     16  C   UNL     1      -7.553 -10.217  18.363  0.00  0.00    +0.085 A 
ATOM     21  C   UNL     1      -7.967  -9.251  17.431  0.00  0.00    +0.076 A 
ATOM     23  C   UNL     1      -9.325  -9.189  17.608  0.00  0.00    +0.167 A 
BRANCH  23  25
ATOM     25  C   UNL     1     -10.386  -8.432  17.009  0.00  0.00    +0.020 A 
ATOM     28  C   UNL     1     -11.703  -8.875  17.114  0.00  0.00    +0.011 A 
ATOM     29  C   UNL     1     -10.099  -7.252  16.323  0.00  0.00    +0.011 A 
ATOM     31  C   UNL     1     -12.735  -8.139  16.531  0.00  0.00    +0.001 A 
ATOM     32  C   UNL     1     -11.130  -6.516  15.739  0.00  0.00    +0.001 A 
ATOM     33  C   UNL     1     -12.449  -6.959  15.843  0.00  0.00    +0.000 A 
ENDBRANCH  23  25
ENDBRANCH  14  16
ENDBRANCH   9  14
TORSDOF 5
ENDMDL
MODEL 8
REMARK VINA RESULT:      -6.7     23.640     25.524
REMARK  Name = 40777397
REMARK  5 active torsions:
REMARK  status: ('A' for Active; 'I' for Inactive)
REMARK    1  A    between atoms: C_8  and  C_12
REMARK    2  A    between atoms: C_9  and  C_14
REMARK    3  A    between atoms: C_12  and  C_15
REMARK    4  A    between atoms: C_14  and  C_16
REMARK    5  A    between atoms: C_23  and  C_25
REMARK                            x       y       z     vdW  Elec       q    Type
REMARK                         _______ _______ _______ _____ _____    ______ ____
ROOT
ATOM      3  N   UNL     1      -3.389 -14.298  12.383  0.00  0.00    -0.316 NA
ATOM      8  C   UNL     1      -3.413 -11.771  10.860  0.00  0.00    +0.004 C 
ATOM      9  C   UNL     1      -2.546 -11.978  12.125  0.00  0.00    +0.012 C 
ATOM     10  C   UNL     1      -3.707 -13.140  10.225  0.00  0.00    +0.019 C 
ATOM     11  C   UNL     1      -3.157 -13.027  13.069  0.00  0.00    +0.085 C 
ATOM     13  C   UNL     1      -4.274 -14.141  11.230  0.00  0.00    +0.081 C 
ATOM     34  H   UNL     1      -3.802 -14.964  13.037  0.00  0.00    +0.122 HD
ENDROOT
BRANCH   8  12
ATOM     12  C   UNL     1      -4.713 -10.998  11.115  0.00  0.00    +0.100 C 
BRANCH  12  15
ATOM      1  O   UNL     1      -3.630  -9.184  10.032  0.00  0.00    -0.276 OA
ATOM      4  N   UNL     1      -5.953  -9.168  10.022  0.00  0.00    -0.298 N 
ATOM      5  N   UNL     1      -8.482  -8.082   9.122  0.00  0.00    -0.312 N 
ATOM      7  N   UNL     1     -10.642  -7.239   9.565  0.00  0.00    -0.240 NA
ATOM     15  C   UNL     1      -4.705  -9.704  10.340  0.00  0.00    +0.216 C 
ATOM     17  C   UNL     1      -6.031  -7.914   9.276  0.00  0.00    +0.126 C 
ATOM     18  C   UNL     1      -7.229  -9.792  10.379  0.00  0.00    +0.126 C 
ATOM     19  C   UNL     1      -7.249  -7.870   8.358  0.00  0.00    +0.125 C 
ATOM     20  C   UNL     1      -8.390  -8.797  10.397  0.00  0.00    +0.125 C 
ATOM     22  C   UNL     1      -9.698  -7.585   8.661  0.00  0.00    +0.121 A 
ATOM     24  C   UNL     1      -9.862  -7.477   7.290  0.00  0.00    +0.043 A 
ATOM     26  C   UNL     1     -11.071  -6.983   6.815  0.00  0.00    +0.005 A 
ATOM     27  C   UNL     1     -11.805  -6.762   9.067  0.00  0.00    +0.113 A 
ATOM     30  C   UNL     1     -12.066  -6.616   7.714  0.00  0.00    +0.020 A 
ENDBRANCH  12  15
ENDBRANCH   8  12
BRANCH   9  14
ATOM     14  C   UNL     1      -2.265 -10.676  12.878  0.00  0.00    +0.064 C 
BRANCH  14  16
ATOM      2  O   UNL     1      -2.319 -11.046  16.460  0.00  0.00    -0.354 OA
ATOM      6  N   UNL     1      -1.655 -10.973  15.240  0.00  0.00    -0.083 NA
ATOM     16  C   UNL     1      -2.619 -10.799  14.333  0.00  0.00    +0.085 A 
ATOM     21  C   UNL     1      -3.898 -10.754  14.913  0.00  0.00    +0.076 A 
ATOM     23  C   UNL     1      -3.653 -10.914  16.252  0.00  0.00    +0.167 A 
BRANCH  23  25
ATOM     25  C   UNL     1      -4.474 -10.969  17.427  0.00  0.00    +0.020 A 
ATOM     28  C   UNL     1      -4.080 -11.743  18.517  0.00  0.00    +0.011 A 
ATOM     29  C   UNL     1      -5.666 -10.246  17.479  0.00  0.00    +0.011 A 
ATOM     31  C   UNL     1      -4.879 -11.797  19.660  0.00  0.00    +0.001 A 
ATOM     32  C   UNL     1      -6.465 -10.299  18.621  0.00  0.00    +0.001 A 
ATOM     33  C   UNL     1      -6.072 -11.075  19.712  0.00  0.00    +0.000 A 
ENDBRANCH  23  25
ENDBRANCH  14  16
ENDBRANCH   9  14
TORSDOF 5
ENDMDL
MODEL 9
REMARK VINA RESULT:      -6.7      4.193      7.573
REMARK  Name = 40777397
REMARK  5 active torsions:
REMARK  status: ('A' for Active; 'I' for Inactive)
REMARK    1  A    between atoms: C_8  and  C_12
REMARK    2  A    between atoms: C_9  and  C_14
REMARK    3  A    between atoms: C_12  and  C_15
REMARK    4  A    between atoms: C_14  and  C_16
REMARK    5  A    between atoms: C_23  and  C_25
REMARK                            x       y       z     vdW  Elec       q    Type
REMARK                         _______ _______ _______ _____ _____    ______ ____
ROOT
ATOM      3  N   UNL     1       9.057   6.074   8.789  0.00  0.00    -0.316 NA
ATOM      8  C   UNL     1      11.080   6.851   6.786  0.00  0.00    +0.004 C 
ATOM      9  C   UNL     1      10.107   7.867   7.431  0.00  0.00    +0.012 C 
ATOM     10  C   UNL     1      11.248   5.649   7.731  0.00  0.00    +0.019 C 
ATOM     11  C   UNL     1       8.801   7.195   7.885  0.00  0.00    +0.085 C 
ATOM     13  C   UNL     1       9.909   5.060   8.170  0.00  0.00    +0.081 C 
ATOM     34  H   UNL     1       8.170   5.649   9.060  0.00  0.00    +0.122 HD
ENDROOT
BRANCH   8  12
ATOM     12  C   UNL     1      10.659   6.388   5.385  0.00  0.00    +0.100 C 
BRANCH  12  15
ATOM      1  O   UNL     1      12.797   7.215   4.764  0.00  0.00    -0.276 OA
ATOM      4  N   UNL     1      11.627   6.028   3.146  0.00  0.00    -0.298 N 
ATOM      5  N   UNL     1      11.475   4.729   0.562  0.00  0.00    -0.312 N 
ATOM      7  N   UNL     1      10.405   4.377  -1.513  0.00  0.00    -0.240 NA
ATOM     15  C   UNL     1      11.796   6.585   4.413  0.00  0.00    +0.216 C 
ATOM     17  C   UNL     1      12.681   6.179   2.145  0.00  0.00    +0.126 C 
ATOM     18  C   UNL     1      10.443   5.270   2.733  0.00  0.00    +0.126 C 
ATOM     19  C   UNL     1      12.764   4.970   1.216  0.00  0.00    +0.125 C 
ATOM     20  C   UNL     1      10.264   5.231   1.216  0.00  0.00    +0.125 C 
ATOM     22  C   UNL     1      11.412   4.072  -0.664  0.00  0.00    +0.121 A 
ATOM     24  C   UNL     1      12.398   3.138  -0.935  0.00  0.00    +0.043 A 
ATOM     26  C   UNL     1      12.348   2.474  -2.155  0.00  0.00    +0.005 A 
ATOM     27  C   UNL     1      10.388   3.711  -2.689  0.00  0.00    +0.113 A 
ATOM     30  C   UNL     1      11.327   2.760  -3.055  0.00  0.00    +0.020 A 
ENDBRANCH  12  15
ENDBRANCH   8  12
BRANCH   9  14
ATOM     14  C   UNL     1       9.809   9.066   6.529  0.00  0.00    +0.064 C 
BRANCH  14  16
ATOM      2  O   UNL     1       8.805  12.302   7.749  0.00  0.00    -0.354 OA
ATOM      6  N   UNL     1       9.011  11.382   6.728  0.00  0.00    -0.083 NA
ATOM     16  C   UNL     1       9.472  10.287   7.337  0.00  0.00    +0.085 A 
ATOM     21  C   UNL     1       9.576  10.453   8.728  0.00  0.00    +0.076 A 
ATOM     23  C   UNL     1       9.144  11.737   8.936  0.00  0.00    +0.167 A 
BRANCH  23  25
ATOM     25  C   UNL     1       8.984  12.572  10.090  0.00  0.00    +0.020 A 
ATOM     28  C   UNL     1       9.117  12.029  11.367  0.00  0.00    +0.011 A 
ATOM     29  C   UNL     1       8.695  13.928   9.936  0.00  0.00    +0.011 A 
ATOM     31  C   UNL     1       8.960  12.841  12.491  0.00  0.00    +0.001 A 
ATOM     32  C   UNL     1       8.538  14.741  11.058  0.00  0.00    +0.001 A 
ATOM     33  C   UNL     1       8.670  14.197  12.337  0.00  0.00    +0.000 A 
ENDBRANCH  23  25
ENDBRANCH  14  16
ENDBRANCH   9  14
TORSDOF 5
ENDMDL
MODEL 10
REMARK VINA RESULT:      -6.6      7.767     12.206
REMARK  Name = 40777397
REMARK  5 active torsions:
REMARK  status: ('A' for Active; 'I' for Inactive)
REMARK    1  A    between atoms: C_8  and  C_12
REMARK    2  A    between atoms: C_9  and  C_14
REMARK    3  A    between atoms: C_12  and  C_15
REMARK    4  A    between atoms: C_14  and  C_16
REMARK    5  A    between atoms: C_23  and  C_25
REMARK                            x       y       z     vdW  Elec       q    Type
REMARK                         _______ _______ _______ _____ _____    ______ ____
ROOT
ATOM      3  N   UNL     1       6.942   9.658  -0.818  0.00  0.00    -0.316 NA
ATOM      8  C   UNL     1       4.011   9.440  -1.084  0.00  0.00    +0.004 C 
ATOM      9  C   UNL     1       4.980   9.196  -2.266  0.00  0.00    +0.012 C 
ATOM     10  C   UNL     1       4.758   9.186   0.236  0.00  0.00    +0.019 C 
ATOM     11  C   UNL     1       6.296   9.971  -2.092  0.00  0.00    +0.085 C 
ATOM     13  C   UNL     1       6.074   9.958   0.320  0.00  0.00    +0.081 C 
ATOM     34  H   UNL     1       7.804  10.196  -0.734  0.00  0.00    +0.122 HD
ENDROOT
BRANCH   8  12
ATOM     12  C   UNL     1       3.363  10.830  -1.086  0.00  0.00    +0.100 C 
BRANCH  12  15
ATOM      1  O   UNL     1       1.202  10.587  -2.039  0.00  0.00    -0.276 OA
ATOM      4  N   UNL     1       1.312  10.724   0.278  0.00  0.00    -0.298 N 
ATOM      5  N   UNL     1       0.084  10.543   2.894  0.00  0.00    -0.312 N 
ATOM      7  N   UNL     1      -0.361  11.439   5.033  0.00  0.00    -0.240 NA
ATOM     15  C   UNL     1       1.862  10.700  -1.003  0.00  0.00    +0.216 C 
ATOM     17  C   UNL     1      -0.135  10.609   0.443  0.00  0.00    +0.126 C 
ATOM     18  C   UNL     1       2.098  10.848   1.508  0.00  0.00    +0.126 C 
ATOM     19  C   UNL     1      -0.507   9.877   1.731  0.00  0.00    +0.125 C 
ATOM     20  C   UNL     1       1.276  11.369   2.686  0.00  0.00    +0.125 C 
ATOM     22  C   UNL     1      -0.495  10.420   4.155  0.00  0.00    +0.121 A 
ATOM     24  C   UNL     1      -1.180   9.246   4.427  0.00  0.00    +0.043 A 
ATOM     26  C   UNL     1      -1.763   9.109   5.681  0.00  0.00    +0.005 A 
ATOM     27  C   UNL     1      -0.942  11.269   6.242  0.00  0.00    +0.113 A 
ATOM     30  C   UNL     1      -1.647  10.135   6.612  0.00  0.00    +0.020 A 
ENDBRANCH  12  15
ENDBRANCH   8  12
BRANCH   9  14
ATOM     14  C   UNL     1       4.352   9.501  -3.628  0.00  0.00    +0.064 C 
BRANCH  14  16
ATOM      2  O   UNL     1       1.861   7.331  -5.061  0.00  0.00    -0.354 OA
ATOM      6  N   UNL     1       2.371   8.589  -4.759  0.00  0.00    -0.083 NA
ATOM     16  C   UNL     1       3.515   8.353  -4.114  0.00  0.00    +0.085 A 
ATOM     21  C   UNL     1       3.780   6.979  -3.980  0.00  0.00    +0.076 A 
ATOM     23  C   UNL     1       2.709   6.381  -4.593  0.00  0.00    +0.167 A 
BRANCH  23  25
ATOM     25  C   UNL     1       2.315   5.023  -4.831  0.00  0.00    +0.020 A 
ATOM     28  C   UNL     1       1.088   4.560  -4.357  0.00  0.00    +0.011 A 
ATOM     29  C   UNL     1       3.158   4.166  -5.539  0.00  0.00    +0.011 A 
ATOM     31  C   UNL     1       0.704   3.239  -4.590  0.00  0.00    +0.001 A 
ATOM     32  C   UNL     1       2.775   2.845  -5.771  0.00  0.00    +0.001 A 
ATOM     33  C   UNL     1       1.548   2.381  -5.296  0.00  0.00    +0.000 A 
ENDBRANCH  23  25
ENDBRANCH  14  16
ENDBRANCH   9  14
TORSDOF 5
ENDMDL
