REMARK  Name = 38028312
REMARK  11 active torsions:
REMARK  status: ('A' for Active; 'I' for Inactive)
REMARK    1  A    between atoms: N_3  and  C_15
REMARK    2  A    between atoms: N_4  and  C_22
REMARK    3  A    between atoms: C_8  and  C_12
REMARK    4  A    between atoms: C_9  and  C_15
REMARK    5  A    between atoms: C_11  and  C_16
REMARK    6  A    between atoms: C_12  and  C_17
REMARK    7  A    between atoms: C_12  and  C_18
REMARK    8  A    between atoms: C_13  and  C_19
REMARK    9  A    between atoms: C_16  and  C_20
REMARK   10  A    between atoms: C_21  and  C_23
REMARK   11  A    between atoms: C_22  and  C_24
REMARK                            x       y       z     vdW  Elec       q    Type
REMARK                         _______ _______ _______ _____ _____    ______ ____
ROOT
ATOM      8  C   UNL     1       0.253   1.872  -1.075  0.00  0.00    +0.000 C 
ATOM      9  C   UNL     1       1.650   2.535  -1.178  0.00  0.00    +0.032 C 
ATOM     10  C   UNL     1      -0.633   2.640  -0.083  0.00  0.00    +0.012 C 
ATOM     11  C   UNL     1      -0.014   2.697   1.327  0.00  0.00    +0.023 C 
ATOM     13  C   UNL     1       1.449   3.086   1.285  0.00  0.00    -0.073 C 
ATOM     14  C   UNL     1       2.173   3.020   0.153  0.00  0.00    -0.022 C 
ATOM     19  C   UNL     1       2.051   3.598   2.564  0.00  0.00    +0.039 C 
ENDROOT
BRANCH   8  12
ATOM     12  C   UNL     1      -0.442   1.796  -2.438  0.00  0.00    -0.013 C 
ATOM     17  C   UNL     1      -1.100   3.129  -2.776  0.00  0.00    +0.007 C 
ATOM     18  C   UNL     1      -1.468   0.667  -2.450  0.00  0.00    +0.007 C 
ENDBRANCH   8  12
BRANCH   9  15
ATOM     15  C   UNL     1       2.669   1.581  -1.811  0.00  0.00    +0.112 C 
BRANCH  15   3
ATOM      2  O   UNL     1       2.215  -1.177  -2.466  0.00  0.00    -0.268 OA
ATOM      3  N   UNL     1       2.902   0.453  -0.964  0.00  0.00    -0.309 N 
ATOM     21  C   UNL     1       2.653  -0.860  -1.364  0.00  0.00    +0.264 C 
ATOM     32  H   UNL     1       3.303   0.612  -0.044  0.00  0.00    +0.149 HD
BRANCH  21  23
ATOM      5  N   UNL     1       3.383  -1.509   0.842  0.00  0.00    -0.247 NA
ATOM      7  N   UNL     1       2.956  -4.220   0.262  0.00  0.00    -0.259 NA
ATOM     23  C   UNL     1       2.922  -1.919  -0.357  0.00  0.00    +0.143 A 
ATOM     25  C   UNL     1       2.713  -3.250  -0.642  0.00  0.00    +0.143 A 
ATOM     27  C   UNL     1       3.626  -2.479   1.746  0.00  0.00    +0.131 A 
ATOM     29  C   UNL     1       3.416  -3.810   1.461  0.00  0.00    +0.130 A 
ENDBRANCH  21  23
ENDBRANCH  15   3
ENDBRANCH   9  15
BRANCH  11  16
ATOM     16  C   UNL     1      -0.207   1.369   2.068  0.00  0.00    +0.103 C 
BRANCH  16  20
ATOM      1  O   UNL     1      -2.598   1.736   2.126  0.00  0.00    -0.276 OA
ATOM      4  N   UNL     1      -1.773  -0.436   2.124  0.00  0.00    -0.310 N 
ATOM     20  C   UNL     1      -1.658   0.946   2.108  0.00  0.00    +0.214 C 
ATOM     33  H   UNL     1      -0.935  -1.009   2.106  0.00  0.00    +0.149 HD
BRANCH   4  22
ATOM     22  C   UNL     1      -3.045  -1.122   2.164  0.00  0.00    +0.159 C 
BRANCH  22  24
ATOM      6  N   UNL     1      -4.749  -0.918   0.445  0.00  0.00    -0.258 NA
ATOM     24  C   UNL     1      -3.552  -1.444   0.788  0.00  0.00    +0.058 A 
ATOM     26  C   UNL     1      -2.789  -2.246  -0.046  0.00  0.00    +0.025 A 
ATOM     28  C   UNL     1      -3.287  -2.525  -1.314  0.00  0.00    +0.003 A 
ATOM     30  C   UNL     1      -5.201  -1.211  -0.795  0.00  0.00    +0.111 A 
ATOM     31  C   UNL     1      -4.515  -2.001  -1.704  0.00  0.00    +0.020 A 
ENDBRANCH  22  24
ENDBRANCH   4  22
ENDBRANCH  16  20
ENDBRANCH  11  16
TORSDOF 8
