MODEL 1
REMARK VINA RESULT:      -6.6      0.000      0.000
REMARK  Name = 30734266
REMARK  5 active torsions:
REMARK  status: ('A' for Active; 'I' for Inactive)
REMARK    1  A    between atoms: N_2  and  C_22
REMARK    2  A    between atoms: N_4  and  C_13
REMARK    3  A    between atoms: C_6  and  C_12
REMARK    4  A    between atoms: C_7  and  C_13
REMARK    5  A    between atoms: C_15  and  C_16
REMARK                            x       y       z     vdW  Elec       q    Type
REMARK                         _______ _______ _______ _____ _____    ______ ____
ROOT
ATOM      1  N   UNL     1      12.839   6.767  21.026  0.00  0.00    -0.298 NA
ATOM      5  C   UNL     1      11.440   8.886  20.441  0.00  0.00    +0.002 C 
ATOM      6  C   UNL     1      11.919   8.176  19.144  0.00  0.00    +0.055 C 
ATOM      7  C   UNL     1      13.341   7.937  21.795  0.00  0.00    +0.070 C 
ATOM      8  C   UNL     1      12.665   9.238  21.312  0.00  0.00    +0.024 C 
ATOM      9  C   UNL     1      12.906   7.051  19.570  0.00  0.00    +0.094 C 
ATOM     10  C   UNL     1      10.604   7.856  21.229  0.00  0.00    +0.019 C 
ATOM     11  C   UNL     1      11.417   6.559  21.391  0.00  0.00    +0.085 C 
ENDROOT
BRANCH   6  12
ATOM      2  N   UNL     1      11.862   9.161  16.806  0.00  0.00    -0.271 N 
ATOM      3  N   UNL     1      12.514   9.966  15.949  0.00  0.00    -0.176 NA
ATOM     12  C   UNL     1      12.476   9.034  18.018  0.00  0.00    +0.044 A 
ATOM     14  C   UNL     1      13.607   9.810  17.948  0.00  0.00    +0.048 A 
ATOM     16  C   UNL     1      13.579  10.359  16.652  0.00  0.00    +0.066 A 
ATOM     22  C   UNL     1      10.631   8.532  16.387  0.00  0.00    +0.172 C 
BRANCH  16  15
ATOM     15  C   UNL     1      14.590  11.301  16.026  0.00  0.00    +0.040 C 
ATOM     17  C   UNL     1      15.337  10.641  14.854  0.00  0.00    +0.010 C 
ATOM     18  C   UNL     1      15.578  11.856  17.066  0.00  0.00    +0.010 C 
ATOM     19  C   UNL     1      16.346  11.600  14.223  0.00  0.00    +0.001 C 
ATOM     20  C   UNL     1      16.586  12.810  16.426  0.00  0.00    +0.001 C 
ATOM     21  C   UNL     1      17.319  12.156  15.260  0.00  0.00    +0.000 C 
ENDBRANCH  16  15
ENDBRANCH   6  12
BRANCH   7  13
ATOM     13  C   UNL     1      14.867   8.042  21.766  0.00  0.00    +0.096 C 
BRANCH  13   4
ATOM      4  N   UNL     1      15.478   6.769  22.110  0.00  0.00    -0.329 NA
ATOM     23  H   UNL     1      16.493   6.851  22.109  0.00  0.00    +0.118 HD
ATOM     24  H   UNL     1      15.251   6.080  21.394  0.00  0.00    +0.118 HD
ENDBRANCH  13   4
ENDBRANCH   7  13
TORSDOF 4
ENDMDL
MODEL 2
REMARK VINA RESULT:      -6.6      3.701      6.187
REMARK  Name = 30734266
REMARK  5 active torsions:
REMARK  status: ('A' for Active; 'I' for Inactive)
REMARK    1  A    between atoms: N_2  and  C_22
REMARK    2  A    between atoms: N_4  and  C_13
REMARK    3  A    between atoms: C_6  and  C_12
REMARK    4  A    between atoms: C_7  and  C_13
REMARK    5  A    between atoms: C_15  and  C_16
REMARK                            x       y       z     vdW  Elec       q    Type
REMARK                         _______ _______ _______ _____ _____    ______ ____
ROOT
ATOM      1  N   UNL     1      13.841   7.048  20.569  0.00  0.00    -0.298 NA
ATOM      5  C   UNL     1      13.068   8.740  18.746  0.00  0.00    +0.002 C 
ATOM      6  C   UNL     1      13.638   9.493  19.979  0.00  0.00    +0.055 C 
ATOM      7  C   UNL     1      12.461   6.718  20.121  0.00  0.00    +0.070 C 
ATOM      8  C   UNL     1      11.909   7.825  19.197  0.00  0.00    +0.024 C 
ATOM      9  C   UNL     1      13.886   8.436  21.093  0.00  0.00    +0.094 C 
ATOM     10  C   UNL     1      14.194   7.822  18.225  0.00  0.00    +0.019 C 
ATOM     11  C   UNL     1      14.733   6.971  19.388  0.00  0.00    +0.085 C 
ENDROOT
BRANCH   6  12
ATOM      2  N   UNL     1      12.968  11.940  19.920  0.00  0.00    -0.271 N 
ATOM      3  N   UNL     1      12.218  12.877  20.525  0.00  0.00    -0.176 NA
ATOM     12  C   UNL     1      12.878  10.706  20.495  0.00  0.00    +0.044 A 
ATOM     14  C   UNL     1      12.009  10.846  21.549  0.00  0.00    +0.048 A 
ATOM     16  C   UNL     1      11.633  12.203  21.519  0.00  0.00    +0.066 A 
ATOM     22  C   UNL     1      13.765  12.307  18.772  0.00  0.00    +0.172 C 
BRANCH  16  15
ATOM     15  C   UNL     1      10.683  12.920  22.460  0.00  0.00    +0.040 C 
ATOM     17  C   UNL     1      10.087  14.185  21.819  0.00  0.00    +0.010 C 
ATOM     18  C   UNL     1      11.349  13.247  23.808  0.00  0.00    +0.010 C 
ATOM     19  C   UNL     1       9.124  14.893  22.770  0.00  0.00    +0.001 C 
ATOM     20  C   UNL     1      10.381  13.959  24.751  0.00  0.00    +0.001 C 
ATOM     21  C   UNL     1       9.786  15.208  24.109  0.00  0.00    +0.000 C 
ENDBRANCH  16  15
ENDBRANCH   6  12
BRANCH   7  13
ATOM     13  C   UNL     1      11.521   6.432  21.293  0.00  0.00    +0.096 C 
BRANCH  13   4
ATOM      4  N   UNL     1      10.925   5.112  21.167  0.00  0.00    -0.329 NA
ATOM     23  H   UNL     1      11.348   4.467  21.831  0.00  0.00    +0.118 HD
ATOM     24  H   UNL     1      11.129   4.736  20.242  0.00  0.00    +0.118 HD
ENDBRANCH  13   4
ENDBRANCH   7  13
TORSDOF 4
ENDMDL
MODEL 3
REMARK VINA RESULT:      -6.4      2.980      6.645
REMARK  Name = 30734266
REMARK  5 active torsions:
REMARK  status: ('A' for Active; 'I' for Inactive)
REMARK    1  A    between atoms: N_2  and  C_22
REMARK    2  A    between atoms: N_4  and  C_13
REMARK    3  A    between atoms: C_6  and  C_12
REMARK    4  A    between atoms: C_7  and  C_13
REMARK    5  A    between atoms: C_15  and  C_16
REMARK                            x       y       z     vdW  Elec       q    Type
REMARK                         _______ _______ _______ _____ _____    ______ ____
ROOT
ATOM      1  N   UNL     1      13.525   8.886  17.367  0.00  0.00    -0.298 NA
ATOM      5  C   UNL     1      14.388   8.314  19.758  0.00  0.00    +0.002 C 
ATOM      6  C   UNL     1      12.836   8.256  19.712  0.00  0.00    +0.055 C 
ATOM      7  C   UNL     1      14.496   9.919  17.818  0.00  0.00    +0.070 C 
ATOM      8  C   UNL     1      14.860   9.713  19.304  0.00  0.00    +0.024 C 
ATOM      9  C   UNL     1      12.393   8.801  18.324  0.00  0.00    +0.094 C 
ATOM     10  C   UNL     1      14.903   7.301  18.713  0.00  0.00    +0.019 C 
ATOM     11  C   UNL     1      14.223   7.578  17.361  0.00  0.00    +0.085 C 
ENDROOT
BRANCH   6  12
ATOM      2  N   UNL     1      11.269   8.174  21.707  0.00  0.00    -0.271 N 
ATOM      3  N   UNL     1      10.669   8.922  22.649  0.00  0.00    -0.176 NA
ATOM     12  C   UNL     1      12.059   8.891  20.856  0.00  0.00    +0.044 A 
ATOM     14  C   UNL     1      11.970  10.197  21.272  0.00  0.00    +0.048 A 
ATOM     16  C   UNL     1      11.102  10.156  22.379  0.00  0.00    +0.066 A 
ATOM     22  C   UNL     1      11.032   6.750  21.679  0.00  0.00    +0.172 C 
BRANCH  16  15
ATOM     15  C   UNL     1      10.644  11.320  23.237  0.00  0.00    +0.040 C 
ATOM     17  C   UNL     1      10.861  12.671  22.534  0.00  0.00    +0.010 C 
ATOM     18  C   UNL     1      11.310  11.307  24.624  0.00  0.00    +0.010 C 
ATOM     19  C   UNL     1      10.388  13.836  23.402  0.00  0.00    +0.001 C 
ATOM     20  C   UNL     1      10.834  12.478  25.483  0.00  0.00    +0.001 C 
ATOM     21  C   UNL     1      11.044  13.815  24.780  0.00  0.00    +0.000 C 
ENDBRANCH  16  15
ENDBRANCH   6  12
BRANCH   7  13
ATOM     13  C   UNL     1      14.003  11.341  17.544  0.00  0.00    +0.096 C 
BRANCH  13   4
ATOM      4  N   UNL     1      13.642  11.501  16.145  0.00  0.00    -0.329 NA
ATOM     23  H   UNL     1      14.452  11.795  15.602  0.00  0.00    +0.118 HD
ATOM     24  H   UNL     1      12.958  12.251  16.056  0.00  0.00    +0.118 HD
ENDBRANCH  13   4
ENDBRANCH   7  13
TORSDOF 4
ENDMDL
MODEL 4
REMARK VINA RESULT:      -6.2     25.106     27.665
REMARK  Name = 30734266
REMARK  5 active torsions:
REMARK  status: ('A' for Active; 'I' for Inactive)
REMARK    1  A    between atoms: N_2  and  C_22
REMARK    2  A    between atoms: N_4  and  C_13
REMARK    3  A    between atoms: C_6  and  C_12
REMARK    4  A    between atoms: C_7  and  C_13
REMARK    5  A    between atoms: C_15  and  C_16
REMARK                            x       y       z     vdW  Elec       q    Type
REMARK                         _______ _______ _______ _____ _____    ______ ____
ROOT
ATOM      1  N   UNL     1      -6.338 -10.537  17.479  0.00  0.00    -0.298 NA
ATOM      5  C   UNL     1      -4.196 -11.969  17.100  0.00  0.00    +0.002 C 
ATOM      6  C   UNL     1      -4.069 -10.600  16.376  0.00  0.00    +0.055 C 
ATOM      7  C   UNL     1      -6.713 -11.902  17.024  0.00  0.00    +0.070 C 
ATOM      8  C   UNL     1      -5.461 -12.697  16.597  0.00  0.00    +0.024 C 
ATOM      9  C   UNL     1      -5.452  -9.893  16.478  0.00  0.00    +0.094 C 
ATOM     10  C   UNL     1      -4.413 -11.663  18.597  0.00  0.00    +0.019 C 
ATOM     11  C   UNL     1      -5.581 -10.672  18.747  0.00  0.00    +0.085 C 
ENDROOT
BRANCH   6  12
ATOM      2  N   UNL     1      -2.185 -10.482  14.679  0.00  0.00    -0.271 N 
ATOM      3  N   UNL     1      -1.904 -10.487  13.365  0.00  0.00    -0.176 NA
ATOM     12  C   UNL     1      -3.517 -10.584  14.958  0.00  0.00    +0.044 A 
ATOM     14  C   UNL     1      -4.150 -10.663  13.742  0.00  0.00    +0.048 A 
ATOM     16  C   UNL     1      -3.108 -10.599  12.797  0.00  0.00    +0.066 A 
ATOM     22  C   UNL     1      -1.105 -10.372  15.632  0.00  0.00    +0.172 C 
BRANCH  16  15
ATOM     15  C   UNL     1      -3.227 -10.641  11.285  0.00  0.00    +0.040 C 
ATOM     17  C   UNL     1      -3.944  -9.398  10.731  0.00  0.00    +0.010 C 
ATOM     18  C   UNL     1      -3.910 -11.933  10.800  0.00  0.00    +0.010 C 
ATOM     19  C   UNL     1      -4.051  -9.446   9.208  0.00  0.00    +0.001 C 
ATOM     20  C   UNL     1      -4.016 -11.970   9.277  0.00  0.00    +0.001 C 
ATOM     21  C   UNL     1      -4.720 -10.732   8.730  0.00  0.00    +0.000 C 
ENDBRANCH  16  15
ENDBRANCH   6  12
BRANCH   7  13
ATOM     13  C   UNL     1      -7.776 -11.878  15.925  0.00  0.00    +0.096 C 
BRANCH  13   4
ATOM      4  N   UNL     1      -7.275 -12.498  14.709  0.00  0.00    -0.329 NA
ATOM     23  H   UNL     1      -7.408 -13.507  14.744  0.00  0.00    +0.118 HD
ATOM     24  H   UNL     1      -6.268 -12.351  14.645  0.00  0.00    +0.118 HD
ENDBRANCH  13   4
ENDBRANCH   7  13
TORSDOF 4
ENDMDL
MODEL 5
REMARK VINA RESULT:      -6.1     12.785     15.271
REMARK  Name = 30734266
REMARK  5 active torsions:
REMARK  status: ('A' for Active; 'I' for Inactive)
REMARK    1  A    between atoms: N_2  and  C_22
REMARK    2  A    between atoms: N_4  and  C_13
REMARK    3  A    between atoms: C_6  and  C_12
REMARK    4  A    between atoms: C_7  and  C_13
REMARK    5  A    between atoms: C_15  and  C_16
REMARK                            x       y       z     vdW  Elec       q    Type
REMARK                         _______ _______ _______ _____ _____    ______ ____
ROOT
ATOM      1  N   UNL     1       8.721   7.184   7.717  0.00  0.00    -0.298 NA
ATOM      5  C   UNL     1      10.886   7.823   6.418  0.00  0.00    +0.002 C 
ATOM      6  C   UNL     1       9.686   7.686   5.440  0.00  0.00    +0.055 C 
ATOM      7  C   UNL     1       9.833   6.275   8.103  0.00  0.00    +0.070 C 
ATOM      8  C   UNL     1      11.062   6.502   7.198  0.00  0.00    +0.024 C 
ATOM      9  C   UNL     1       8.490   7.110   6.253  0.00  0.00    +0.094 C 
ATOM     10  C   UNL     1      10.502   8.909   7.445  0.00  0.00    +0.019 C 
ATOM     11  C   UNL     1       9.129   8.569   8.052  0.00  0.00    +0.085 C 
ENDROOT
BRANCH   6  12
ATOM      2  N   UNL     1       9.334   7.323   2.953  0.00  0.00    -0.271 N 
ATOM      3  N   UNL     1       9.654   6.532   1.914  0.00  0.00    -0.176 NA
ATOM     12  C   UNL     1       9.905   6.941   4.132  0.00  0.00    +0.044 A 
ATOM     14  C   UNL     1      10.652   5.825   3.843  0.00  0.00    +0.048 A 
ATOM     16  C   UNL     1      10.460   5.620   2.463  0.00  0.00    +0.066 A 
ATOM     22  C   UNL     1       8.455   8.448   2.739  0.00  0.00    +0.172 C 
BRANCH  16  15
ATOM     15  C   UNL     1      11.052   4.520   1.601  0.00  0.00    +0.040 C 
ATOM     17  C   UNL     1      12.527   4.253   1.946  0.00  0.00    +0.010 C 
ATOM     18  C   UNL     1      10.881   4.814   0.100  0.00  0.00    +0.010 C 
ATOM     19  C   UNL     1      13.110   3.137   1.081  0.00  0.00    +0.001 C 
ATOM     20  C   UNL     1      11.472   3.696  -0.758  0.00  0.00    +0.001 C 
ATOM     21  C   UNL     1      12.932   3.428  -0.407  0.00  0.00    +0.000 C 
ENDBRANCH  16  15
ENDBRANCH   6  12
BRANCH   7  13
ATOM     13  C   UNL     1       9.404   4.806   8.125  0.00  0.00    +0.096 C 
BRANCH  13   4
ATOM      4  N   UNL     1      10.535   3.943   8.427  0.00  0.00    -0.329 NA
ATOM     23  H   UNL     1      11.409   4.415   8.206  0.00  0.00    +0.118 HD
ATOM     24  H   UNL     1      10.501   3.120   7.828  0.00  0.00    +0.118 HD
ENDBRANCH  13   4
ENDBRANCH   7  13
TORSDOF 4
ENDMDL
MODEL 6
REMARK VINA RESULT:      -5.9     27.297     29.541
REMARK  Name = 30734266
REMARK  5 active torsions:
REMARK  status: ('A' for Active; 'I' for Inactive)
REMARK    1  A    between atoms: N_2  and  C_22
REMARK    2  A    between atoms: N_4  and  C_13
REMARK    3  A    between atoms: C_6  and  C_12
REMARK    4  A    between atoms: C_7  and  C_13
REMARK    5  A    between atoms: C_15  and  C_16
REMARK                            x       y       z     vdW  Elec       q    Type
REMARK                         _______ _______ _______ _____ _____    ______ ____
ROOT
ATOM      1  N   UNL     1      -5.441 -12.486  16.954  0.00  0.00    -0.298 NA
ATOM      5  C   UNL     1      -5.842 -10.745  18.849  0.00  0.00    +0.002 C 
ATOM      6  C   UNL     1      -7.175 -11.446  18.464  0.00  0.00    +0.055 C 
ATOM      7  C   UNL     1      -4.828 -11.182  16.585  0.00  0.00    +0.070 C 
ATOM      8  C   UNL     1      -5.231 -10.086  17.594  0.00  0.00    +0.024 C 
ATOM      9  C   UNL     1      -6.893 -12.313  17.202  0.00  0.00    +0.094 C 
ATOM     10  C   UNL     1      -4.869 -11.855  19.299  0.00  0.00    +0.019 C 
ATOM     11  C   UNL     1      -4.808 -12.945  18.214  0.00  0.00    +0.085 C 
ENDROOT
BRANCH   6  12
ATOM      2  N   UNL     1      -9.562 -10.791  19.025  0.00  0.00    -0.271 N 
ATOM      3  N   UNL     1     -10.547  -9.923  18.738  0.00  0.00    -0.176 NA
ATOM     12  C   UNL     1      -8.420 -10.586  18.306  0.00  0.00    +0.044 A 
ATOM     14  C   UNL     1      -8.677  -9.509  17.494  0.00  0.00    +0.048 A 
ATOM     16  C   UNL     1     -10.000  -9.142  17.803  0.00  0.00    +0.066 A 
ATOM     22  C   UNL     1      -9.790 -11.815  20.017  0.00  0.00    +0.172 C 
BRANCH  16  15
ATOM     15  C   UNL     1     -10.808  -8.007  17.202  0.00  0.00    +0.040 C 
ATOM     17  C   UNL     1     -12.149  -8.498  16.629  0.00  0.00    +0.010 C 
ATOM     18  C   UNL     1     -10.007  -7.231  16.141  0.00  0.00    +0.010 C 
ATOM     19  C   UNL     1     -12.959  -7.347  16.035  0.00  0.00    +0.001 C 
ATOM     20  C   UNL     1     -10.827  -6.085  15.550  0.00  0.00    +0.001 C 
ATOM     21  C   UNL     1     -12.159  -6.575  14.991  0.00  0.00    +0.000 C 
ENDBRANCH  16  15
ENDBRANCH   6  12
BRANCH   7  13
ATOM     13  C   UNL     1      -5.146 -10.776  15.145  0.00  0.00    +0.096 C 
BRANCH  13   4
ATOM      4  N   UNL     1      -5.867  -9.514  15.112  0.00  0.00    -0.329 NA
ATOM     23  H   UNL     1      -6.181  -9.310  14.165  0.00  0.00    +0.118 HD
ATOM     24  H   UNL     1      -5.235  -8.757  15.367  0.00  0.00    +0.118 HD
ENDBRANCH  13   4
ENDBRANCH   7  13
TORSDOF 4
ENDMDL
MODEL 7
REMARK VINA RESULT:      -5.9     26.244     27.968
REMARK  Name = 30734266
REMARK  5 active torsions:
REMARK  status: ('A' for Active; 'I' for Inactive)
REMARK    1  A    between atoms: N_2  and  C_22
REMARK    2  A    between atoms: N_4  and  C_13
REMARK    3  A    between atoms: C_6  and  C_12
REMARK    4  A    between atoms: C_7  and  C_13
REMARK    5  A    between atoms: C_15  and  C_16
REMARK                            x       y       z     vdW  Elec       q    Type
REMARK                         _______ _______ _______ _____ _____    ______ ____
ROOT
ATOM      1  N   UNL     1      -6.306 -12.616  18.643  0.00  0.00    -0.298 NA
ATOM      5  C   UNL     1      -7.057 -10.257  17.834  0.00  0.00    +0.002 C 
ATOM      6  C   UNL     1      -7.198 -11.295  16.687  0.00  0.00    +0.055 C 
ATOM      7  C   UNL     1      -5.269 -11.607  18.986  0.00  0.00    +0.070 C 
ATOM      8  C   UNL     1      -5.597 -10.246  18.336  0.00  0.00    +0.024 C 
ATOM      9  C   UNL     1      -6.547 -12.620  17.179  0.00  0.00    +0.094 C 
ATOM     10  C   UNL     1      -7.934 -10.760  19.000  0.00  0.00    +0.019 C 
ATOM     11  C   UNL     1      -7.566 -12.220  19.317  0.00  0.00    +0.085 C 
ENDROOT
BRANCH   6  12
ATOM      2  N   UNL     1      -7.472 -10.152  14.437  0.00  0.00    -0.271 N 
ATOM      3  N   UNL     1      -6.870  -9.911  13.259  0.00  0.00    -0.176 NA
ATOM     12  C   UNL     1      -6.721 -10.900  15.297  0.00  0.00    +0.044 A 
ATOM     14  C   UNL     1      -5.548 -11.166  14.635  0.00  0.00    +0.048 A 
ATOM     16  C   UNL     1      -5.695 -10.532  13.387  0.00  0.00    +0.066 A 
ATOM     22  C   UNL     1      -8.795  -9.624  14.675  0.00  0.00    +0.172 C 
BRANCH  16  15
ATOM     15  C   UNL     1      -4.697 -10.498  12.245  0.00  0.00    +0.040 C 
ATOM     17  C   UNL     1      -3.244 -10.504  12.752  0.00  0.00    +0.010 C 
ATOM     18  C   UNL     1      -4.946  -9.308  11.301  0.00  0.00    +0.010 C 
ATOM     19  C   UNL     1      -2.247 -10.479  11.595  0.00  0.00    +0.001 C 
ATOM     20  C   UNL     1      -3.941  -9.288  10.150  0.00  0.00    +0.001 C 
ATOM     21  C   UNL     1      -2.503  -9.303  10.657  0.00  0.00    +0.000 C 
ENDBRANCH  16  15
ENDBRANCH   6  12
BRANCH   7  13
ATOM     13  C   UNL     1      -3.857 -12.081  18.636  0.00  0.00    +0.096 C 
BRANCH  13   4
ATOM      4  N   UNL     1      -3.077 -12.311  19.841  0.00  0.00    -0.329 NA
ATOM     23  H   UNL     1      -3.622 -12.074  20.667  0.00  0.00    +0.118 HD
ATOM     24  H   UNL     1      -2.272 -11.685  19.847  0.00  0.00    +0.118 HD
ENDBRANCH  13   4
ENDBRANCH   7  13
TORSDOF 4
ENDMDL
MODEL 8
REMARK VINA RESULT:      -5.8      3.673      6.507
REMARK  Name = 30734266
REMARK  5 active torsions:
REMARK  status: ('A' for Active; 'I' for Inactive)
REMARK    1  A    between atoms: N_2  and  C_22
REMARK    2  A    between atoms: N_4  and  C_13
REMARK    3  A    between atoms: C_6  and  C_12
REMARK    4  A    between atoms: C_7  and  C_13
REMARK    5  A    between atoms: C_15  and  C_16
REMARK                            x       y       z     vdW  Elec       q    Type
REMARK                         _______ _______ _______ _____ _____    ______ ____
ROOT
ATOM      1  N   UNL     1      12.137   7.409  18.943  0.00  0.00    -0.298 NA
ATOM      5  C   UNL     1      14.209   8.967  19.201  0.00  0.00    +0.002 C 
ATOM      6  C   UNL     1      13.349   8.988  20.495  0.00  0.00    +0.055 C 
ATOM      7  C   UNL     1      12.240   8.318  17.770  0.00  0.00    +0.070 C 
ATOM      8  C   UNL     1      13.333   9.383  17.999  0.00  0.00    +0.024 C 
ATOM      9  C   UNL     1      12.040   8.203  20.193  0.00  0.00    +0.094 C 
ATOM     10  C   UNL     1      14.630   7.501  18.969  0.00  0.00    +0.019 C 
ATOM     11  C   UNL     1      13.381   6.603  19.003  0.00  0.00    +0.085 C 
ENDROOT
BRANCH   6  12
ATOM      2  N   UNL     1      13.984  10.965  21.954  0.00  0.00    -0.271 N 
ATOM      3  N   UNL     1      13.551  12.141  22.440  0.00  0.00    -0.176 NA
ATOM     12  C   UNL     1      13.077  10.331  21.156  0.00  0.00    +0.044 A 
ATOM     14  C   UNL     1      11.975  11.149  21.117  0.00  0.00    +0.048 A 
ATOM     16  C   UNL     1      12.323  12.249  21.925  0.00  0.00    +0.066 A 
ATOM     22  C   UNL     1      15.306  10.500  22.305  0.00  0.00    +0.172 C 
BRANCH  16  15
ATOM     15  C   UNL     1      11.477  13.467  22.242  0.00  0.00    +0.040 C 
ATOM     17  C   UNL     1      10.548  13.224  23.444  0.00  0.00    +0.010 C 
ATOM     18  C   UNL     1      10.678  13.945  21.016  0.00  0.00    +0.010 C 
ATOM     19  C   UNL     1       9.708  14.460  23.761  0.00  0.00    +0.001 C 
ATOM     20  C   UNL     1       9.837  15.178  21.344  0.00  0.00    +0.001 C 
ATOM     21  C   UNL     1       8.924  14.936  22.541  0.00  0.00    +0.000 C 
ENDBRANCH  16  15
ENDBRANCH   6  12
BRANCH   7  13
ATOM     13  C   UNL     1      10.896   8.950  17.403  0.00  0.00    +0.096 C 
BRANCH  13   4
ATOM      4  N   UNL     1      10.182   8.124  16.443  0.00  0.00    -0.329 NA
ATOM     23  H   UNL     1       9.186   8.116  16.653  0.00  0.00    +0.118 HD
ATOM     24  H   UNL     1      10.495   7.158  16.529  0.00  0.00    +0.118 HD
ENDBRANCH  13   4
ENDBRANCH   7  13
TORSDOF 4
ENDMDL
MODEL 9
REMARK VINA RESULT:      -5.8      3.468      6.141
REMARK  Name = 30734266
REMARK  5 active torsions:
REMARK  status: ('A' for Active; 'I' for Inactive)
REMARK    1  A    between atoms: N_2  and  C_22
REMARK    2  A    between atoms: N_4  and  C_13
REMARK    3  A    between atoms: C_6  and  C_12
REMARK    4  A    between atoms: C_7  and  C_13
REMARK    5  A    between atoms: C_15  and  C_16
REMARK                            x       y       z     vdW  Elec       q    Type
REMARK                         _______ _______ _______ _____ _____    ______ ____
ROOT
ATOM      1  N   UNL     1      12.310   7.571  18.466  0.00  0.00    -0.298 NA
ATOM      5  C   UNL     1      13.539   9.616  19.511  0.00  0.00    +0.002 C 
ATOM      6  C   UNL     1      14.564   8.617  18.906  0.00  0.00    +0.055 C 
ATOM      7  C   UNL     1      11.811   7.813  19.846  0.00  0.00    +0.070 C 
ATOM      8  C   UNL     1      12.668   8.884  20.554  0.00  0.00    +0.024 C 
ATOM      9  C   UNL     1      13.776   7.342  18.488  0.00  0.00    +0.094 C 
ATOM     10  C   UNL     1      12.604  10.046  18.361  0.00  0.00    +0.019 C 
ATOM     11  C   UNL     1      12.044   8.791  17.666  0.00  0.00    +0.085 C 
ENDROOT
BRANCH   6  12
ATOM      2  N   UNL     1      16.485   9.213  20.454  0.00  0.00    -0.271 N 
ATOM      3  N   UNL     1      17.557   8.719  21.096  0.00  0.00    -0.176 NA
ATOM     12  C   UNL     1      15.809   8.286  19.715  0.00  0.00    +0.044 A 
ATOM     14  C   UNL     1      16.485   7.103  19.888  0.00  0.00    +0.048 A 
ATOM     16  C   UNL     1      17.552   7.429  20.747  0.00  0.00    +0.066 A 
ATOM     22  C   UNL     1      16.162  10.614  20.594  0.00  0.00    +0.172 C 
BRANCH  16  15
ATOM     15  C   UNL     1      18.629   6.501  21.277  0.00  0.00    +0.040 C 
ATOM     17  C   UNL     1      19.663   7.252  22.133  0.00  0.00    +0.010 C 
ATOM     18  C   UNL     1      19.316   5.715  20.146  0.00  0.00    +0.010 C 
ATOM     19  C   UNL     1      20.737   6.307  22.670  0.00  0.00    +0.001 C 
ATOM     20  C   UNL     1      20.391   4.777  20.691  0.00  0.00    +0.001 C 
ATOM     21  C   UNL     1      21.410   5.523  21.546  0.00  0.00    +0.000 C 
ENDBRANCH  16  15
ENDBRANCH   6  12
BRANCH   7  13
ATOM     13  C   UNL     1      11.717   6.525  20.666  0.00  0.00    +0.096 C 
BRANCH  13   4
ATOM      4  N   UNL     1      12.884   6.369  21.518  0.00  0.00    -0.329 NA
ATOM     23  H   UNL     1      13.655   6.937  21.171  0.00  0.00    +0.118 HD
ATOM     24  H   UNL     1      13.207   5.403  21.475  0.00  0.00    +0.118 HD
ENDBRANCH  13   4
ENDBRANCH   7  13
TORSDOF 4
ENDMDL
MODEL 10
REMARK VINA RESULT:      -5.8     25.926     28.401
REMARK  Name = 30734266
REMARK  5 active torsions:
REMARK  status: ('A' for Active; 'I' for Inactive)
REMARK    1  A    between atoms: N_2  and  C_22
REMARK    2  A    between atoms: N_4  and  C_13
REMARK    3  A    between atoms: C_6  and  C_12
REMARK    4  A    between atoms: C_7  and  C_13
REMARK    5  A    between atoms: C_15  and  C_16
REMARK                            x       y       z     vdW  Elec       q    Type
REMARK                         _______ _______ _______ _____ _____    ______ ____
ROOT
ATOM      1  N   UNL     1      -5.935 -10.488   9.490  0.00  0.00    -0.298 NA
ATOM      5  C   UNL     1      -4.261  -8.985  10.804  0.00  0.00    +0.002 C 
ATOM      6  C   UNL     1      -4.282 -10.422  11.396  0.00  0.00    +0.055 C 
ATOM      7  C   UNL     1      -6.594  -9.212   9.879  0.00  0.00    +0.070 C 
ATOM      8  C   UNL     1      -5.690  -8.401  10.831  0.00  0.00    +0.024 C 
ATOM      9  C   UNL     1      -5.440 -11.193  10.698  0.00  0.00    +0.094 C 
ATOM     10  C   UNL     1      -3.855  -9.121   9.321  0.00  0.00    +0.019 C 
ATOM     11  C   UNL     1      -4.768 -10.155   8.638  0.00  0.00    +0.085 C 
ENDROOT
BRANCH   6  12
ATOM      2  N   UNL     1      -3.196 -10.557  13.686  0.00  0.00    -0.271 N 
ATOM      3  N   UNL     1      -3.442 -10.707  14.999  0.00  0.00    -0.176 NA
ATOM     12  C   UNL     1      -4.318 -10.575  12.910  0.00  0.00    +0.044 A 
ATOM     14  C   UNL     1      -5.370 -10.748  13.775  0.00  0.00    +0.048 A 
ATOM     16  C   UNL     1      -4.772 -10.823  15.047  0.00  0.00    +0.066 A 
ATOM     22  C   UNL     1      -1.832 -10.400  13.237  0.00  0.00    +0.172 C 
BRANCH  16  15
ATOM     15  C   UNL     1      -5.464 -11.012  16.384  0.00  0.00    +0.040 C 
ATOM     17  C   UNL     1      -6.395  -9.835  16.719  0.00  0.00    +0.010 C 
ATOM     18  C   UNL     1      -4.456 -11.258  17.521  0.00  0.00    +0.010 C 
ATOM     19  C   UNL     1      -7.095 -10.039  18.062  0.00  0.00    +0.001 C 
ATOM     20  C   UNL     1      -5.164 -11.457  18.861  0.00  0.00    +0.001 C 
ATOM     21  C   UNL     1      -6.093 -10.292  19.186  0.00  0.00    +0.000 C 
ENDBRANCH  16  15
ENDBRANCH   6  12
BRANCH   7  13
ATOM     13  C   UNL     1      -7.989  -9.433  10.466  0.00  0.00    +0.096 C 
BRANCH  13   4
ATOM      4  N   UNL     1      -8.970  -8.599   9.792  0.00  0.00    -0.329 NA
ATOM     23  H   UNL     1      -9.180  -8.975   8.869  0.00  0.00    +0.118 HD
ATOM     24  H   UNL     1      -8.576  -7.673   9.635  0.00  0.00    +0.118 HD
ENDBRANCH  13   4
ENDBRANCH   7  13
TORSDOF 4
ENDMDL
