MODEL 1
REMARK VINA RESULT:      -7.0      0.000      0.000
REMARK  Name = 26744910
REMARK  7 active torsions:
REMARK  status: ('A' for Active; 'I' for Inactive)
REMARK    1  A    between atoms: O_2  and  C_23
REMARK    2  A    between atoms: O_2  and  C_30
REMARK    3  A    between atoms: N_3  and  C_13
REMARK    4  A    between atoms: C_8  and  C_14
REMARK    5  A    between atoms: C_13  and  C_15
REMARK    6  A    between atoms: C_17  and  C_20
REMARK    7  A    between atoms: C_20  and  C_24
REMARK                            x       y       z     vdW  Elec       q    Type
REMARK                         _______ _______ _______ _____ _____    ______ ____
ROOT
ATOM      3  N   UNL     1      -5.847 -10.789  15.917  0.00  0.00    -0.281 NA
ATOM      4  N   UNL     1      -2.489 -10.177  14.364  0.00  0.00    -0.347 N 
ATOM      5  N   UNL     1      -1.682 -10.758  16.366  0.00  0.00    -0.240 NA
ATOM      8  C   UNL     1      -5.319 -11.790  16.908  0.00  0.00    +0.152 C 
ATOM      9  C   UNL     1      -3.888 -11.416  17.432  0.00  0.00    +0.086 C 
ATOM     10  C   UNL     1      -4.974 -10.672  14.713  0.00  0.00    +0.140 C 
ATOM     11  C   UNL     1      -3.555 -10.581  15.108  0.00  0.00    +0.053 A 
ATOM     12  C   UNL     1      -3.036 -10.938  16.325  0.00  0.00    +0.065 A 
ATOM     16  C   UNL     1      -1.381 -10.301  15.166  0.00  0.00    +0.197 A 
ATOM     31  H   UNL     1      -2.504  -9.852  13.406  0.00  0.00    +0.167 HD
ENDROOT
BRANCH   8  14
ATOM      1  O   UNL     1      -5.877 -11.331  19.253  0.00  0.00    -0.336 OA
ATOM      6  N   UNL     1      -7.300 -12.730  18.236  0.00  0.00    -0.194 NA
ATOM      7  N   UNL     1      -6.838 -11.673  20.212  0.00  0.00    -0.061 NA
ATOM     14  C   UNL     1      -6.222 -11.995  18.119  0.00  0.00    +0.245 A 
ATOM     17  C   UNL     1      -7.642 -12.501  19.537  0.00  0.00    +0.176 A 
BRANCH  17  20
ATOM     20  C   UNL     1      -8.816 -13.123  20.158  0.00  0.00    +0.114 C 
BRANCH  20  24
ATOM     24  C   UNL     1     -10.058 -12.237  20.206  0.00  0.00    -0.040 A 
ATOM     25  C   UNL     1     -11.268 -12.758  20.666  0.00  0.00    +0.004 A 
ATOM     26  C   UNL     1      -9.984 -10.909  19.790  0.00  0.00    +0.004 A 
ATOM     27  C   UNL     1     -12.404 -11.949  20.709  0.00  0.00    +0.000 A 
ATOM     28  C   UNL     1     -11.120 -10.100  19.832  0.00  0.00    +0.000 A 
ATOM     29  C   UNL     1     -12.330 -10.620  20.293  0.00  0.00    +0.000 A 
ENDBRANCH  20  24
ENDBRANCH  17  20
ENDBRANCH   8  14
BRANCH   3  13
ATOM     13  C   UNL     1      -7.207 -11.112  15.466  0.00  0.00    +0.120 C 
BRANCH  13  15
ATOM     15  C   UNL     1      -8.178 -10.001  15.768  0.00  0.00    -0.033 A 
ATOM     18  C   UNL     1      -9.154  -9.656  14.833  0.00  0.00    +0.008 A 
ATOM     19  C   UNL     1      -8.102  -9.319  16.982  0.00  0.00    +0.008 A 
ATOM     21  C   UNL     1     -10.054  -8.627  15.112  0.00  0.00    +0.046 A 
ATOM     22  C   UNL     1      -9.000  -8.291  17.261  0.00  0.00    +0.046 A 
ATOM     23  C   UNL     1      -9.977  -7.944  16.326  0.00  0.00    +0.120 A 
BRANCH  23   2
ATOM      2  O   UNL     1     -10.855  -6.941  16.600  0.00  0.00    -0.495 OA
ATOM     30  C   UNL     1     -11.062  -5.964  15.579  0.00  0.00    +0.277 C 
ENDBRANCH  23   2
ENDBRANCH  13  15
ENDBRANCH   3  13
TORSDOF 6
ENDMDL
MODEL 2
REMARK VINA RESULT:      -6.8     17.906     20.960
REMARK  Name = 26744910
REMARK  7 active torsions:
REMARK  status: ('A' for Active; 'I' for Inactive)
REMARK    1  A    between atoms: O_2  and  C_23
REMARK    2  A    between atoms: O_2  and  C_30
REMARK    3  A    between atoms: N_3  and  C_13
REMARK    4  A    between atoms: C_8  and  C_14
REMARK    5  A    between atoms: C_13  and  C_15
REMARK    6  A    between atoms: C_17  and  C_20
REMARK    7  A    between atoms: C_20  and  C_24
REMARK                            x       y       z     vdW  Elec       q    Type
REMARK                         _______ _______ _______ _____ _____    ______ ____
ROOT
ATOM      3  N   UNL     1     -11.854   8.113  19.485  0.00  0.00    -0.281 NA
ATOM      4  N   UNL     1     -10.406   7.591  16.066  0.00  0.00    -0.347 N 
ATOM      5  N   UNL     1     -10.850   9.761  15.768  0.00  0.00    -0.240 NA
ATOM      8  C   UNL     1     -11.489   9.571  19.528  0.00  0.00    +0.152 C 
ATOM      9  C   UNL     1     -11.631  10.266  18.128  0.00  0.00    +0.086 C 
ATOM     10  C   UNL     1     -10.991   7.342  18.544  0.00  0.00    +0.140 C 
ATOM     11  C   UNL     1     -10.847   8.063  17.264  0.00  0.00    +0.053 A 
ATOM     12  C   UNL     1     -11.105   9.394  17.059  0.00  0.00    +0.065 A 
ATOM     16  C   UNL     1     -10.425   8.652  15.195  0.00  0.00    +0.197 A 
ATOM     31  H   UNL     1     -10.115   6.645  15.855  0.00  0.00    +0.167 HD
ENDROOT
BRANCH   8  14
ATOM      1  O   UNL     1     -13.613  10.568  20.249  0.00  0.00    -0.336 OA
ATOM      6  N   UNL     1     -11.910  10.936  21.657  0.00  0.00    -0.194 NA
ATOM      7  N   UNL     1     -14.136  11.330  21.301  0.00  0.00    -0.061 NA
ATOM     14  C   UNL     1     -12.298  10.381  20.536  0.00  0.00    +0.245 A 
ATOM     17  C   UNL     1     -13.071  11.506  22.090  0.00  0.00    +0.176 A 
BRANCH  17  20
ATOM     20  C   UNL     1     -13.150  12.266  23.343  0.00  0.00    +0.114 C 
BRANCH  20  24
ATOM     24  C   UNL     1     -12.777  11.477  24.594  0.00  0.00    -0.040 A 
ATOM     25  C   UNL     1     -13.778  10.919  25.390  0.00  0.00    +0.004 A 
ATOM     26  C   UNL     1     -11.437  11.312  24.942  0.00  0.00    +0.004 A 
ATOM     27  C   UNL     1     -13.438  10.197  26.535  0.00  0.00    +0.000 A 
ATOM     28  C   UNL     1     -11.097  10.590  26.086  0.00  0.00    +0.000 A 
ATOM     29  C   UNL     1     -12.098  10.033  26.882  0.00  0.00    +0.000 A 
ENDBRANCH  20  24
ENDBRANCH  17  20
ENDBRANCH   8  14
BRANCH   3  13
ATOM     13  C   UNL     1     -11.770   7.477  20.807  0.00  0.00    +0.120 C 
BRANCH  13  15
ATOM     15  C   UNL     1     -13.006   6.678  21.125  0.00  0.00    -0.033 A 
ATOM     18  C   UNL     1     -14.242   7.069  20.609  0.00  0.00    +0.008 A 
ATOM     19  C   UNL     1     -12.915   5.545  21.934  0.00  0.00    +0.008 A 
ATOM     21  C   UNL     1     -15.386   6.328  20.903  0.00  0.00    +0.046 A 
ATOM     22  C   UNL     1     -14.059   4.805  22.229  0.00  0.00    +0.046 A 
ATOM     23  C   UNL     1     -15.295   5.196  21.713  0.00  0.00    +0.120 A 
BRANCH  23   2
ATOM      2  O   UNL     1     -16.411   4.473  22.000  0.00  0.00    -0.495 OA
ATOM     30  C   UNL     1     -16.450   3.813  23.265  0.00  0.00    +0.277 C 
ENDBRANCH  23   2
ENDBRANCH  13  15
ENDBRANCH   3  13
TORSDOF 6
ENDMDL
MODEL 3
REMARK VINA RESULT:      -6.6     25.292     29.012
REMARK  Name = 26744910
REMARK  7 active torsions:
REMARK  status: ('A' for Active; 'I' for Inactive)
REMARK    1  A    between atoms: O_2  and  C_23
REMARK    2  A    between atoms: O_2  and  C_30
REMARK    3  A    between atoms: N_3  and  C_13
REMARK    4  A    between atoms: C_8  and  C_14
REMARK    5  A    between atoms: C_13  and  C_15
REMARK    6  A    between atoms: C_17  and  C_20
REMARK    7  A    between atoms: C_20  and  C_24
REMARK                            x       y       z     vdW  Elec       q    Type
REMARK                         _______ _______ _______ _____ _____    ______ ____
ROOT
ATOM      3  N   UNL     1      10.178   5.674   4.432  0.00  0.00    -0.281 NA
ATOM      4  N   UNL     1      10.154   3.968   7.771  0.00  0.00    -0.347 N 
ATOM      5  N   UNL     1       9.332   5.904   8.527  0.00  0.00    -0.240 NA
ATOM      8  C   UNL     1       9.047   6.601   4.784  0.00  0.00    +0.152 C 
ATOM      9  C   UNL     1       9.094   7.061   6.283  0.00  0.00    +0.086 C 
ATOM     10  C   UNL     1      10.166   4.430   5.255  0.00  0.00    +0.140 C 
ATOM     11  C   UNL     1       9.945   4.752   6.678  0.00  0.00    +0.053 A 
ATOM     12  C   UNL     1       9.435   5.928   7.165  0.00  0.00    +0.065 A 
ATOM     16  C   UNL     1       9.769   4.706   8.863  0.00  0.00    +0.197 A 
ATOM     31  H   UNL     1      10.517   3.023   7.781  0.00  0.00    +0.167 HD
ENDROOT
BRANCH   8  14
ATOM      1  O   UNL     1       9.647   8.943   4.365  0.00  0.00    -0.336 OA
ATOM      6  N   UNL     1       8.359   8.035   2.773  0.00  0.00    -0.194 NA
ATOM      7  N   UNL     1       9.439   9.948   3.413  0.00  0.00    -0.061 NA
ATOM     14  C   UNL     1       8.978   7.850   3.912  0.00  0.00    +0.245 A 
ATOM     17  C   UNL     1       8.671   9.336   2.506  0.00  0.00    +0.176 A 
BRANCH  17  20
ATOM     20  C   UNL     1       8.193  10.024   1.301  0.00  0.00    +0.114 C 
BRANCH  20  24
ATOM     24  C   UNL     1       6.711   9.823   0.996  0.00  0.00    -0.040 A 
ATOM     25  C   UNL     1       6.311   9.409  -0.275  0.00  0.00    +0.004 A 
ATOM     26  C   UNL     1       5.758  10.054   1.986  0.00  0.00    +0.004 A 
ATOM     27  C   UNL     1       4.957   9.226  -0.555  0.00  0.00    +0.000 A 
ATOM     28  C   UNL     1       4.403   9.871   1.707  0.00  0.00    +0.000 A 
ATOM     29  C   UNL     1       4.003   9.457   0.436  0.00  0.00    +0.000 A 
ENDBRANCH  20  24
ENDBRANCH  17  20
ENDBRANCH   8  14
BRANCH   3  13
ATOM     13  C   UNL     1      10.161   5.285   3.015  0.00  0.00    +0.120 C 
BRANCH  13  15
ATOM     15  C   UNL     1      11.528   4.882   2.527  0.00  0.00    -0.033 A 
ATOM     18  C   UNL     1      12.558   5.822   2.482  0.00  0.00    +0.008 A 
ATOM     19  C   UNL     1      11.764   3.568   2.122  0.00  0.00    +0.008 A 
ATOM     21  C   UNL     1      13.824   5.448   2.032  0.00  0.00    +0.046 A 
ATOM     22  C   UNL     1      13.029   3.194   1.671  0.00  0.00    +0.046 A 
ATOM     23  C   UNL     1      14.059   4.134   1.626  0.00  0.00    +0.120 A 
BRANCH  23   2
ATOM      2  O   UNL     1      15.294   3.768   1.186  0.00  0.00    -0.495 OA
ATOM     30  C   UNL     1      15.653   4.158  -0.139  0.00  0.00    +0.277 C 
ENDBRANCH  23   2
ENDBRANCH  13  15
ENDBRANCH   3  13
TORSDOF 6
ENDMDL
MODEL 4
REMARK VINA RESULT:      -6.4     18.036     20.401
REMARK  Name = 26744910
REMARK  7 active torsions:
REMARK  status: ('A' for Active; 'I' for Inactive)
REMARK    1  A    between atoms: O_2  and  C_23
REMARK    2  A    between atoms: O_2  and  C_30
REMARK    3  A    between atoms: N_3  and  C_13
REMARK    4  A    between atoms: C_8  and  C_14
REMARK    5  A    between atoms: C_13  and  C_15
REMARK    6  A    between atoms: C_17  and  C_20
REMARK    7  A    between atoms: C_20  and  C_24
REMARK                            x       y       z     vdW  Elec       q    Type
REMARK                         _______ _______ _______ _____ _____    ______ ____
ROOT
ATOM      3  N   UNL     1     -15.597   6.901  20.120  0.00  0.00    -0.281 NA
ATOM      4  N   UNL     1     -17.276   4.070  21.918  0.00  0.00    -0.347 N 
ATOM      5  N   UNL     1     -15.402   4.000  23.135  0.00  0.00    -0.240 NA
ATOM      8  C   UNL     1     -14.757   7.289  21.305  0.00  0.00    +0.152 C 
ATOM      9  C   UNL     1     -14.282   6.045  22.137  0.00  0.00    +0.086 C 
ATOM     10  C   UNL     1     -16.833   6.167  20.520  0.00  0.00    +0.140 C 
ATOM     11  C   UNL     1     -16.517   5.129  21.522  0.00  0.00    +0.053 A 
ATOM     12  C   UNL     1     -15.381   5.069  22.285  0.00  0.00    +0.065 A 
ATOM     16  C   UNL     1     -16.561   3.418  22.892  0.00  0.00    +0.197 A 
ATOM     31  H   UNL     1     -18.190   3.812  21.569  0.00  0.00    +0.167 HD
ENDROOT
BRANCH   8  14
ATOM      1  O   UNL     1     -13.486   9.386  21.409  0.00  0.00    -0.336 OA
ATOM      6  N   UNL     1     -12.473   7.764  20.243  0.00  0.00    -0.194 NA
ATOM      7  N   UNL     1     -12.277   9.929  20.957  0.00  0.00    -0.061 NA
ATOM     14  C   UNL     1     -13.522   8.109  20.946  0.00  0.00    +0.245 A 
ATOM     17  C   UNL     1     -11.737   8.913  20.277  0.00  0.00    +0.176 A 
BRANCH  17  20
ATOM     20  C   UNL     1     -10.435   9.029  19.610  0.00  0.00    +0.114 C 
BRANCH  20  24
ATOM     24  C   UNL     1     -10.506   9.211  18.097  0.00  0.00    -0.040 A 
ATOM     25  C   UNL     1     -10.567  10.494  17.552  0.00  0.00    +0.004 A 
ATOM     26  C   UNL     1     -10.509   8.097  17.259  0.00  0.00    +0.004 A 
ATOM     27  C   UNL     1     -10.632  10.662  16.168  0.00  0.00    +0.000 A 
ATOM     28  C   UNL     1     -10.574   8.264  15.876  0.00  0.00    +0.000 A 
ATOM     29  C   UNL     1     -10.635   9.547  15.331  0.00  0.00    +0.000 A 
ENDBRANCH  20  24
ENDBRANCH  17  20
ENDBRANCH   8  14
BRANCH   3  13
ATOM     13  C   UNL     1     -15.997   8.063  19.315  0.00  0.00    +0.120 C 
BRANCH  13  15
ATOM     15  C   UNL     1     -15.660   7.880  17.859  0.00  0.00    -0.033 A 
ATOM     18  C   UNL     1     -16.583   7.286  16.998  0.00  0.00    +0.008 A 
ATOM     19  C   UNL     1     -14.424   8.305  17.371  0.00  0.00    +0.008 A 
ATOM     21  C   UNL     1     -16.271   7.117  15.649  0.00  0.00    +0.046 A 
ATOM     22  C   UNL     1     -14.112   8.136  16.023  0.00  0.00    +0.046 A 
ATOM     23  C   UNL     1     -15.035   7.542  15.161  0.00  0.00    +0.120 A 
BRANCH  23   2
ATOM      2  O   UNL     1     -14.729   7.378  13.845  0.00  0.00    -0.495 OA
ATOM     30  C   UNL     1     -13.349   7.446  13.486  0.00  0.00    +0.277 C 
ENDBRANCH  23   2
ENDBRANCH  13  15
ENDBRANCH   3  13
TORSDOF 6
ENDMDL
MODEL 5
REMARK VINA RESULT:      -6.3     24.321     28.531
REMARK  Name = 26744910
REMARK  7 active torsions:
REMARK  status: ('A' for Active; 'I' for Inactive)
REMARK    1  A    between atoms: O_2  and  C_23
REMARK    2  A    between atoms: O_2  and  C_30
REMARK    3  A    between atoms: N_3  and  C_13
REMARK    4  A    between atoms: C_8  and  C_14
REMARK    5  A    between atoms: C_13  and  C_15
REMARK    6  A    between atoms: C_17  and  C_20
REMARK    7  A    between atoms: C_20  and  C_24
REMARK                            x       y       z     vdW  Elec       q    Type
REMARK                         _______ _______ _______ _____ _____    ______ ____
ROOT
ATOM      3  N   UNL     1       9.644   7.026   6.094  0.00  0.00    -0.281 NA
ATOM      4  N   UNL     1       8.904   5.905   9.595  0.00  0.00    -0.347 N 
ATOM      5  N   UNL     1       9.569   3.896   8.876  0.00  0.00    -0.240 NA
ATOM      8  C   UNL     1      10.684   5.963   5.866  0.00  0.00    +0.152 C 
ATOM      9  C   UNL     1      10.314   4.604   6.558  0.00  0.00    +0.086 C 
ATOM     10  C   UNL     1       9.455   7.329   7.542  0.00  0.00    +0.140 C 
ATOM     11  C   UNL     1       9.361   6.081   8.325  0.00  0.00    +0.053 A 
ATOM     12  C   UNL     1       9.769   4.840   7.910  0.00  0.00    +0.065 A 
ATOM     16  C   UNL     1       9.049   4.570   9.883  0.00  0.00    +0.197 A 
ATOM     31  H   UNL     1       8.532   6.616  10.212  0.00  0.00    +0.167 HD
ENDROOT
BRANCH   8  14
ATOM      1  O   UNL     1      10.204   4.716   3.807  0.00  0.00    -0.336 OA
ATOM      6  N   UNL     1      11.841   6.229   3.594  0.00  0.00    -0.194 NA
ATOM      7  N   UNL     1      10.638   4.633   2.479  0.00  0.00    -0.061 NA
ATOM     14  C   UNL     1      10.963   5.678   4.394  0.00  0.00    +0.245 A 
ATOM     17  C   UNL     1      11.604   5.556   2.431  0.00  0.00    +0.176 A 
BRANCH  17  20
ATOM     20  C   UNL     1      12.362   5.825   1.203  0.00  0.00    +0.114 C 
BRANCH  20  24
ATOM     24  C   UNL     1      12.075   4.864   0.052  0.00  0.00    -0.040 A 
ATOM     25  C   UNL     1      11.040   5.137  -0.842  0.00  0.00    +0.004 A 
ATOM     26  C   UNL     1      12.848   3.715  -0.106  0.00  0.00    +0.004 A 
ATOM     27  C   UNL     1      10.778   4.260  -1.895  0.00  0.00    +0.000 A 
ATOM     28  C   UNL     1      12.586   2.837  -1.157  0.00  0.00    +0.000 A 
ATOM     29  C   UNL     1      11.551   3.110  -2.052  0.00  0.00    +0.000 A 
ENDBRANCH  20  24
ENDBRANCH  17  20
ENDBRANCH   8  14
BRANCH   3  13
ATOM     13  C   UNL     1       9.967   8.281   5.403  0.00  0.00    +0.120 C 
BRANCH  13  15
ATOM     15  C   UNL     1       8.837   8.744   4.522  0.00  0.00    -0.033 A 
ATOM     18  C   UNL     1       8.814   8.391   3.173  0.00  0.00    +0.008 A 
ATOM     19  C   UNL     1       7.812   9.525   5.056  0.00  0.00    +0.008 A 
ATOM     21  C   UNL     1       7.766   8.819   2.358  0.00  0.00    +0.046 A 
ATOM     22  C   UNL     1       6.765   9.954   4.242  0.00  0.00    +0.046 A 
ATOM     23  C   UNL     1       6.742   9.600   2.892  0.00  0.00    +0.120 A 
BRANCH  23   2
ATOM      2  O   UNL     1       5.719  10.018   2.097  0.00  0.00    -0.495 OA
ATOM     30  C   UNL     1       5.796   9.685   0.711  0.00  0.00    +0.277 C 
ENDBRANCH  23   2
ENDBRANCH  13  15
ENDBRANCH   3  13
TORSDOF 6
ENDMDL
MODEL 6
REMARK VINA RESULT:      -6.3     26.052     31.249
REMARK  Name = 26744910
REMARK  7 active torsions:
REMARK  status: ('A' for Active; 'I' for Inactive)
REMARK    1  A    between atoms: O_2  and  C_23
REMARK    2  A    between atoms: O_2  and  C_30
REMARK    3  A    between atoms: N_3  and  C_13
REMARK    4  A    between atoms: C_8  and  C_14
REMARK    5  A    between atoms: C_13  and  C_15
REMARK    6  A    between atoms: C_17  and  C_20
REMARK    7  A    between atoms: C_20  and  C_24
REMARK                            x       y       z     vdW  Elec       q    Type
REMARK                         _______ _______ _______ _____ _____    ______ ____
ROOT
ATOM      3  N   UNL     1      11.846   6.702   4.594  0.00  0.00    -0.281 NA
ATOM      4  N   UNL     1       9.413   5.519   7.191  0.00  0.00    -0.347 N 
ATOM      5  N   UNL     1      11.137   5.707   8.601  0.00  0.00    -0.240 NA
ATOM      8  C   UNL     1      12.689   7.458   5.583  0.00  0.00    +0.152 C 
ATOM      9  C   UNL     1      12.788   6.728   6.969  0.00  0.00    +0.086 C 
ATOM     10  C   UNL     1      10.445   6.514   5.073  0.00  0.00    +0.140 C 
ATOM     11  C   UNL     1      10.433   6.074   6.482  0.00  0.00    +0.053 A 
ATOM     12  C   UNL     1      11.474   6.185   7.367  0.00  0.00    +0.065 A 
ATOM     16  C   UNL     1       9.885   5.315   8.465  0.00  0.00    +0.197 A 
ATOM     31  H   UNL     1       8.484   5.302   6.853  0.00  0.00    +0.167 HD
ENDROOT
BRANCH   8  14
ATOM      1  O   UNL     1      14.701   6.763   4.362  0.00  0.00    -0.336 OA
ATOM      6  N   UNL     1      14.857   8.795   5.290  0.00  0.00    -0.194 NA
ATOM      7  N   UNL     1      15.977   7.240   4.040  0.00  0.00    -0.061 NA
ATOM     14  C   UNL     1      14.108   7.738   5.099  0.00  0.00    +0.245 A 
ATOM     17  C   UNL     1      15.993   8.443   4.622  0.00  0.00    +0.176 A 
BRANCH  17  20
ATOM     20  C   UNL     1      17.162   9.327   4.547  0.00  0.00    +0.114 C 
BRANCH  20  24
ATOM     24  C   UNL     1      18.454   8.727   5.092  0.00  0.00    -0.040 A 
ATOM     25  C   UNL     1      19.270   7.958   4.262  0.00  0.00    +0.004 A 
ATOM     26  C   UNL     1      18.820   8.947   6.419  0.00  0.00    +0.004 A 
ATOM     27  C   UNL     1      20.452   7.408   4.760  0.00  0.00    +0.000 A 
ATOM     28  C   UNL     1      20.001   8.397   6.918  0.00  0.00    +0.000 A 
ATOM     29  C   UNL     1      20.817   7.628   6.088  0.00  0.00    +0.000 A 
ENDBRANCH  20  24
ENDBRANCH  17  20
ENDBRANCH   8  14
BRANCH   3  13
ATOM     13  C   UNL     1      11.796   7.361   3.282  0.00  0.00    +0.120 C 
BRANCH  13  15
ATOM     15  C   UNL     1      11.480   6.388   2.177  0.00  0.00    -0.033 A 
ATOM     18  C   UNL     1      12.266   5.248   2.006  0.00  0.00    +0.008 A 
ATOM     19  C   UNL     1      10.402   6.626   1.326  0.00  0.00    +0.008 A 
ATOM     21  C   UNL     1      11.972   4.346   0.982  0.00  0.00    +0.046 A 
ATOM     22  C   UNL     1      10.109   5.726   0.302  0.00  0.00    +0.046 A 
ATOM     23  C   UNL     1      10.894   4.586   0.131  0.00  0.00    +0.120 A 
BRANCH  23   2
ATOM      2  O   UNL     1      10.607   3.706  -0.868  0.00  0.00    -0.495 OA
ATOM     30  C   UNL     1      11.686   3.313  -1.716  0.00  0.00    +0.277 C 
ENDBRANCH  23   2
ENDBRANCH  13  15
ENDBRANCH   3  13
TORSDOF 6
ENDMDL
MODEL 7
REMARK VINA RESULT:      -6.2     18.642     22.444
REMARK  Name = 26744910
REMARK  7 active torsions:
REMARK  status: ('A' for Active; 'I' for Inactive)
REMARK    1  A    between atoms: O_2  and  C_23
REMARK    2  A    between atoms: O_2  and  C_30
REMARK    3  A    between atoms: N_3  and  C_13
REMARK    4  A    between atoms: C_8  and  C_14
REMARK    5  A    between atoms: C_13  and  C_15
REMARK    6  A    between atoms: C_17  and  C_20
REMARK    7  A    between atoms: C_20  and  C_24
REMARK                            x       y       z     vdW  Elec       q    Type
REMARK                         _______ _______ _______ _____ _____    ______ ____
ROOT
ATOM      3  N   UNL     1       0.713 -14.229  -4.138  0.00  0.00    -0.281 NA
ATOM      4  N   UNL     1      -0.013 -12.417  -7.340  0.00  0.00    -0.347 N 
ATOM      5  N   UNL     1       2.195 -12.081  -7.414  0.00  0.00    -0.240 NA
ATOM      8  C   UNL     1       2.110 -14.604  -4.549  0.00  0.00    +0.152 C 
ATOM      9  C   UNL     1       2.810 -13.478  -5.388  0.00  0.00    +0.086 C 
ATOM     10  C   UNL     1      -0.170 -13.969  -5.312  0.00  0.00    +0.140 C 
ATOM     11  C   UNL     1       0.519 -13.116  -6.300  0.00  0.00    +0.053 A 
ATOM     12  C   UNL     1       1.871 -12.900  -6.370  0.00  0.00    +0.065 A 
ATOM     16  C   UNL     1       1.037 -11.809  -7.983  0.00  0.00    +0.197 A 
ATOM     31  H   UNL     1      -0.990 -12.358  -7.597  0.00  0.00    +0.167 HD
ENDROOT
BRANCH   8  14
ATOM      1  O   UNL     1       3.519 -16.219  -3.353  0.00  0.00    -0.336 OA
ATOM      6  N   UNL     1       3.413 -14.205  -2.378  0.00  0.00    -0.194 NA
ATOM      7  N   UNL     1       4.316 -16.301  -2.205  0.00  0.00    -0.061 NA
ATOM     14  C   UNL     1       3.025 -14.953  -3.380  0.00  0.00    +0.245 A 
ATOM     17  C   UNL     1       4.204 -15.075  -1.684  0.00  0.00    +0.176 A 
BRANCH  17  20
ATOM     20  C   UNL     1       4.887 -14.692  -0.443  0.00  0.00    +0.114 C 
BRANCH  20  24
ATOM     24  C   UNL     1       4.431 -15.451   0.799  0.00  0.00    -0.040 A 
ATOM     25  C   UNL     1       5.344 -16.223   1.518  0.00  0.00    +0.004 A 
ATOM     26  C   UNL     1       3.103 -15.375   1.215  0.00  0.00    +0.004 A 
ATOM     27  C   UNL     1       4.928 -16.918   2.655  0.00  0.00    +0.000 A 
ATOM     28  C   UNL     1       2.686 -16.070   2.350  0.00  0.00    +0.000 A 
ATOM     29  C   UNL     1       3.599 -16.841   3.070  0.00  0.00    +0.000 A 
ENDBRANCH  20  24
ENDBRANCH  17  20
ENDBRANCH   8  14
BRANCH   3  13
ATOM     13  C   UNL     1       0.078 -15.263  -3.310  0.00  0.00    +0.120 C 
BRANCH  13  15
ATOM     15  C   UNL     1      -0.520 -14.687  -2.053  0.00  0.00    -0.033 A 
ATOM     18  C   UNL     1      -1.759 -14.047  -2.100  0.00  0.00    +0.008 A 
ATOM     19  C   UNL     1       0.165 -14.794  -0.843  0.00  0.00    +0.008 A 
ATOM     21  C   UNL     1      -2.313 -13.514  -0.935  0.00  0.00    +0.046 A 
ATOM     22  C   UNL     1      -0.388 -14.261   0.320  0.00  0.00    +0.046 A 
ATOM     23  C   UNL     1      -1.627 -13.621   0.275  0.00  0.00    +0.120 A 
BRANCH  23   2
ATOM      2  O   UNL     1      -2.167 -13.102   1.411  0.00  0.00    -0.495 OA
ATOM     30  C   UNL     1      -1.907 -13.798   2.630  0.00  0.00    +0.277 C 
ENDBRANCH  23   2
ENDBRANCH  13  15
ENDBRANCH   3  13
TORSDOF 6
ENDMDL
MODEL 8
REMARK VINA RESULT:      -6.2      2.099      4.529
REMARK  Name = 26744910
REMARK  7 active torsions:
REMARK  status: ('A' for Active; 'I' for Inactive)
REMARK    1  A    between atoms: O_2  and  C_23
REMARK    2  A    between atoms: O_2  and  C_30
REMARK    3  A    between atoms: N_3  and  C_13
REMARK    4  A    between atoms: C_8  and  C_14
REMARK    5  A    between atoms: C_13  and  C_15
REMARK    6  A    between atoms: C_17  and  C_20
REMARK    7  A    between atoms: C_20  and  C_24
REMARK                            x       y       z     vdW  Elec       q    Type
REMARK                         _______ _______ _______ _____ _____    ______ ____
ROOT
ATOM      3  N   UNL     1      -5.356 -11.374  17.074  0.00  0.00    -0.281 NA
ATOM      4  N   UNL     1      -2.081 -11.750  15.286  0.00  0.00    -0.347 N 
ATOM      5  N   UNL     1      -3.088 -10.636  13.630  0.00  0.00    -0.240 NA
ATOM      8  C   UNL     1      -5.727 -10.114  16.341  0.00  0.00    +0.152 C 
ATOM      9  C   UNL     1      -5.258 -10.132  14.843  0.00  0.00    +0.086 C 
ATOM     10  C   UNL     1      -3.881 -11.601  17.097  0.00  0.00    +0.140 C 
ATOM     11  C   UNL     1      -3.301 -11.375  15.758  0.00  0.00    +0.053 A 
ATOM     12  C   UNL     1      -3.895 -10.689  14.731  0.00  0.00    +0.065 A 
ATOM     16  C   UNL     1      -1.998 -11.282  13.997  0.00  0.00    +0.197 A 
ATOM     31  H   UNL     1      -1.368 -12.268  15.783  0.00  0.00    +0.167 HD
ENDROOT
BRANCH   8  14
ATOM      1  O   UNL     1      -7.987 -10.462  15.451  0.00  0.00    -0.336 OA
ATOM      6  N   UNL     1      -7.888  -8.987  17.133  0.00  0.00    -0.194 NA
ATOM      7  N   UNL     1      -9.299 -10.020  15.657  0.00  0.00    -0.061 NA
ATOM     14  C   UNL     1      -7.220  -9.805  16.360  0.00  0.00    +0.245 A 
ATOM     17  C   UNL     1      -9.159  -9.152  16.664  0.00  0.00    +0.176 A 
BRANCH  17  20
ATOM     20  C   UNL     1     -10.302  -8.425  17.228  0.00  0.00    +0.114 C 
BRANCH  20  24
ATOM     24  C   UNL     1     -11.196  -9.252  18.147  0.00  0.00    -0.040 A 
ATOM     25  C   UNL     1     -10.636  -9.968  19.205  0.00  0.00    +0.004 A 
ATOM     26  C   UNL     1     -12.573  -9.292  17.929  0.00  0.00    +0.004 A 
ATOM     27  C   UNL     1     -11.454 -10.724  20.046  0.00  0.00    +0.000 A 
ATOM     28  C   UNL     1     -13.390 -10.049  18.769  0.00  0.00    +0.000 A 
ATOM     29  C   UNL     1     -12.830 -10.764  19.827  0.00  0.00    +0.000 A 
ENDBRANCH  20  24
ENDBRANCH  17  20
ENDBRANCH   8  14
BRANCH   3  13
ATOM     13  C   UNL     1      -5.840 -11.377  18.460  0.00  0.00    +0.120 C 
BRANCH  13  15
ATOM     15  C   UNL     1      -6.957 -12.367  18.663  0.00  0.00    -0.033 A 
ATOM     18  C   UNL     1      -7.668 -12.380  19.863  0.00  0.00    +0.008 A 
ATOM     19  C   UNL     1      -7.282 -13.268  17.649  0.00  0.00    +0.008 A 
ATOM     21  C   UNL     1      -8.704 -13.296  20.050  0.00  0.00    +0.046 A 
ATOM     22  C   UNL     1      -8.317 -14.183  17.836  0.00  0.00    +0.046 A 
ATOM     23  C   UNL     1      -9.028 -14.198  19.036  0.00  0.00    +0.120 A 
BRANCH  23   2
ATOM      2  O   UNL     1     -10.038 -15.092  19.217  0.00  0.00    -0.495 OA
ATOM     30  C   UNL     1     -10.074 -16.218  18.341  0.00  0.00    +0.277 C 
ENDBRANCH  23   2
ENDBRANCH  13  15
ENDBRANCH   3  13
TORSDOF 6
ENDMDL
MODEL 9
REMARK VINA RESULT:      -6.2     28.556     29.809
REMARK  Name = 26744910
REMARK  7 active torsions:
REMARK  status: ('A' for Active; 'I' for Inactive)
REMARK    1  A    between atoms: O_2  and  C_23
REMARK    2  A    between atoms: O_2  and  C_30
REMARK    3  A    between atoms: N_3  and  C_13
REMARK    4  A    between atoms: C_8  and  C_14
REMARK    5  A    between atoms: C_13  and  C_15
REMARK    6  A    between atoms: C_17  and  C_20
REMARK    7  A    between atoms: C_20  and  C_24
REMARK                            x       y       z     vdW  Elec       q    Type
REMARK                         _______ _______ _______ _____ _____    ______ ____
ROOT
ATOM      3  N   UNL     1      -2.561  10.385  36.913  0.00  0.00    -0.281 NA
ATOM      4  N   UNL     1      -1.728  12.972  34.329  0.00  0.00    -0.347 N 
ATOM      5  N   UNL     1       0.380  12.285  34.615  0.00  0.00    -0.240 NA
ATOM      8  C   UNL     1      -1.378   9.519  36.574  0.00  0.00    +0.152 C 
ATOM      9  C   UNL     1      -0.110  10.361  36.193  0.00  0.00    +0.086 C 
ATOM     10  C   UNL     1      -2.964  11.261  35.775  0.00  0.00    +0.140 C 
ATOM     11  C   UNL     1      -1.780  11.902  35.170  0.00  0.00    +0.053 A 
ATOM     12  C   UNL     1      -0.480  11.496  35.324  0.00  0.00    +0.065 A 
ATOM     16  C   UNL     1      -0.403  13.165  34.021  0.00  0.00    +0.197 A 
ATOM     31  H   UNL     1      -2.509  13.518  33.990  0.00  0.00    +0.167 HD
ENDROOT
BRANCH   8  14
ATOM      1  O   UNL     1      -0.460   9.105  38.812  0.00  0.00    -0.336 OA
ATOM      6  N   UNL     1      -1.068   7.247  37.719  0.00  0.00    -0.194 NA
ATOM      7  N   UNL     1      -0.176   8.037  39.672  0.00  0.00    -0.061 NA
ATOM     14  C   UNL     1      -0.982   8.553  37.685  0.00  0.00    +0.245 A 
ATOM     17  C   UNL     1      -0.562   6.976  38.957  0.00  0.00    +0.176 A 
BRANCH  17  20
ATOM     20  C   UNL     1      -0.447   5.607  39.473  0.00  0.00    +0.114 C 
BRANCH  20  24
ATOM     24  C   UNL     1      -1.148   5.365  40.806  0.00  0.00    -0.040 A 
ATOM     25  C   UNL     1      -0.395   5.127  41.956  0.00  0.00    +0.004 A 
ATOM     26  C   UNL     1      -2.540   5.384  40.876  0.00  0.00    +0.004 A 
ATOM     27  C   UNL     1      -1.036   4.906  43.176  0.00  0.00    +0.000 A 
ATOM     28  C   UNL     1      -3.181   5.162  42.095  0.00  0.00    +0.000 A 
ATOM     29  C   UNL     1      -2.428   4.924  43.245  0.00  0.00    +0.000 A 
ENDBRANCH  20  24
ENDBRANCH  17  20
ENDBRANCH   8  14
BRANCH   3  13
ATOM     13  C   UNL     1      -3.732   9.596  37.319  0.00  0.00    +0.120 C 
BRANCH  13  15
ATOM     15  C   UNL     1      -3.937   9.623  38.811  0.00  0.00    -0.033 A 
ATOM     18  C   UNL     1      -3.813  10.824  39.510  0.00  0.00    +0.008 A 
ATOM     19  C   UNL     1      -4.252   8.448  39.493  0.00  0.00    +0.008 A 
ATOM     21  C   UNL     1      -4.004  10.849  40.892  0.00  0.00    +0.046 A 
ATOM     22  C   UNL     1      -4.442   8.473  40.873  0.00  0.00    +0.046 A 
ATOM     23  C   UNL     1      -4.318   9.673  41.573  0.00  0.00    +0.120 A 
BRANCH  23   2
ATOM      2  O   UNL     1      -4.504   9.697  42.921  0.00  0.00    -0.495 OA
ATOM     30  C   UNL     1      -5.316   8.665  43.483  0.00  0.00    +0.277 C 
ENDBRANCH  23   2
ENDBRANCH  13  15
ENDBRANCH   3  13
TORSDOF 6
ENDMDL
MODEL 10
REMARK VINA RESULT:      -6.1      2.198      5.444
REMARK  Name = 26744910
REMARK  7 active torsions:
REMARK  status: ('A' for Active; 'I' for Inactive)
REMARK    1  A    between atoms: O_2  and  C_23
REMARK    2  A    between atoms: O_2  and  C_30
REMARK    3  A    between atoms: N_3  and  C_13
REMARK    4  A    between atoms: C_8  and  C_14
REMARK    5  A    between atoms: C_13  and  C_15
REMARK    6  A    between atoms: C_17  and  C_20
REMARK    7  A    between atoms: C_20  and  C_24
REMARK                            x       y       z     vdW  Elec       q    Type
REMARK                         _______ _______ _______ _____ _____    ______ ____
ROOT
ATOM      3  N   UNL     1      -6.300 -10.686  17.792  0.00  0.00    -0.281 NA
ATOM      4  N   UNL     1      -2.920 -11.424  16.345  0.00  0.00    -0.347 N 
ATOM      5  N   UNL     1      -3.796 -10.662  14.435  0.00  0.00    -0.240 NA
ATOM      8  C   UNL     1      -6.600  -9.598  16.798  0.00  0.00    +0.152 C 
ATOM      9  C   UNL     1      -6.033  -9.918  15.370  0.00  0.00    +0.086 C 
ATOM     10  C   UNL     1      -4.835 -10.908  17.962  0.00  0.00    +0.140 C 
ATOM     11  C   UNL     1      -4.162 -10.958  16.648  0.00  0.00    +0.053 A 
ATOM     12  C   UNL     1      -4.675 -10.491  15.466  0.00  0.00    +0.065 A 
ATOM     16  C   UNL     1      -2.744 -11.224  14.998  0.00  0.00    +0.197 A 
ATOM     31  H   UNL     1      -2.251 -11.834  16.985  0.00  0.00    +0.167 HD
ENDROOT
BRANCH   8  14
ATOM      1  O   UNL     1      -8.763  -9.991  15.707  0.00  0.00    -0.336 OA
ATOM      6  N   UNL     1      -8.823  -8.428  17.311  0.00  0.00    -0.194 NA
ATOM      7  N   UNL     1     -10.086  -9.537  15.758  0.00  0.00    -0.061 NA
ATOM     14  C   UNL     1      -8.086  -9.287  16.652  0.00  0.00    +0.245 A 
ATOM     17  C   UNL     1     -10.042  -8.617  16.727  0.00  0.00    +0.176 A 
BRANCH  17  20
ATOM     20  C   UNL     1     -11.230  -7.860  17.135  0.00  0.00    +0.114 C 
BRANCH  20  24
ATOM     24  C   UNL     1     -11.940  -7.125  16.002  0.00  0.00    -0.040 A 
ATOM     25  C   UNL     1     -13.256  -7.455  15.674  0.00  0.00    +0.004 A 
ATOM     26  C   UNL     1     -11.275  -6.125  15.294  0.00  0.00    +0.004 A 
ATOM     27  C   UNL     1     -13.906  -6.783  14.638  0.00  0.00    +0.000 A 
ATOM     28  C   UNL     1     -11.925  -5.454  14.257  0.00  0.00    +0.000 A 
ATOM     29  C   UNL     1     -13.240  -5.784  13.930  0.00  0.00    +0.000 A 
ENDBRANCH  20  24
ENDBRANCH  17  20
ENDBRANCH   8  14
BRANCH   3  13
ATOM     13  C   UNL     1      -6.876 -10.409  19.115  0.00  0.00    +0.120 C 
BRANCH  13  15
ATOM     15  C   UNL     1      -7.967 -11.386  19.468  0.00  0.00    -0.033 A 
ATOM     18  C   UNL     1      -7.683 -12.750  19.544  0.00  0.00    +0.008 A 
ATOM     19  C   UNL     1      -9.259 -10.927  19.722  0.00  0.00    +0.008 A 
ATOM     21  C   UNL     1      -8.693 -13.655  19.872  0.00  0.00    +0.046 A 
ATOM     22  C   UNL     1     -10.268 -11.831  20.049  0.00  0.00    +0.046 A 
ATOM     23  C   UNL     1      -9.986 -13.195  20.125  0.00  0.00    +0.120 A 
BRANCH  23   2
ATOM      2  O   UNL     1     -10.971 -14.077  20.445  0.00  0.00    -0.495 OA
ATOM     30  C   UNL     1     -12.139 -14.071  19.625  0.00  0.00    +0.277 C 
ENDBRANCH  23   2
ENDBRANCH  13  15
ENDBRANCH   3  13
TORSDOF 6
ENDMDL
