MODEL 1
REMARK VINA RESULT:      -7.1      0.000      0.000
REMARK  Name = 11913153
REMARK  7 active torsions:
REMARK  status: ('A' for Active; 'I' for Inactive)
REMARK    1  A    between atoms: O_3  and  C_13
REMARK    2  A    between atoms: O_3  and  C_17
REMARK    3  A    between atoms: O_5  and  C_27
REMARK    4  A    between atoms: O_5  and  C_28
REMARK    5  A    between atoms: N_6  and  C_12
REMARK    6  A    between atoms: C_17  and  C_18
REMARK    7  A    between atoms: C_19  and  C_22
REMARK                            x       y       z     vdW  Elec       q    Type
REMARK                         _______ _______ _______ _____ _____    ______ ____
ROOT
ATOM      6  N   UNL     1      12.460   5.511   2.966  0.00  0.00    -0.306 N 
ATOM      7  N   UNL     1      12.222   4.611   0.813  0.00  0.00    -0.214 NA
ATOM      8  N   UNL     1      14.395   4.822   1.834  0.00  0.00    -0.223 NA
ATOM     16  C   UNL     1      13.043   4.965   1.837  0.00  0.00    +0.216 A 
ATOM     19  C   UNL     1      12.825   4.081  -0.273  0.00  0.00    +0.076 A 
ATOM     20  C   UNL     1      14.931   4.286   0.717  0.00  0.00    +0.116 A 
ATOM     21  C   UNL     1      14.188   3.894  -0.379  0.00  0.00    +0.048 A 
ATOM     29  H   UNL     1      13.085   5.819   3.703  0.00  0.00    +0.149 HD
ENDROOT
BRANCH   6  12
ATOM      1  O   UNL     1      10.407   4.652   5.138  0.00  0.00    -0.369 OA
ATOM      2  O   UNL     1       9.438   7.321   3.977  0.00  0.00    -0.369 OA
ATOM     10  C   UNL     1      10.764   6.780   4.154  0.00  0.00    +0.172 C 
ATOM     11  C   UNL     1      10.753   6.009   5.459  0.00  0.00    +0.180 C 
ATOM     12  C   UNL     1      11.034   5.723   3.108  0.00  0.00    +0.130 C 
ATOM     13  C   UNL     1       9.655   6.697   6.235  0.00  0.00    +0.176 C 
ATOM     14  C   UNL     1      10.376   4.494   3.711  0.00  0.00    +0.185 C 
ATOM     15  C   UNL     1       8.660   7.035   5.148  0.00  0.00    +0.194 C 
BRANCH  13   3
ATOM      3  O   UNL     1       9.087   5.890   7.243  0.00  0.00    -0.362 OA
BRANCH   3  17
ATOM     17  C   UNL     1       9.650   6.160   8.523  0.00  0.00    +0.255 C 
BRANCH  17  18
ATOM      4  O   UNL     1      10.164   4.738  10.409  0.00  0.00    -0.274 OA
ATOM      9  N   UNL     1      10.185   3.830   8.294  0.00  0.00    -0.327 N 
ATOM     18  C   UNL     1      10.023   4.860   9.195  0.00  0.00    +0.236 C 
ATOM     30  H   UNL     1      10.062   3.960   7.295  0.00  0.00    +0.145 HD
ATOM     31  H   UNL     1      10.435   2.898   8.607  0.00  0.00    +0.145 HD
ENDBRANCH  17  18
ENDBRANCH   3  17
ENDBRANCH  13   3
ENDBRANCH   6  12
BRANCH  19  22
ATOM     22  C   UNL     1      11.937   3.714  -1.349  0.00  0.00    +0.001 A 
ATOM     23  C   UNL     1      10.922   4.585  -1.749  0.00  0.00    +0.013 A 
ATOM     24  C   UNL     1      12.090   2.486  -1.995  0.00  0.00    +0.013 A 
ATOM     25  C   UNL     1      10.064   4.231  -2.790  0.00  0.00    +0.046 A 
ATOM     26  C   UNL     1      11.233   2.130  -3.037  0.00  0.00    +0.046 A 
ATOM     27  C   UNL     1      10.220   3.004  -3.434  0.00  0.00    +0.120 A 
BRANCH  27   5
ATOM      5  O   UNL     1       9.383   2.657  -4.451  0.00  0.00    -0.495 OA
ATOM     28  C   UNL     1       9.875   2.817  -5.780  0.00  0.00    +0.277 C 
ENDBRANCH  27   5
ENDBRANCH  19  22
TORSDOF 6
ENDMDL
MODEL 2
REMARK VINA RESULT:      -6.8      2.497      9.415
REMARK  Name = 11913153
REMARK  7 active torsions:
REMARK  status: ('A' for Active; 'I' for Inactive)
REMARK    1  A    between atoms: O_3  and  C_13
REMARK    2  A    between atoms: O_3  and  C_17
REMARK    3  A    between atoms: O_5  and  C_27
REMARK    4  A    between atoms: O_5  and  C_28
REMARK    5  A    between atoms: N_6  and  C_12
REMARK    6  A    between atoms: C_17  and  C_18
REMARK    7  A    between atoms: C_19  and  C_22
REMARK                            x       y       z     vdW  Elec       q    Type
REMARK                         _______ _______ _______ _____ _____    ______ ____
ROOT
ATOM      6  N   UNL     1      10.033   6.687   1.258  0.00  0.00    -0.306 N 
ATOM      7  N   UNL     1       9.577   6.650   3.559  0.00  0.00    -0.214 NA
ATOM      8  N   UNL     1       8.502   8.247   2.109  0.00  0.00    -0.223 NA
ATOM     16  C   UNL     1       9.351   7.211   2.341  0.00  0.00    +0.216 A 
ATOM     19  C   UNL     1       8.895   7.186   4.593  0.00  0.00    +0.076 A 
ATOM     20  C   UNL     1       7.854   8.734   3.188  0.00  0.00    +0.116 A 
ATOM     21  C   UNL     1       8.012   8.239   4.467  0.00  0.00    +0.048 A 
ATOM     29  H   UNL     1       9.895   7.145   0.364  0.00  0.00    +0.149 HD
ENDROOT
BRANCH   6  12
ATOM      1  O   UNL     1      10.365   4.053  -0.362  0.00  0.00    -0.369 OA
ATOM      2  O   UNL     1      13.157   4.889   0.596  0.00  0.00    -0.369 OA
ATOM     10  C   UNL     1      11.991   5.667   0.249  0.00  0.00    +0.172 C 
ATOM     11  C   UNL     1      11.326   4.964  -0.918  0.00  0.00    +0.180 C 
ATOM     12  C   UNL     1      10.967   5.585   1.356  0.00  0.00    +0.130 C 
ATOM     13  C   UNL     1      12.481   4.234  -1.561  0.00  0.00    +0.176 C 
ATOM     14  C   UNL     1      10.267   4.272   1.054  0.00  0.00    +0.185 C 
ATOM     15  C   UNL     1      13.311   3.832  -0.362  0.00  0.00    +0.194 C 
BRANCH  13   3
ATOM      3  O   UNL     1      12.085   3.120  -2.329  0.00  0.00    -0.362 OA
BRANCH   3  17
ATOM     17  C   UNL     1      11.489   3.508  -3.563  0.00  0.00    +0.255 C 
BRANCH  17  18
ATOM      4  O   UNL     1       9.610   2.707  -4.856  0.00  0.00    -0.274 OA
ATOM      9  N   UNL     1       9.927   1.885  -2.730  0.00  0.00    -0.327 N 
ATOM     18  C   UNL     1      10.252   2.677  -3.809  0.00  0.00    +0.236 C 
ATOM     30  H   UNL     1      10.477   1.881  -1.876  0.00  0.00    +0.145 HD
ATOM     31  H   UNL     1       9.119   1.273  -2.756  0.00  0.00    +0.145 HD
ENDBRANCH  17  18
ENDBRANCH   3  17
ENDBRANCH  13   3
ENDBRANCH   6  12
BRANCH  19  22
ATOM     22  C   UNL     1       9.151   6.579   5.877  0.00  0.00    +0.001 A 
ATOM     23  C   UNL     1       9.706   5.300   5.949  0.00  0.00    +0.013 A 
ATOM     24  C   UNL     1       8.846   7.269   7.052  0.00  0.00    +0.013 A 
ATOM     25  C   UNL     1       9.955   4.713   7.189  0.00  0.00    +0.046 A 
ATOM     26  C   UNL     1       9.094   6.683   8.293  0.00  0.00    +0.046 A 
ATOM     27  C   UNL     1       9.649   5.405   8.362  0.00  0.00    +0.120 A 
BRANCH  27   5
ATOM      5  O   UNL     1       9.892   4.833   9.573  0.00  0.00    -0.495 OA
ATOM     28  C   UNL     1       8.766   4.591  10.414  0.00  0.00    +0.277 C 
ENDBRANCH  27   5
ENDBRANCH  19  22
TORSDOF 6
ENDMDL
MODEL 3
REMARK VINA RESULT:      -6.7     17.184     20.619
REMARK  Name = 11913153
REMARK  7 active torsions:
REMARK  status: ('A' for Active; 'I' for Inactive)
REMARK    1  A    between atoms: O_3  and  C_13
REMARK    2  A    between atoms: O_3  and  C_17
REMARK    3  A    between atoms: O_5  and  C_27
REMARK    4  A    between atoms: O_5  and  C_28
REMARK    5  A    between atoms: N_6  and  C_12
REMARK    6  A    between atoms: C_17  and  C_18
REMARK    7  A    between atoms: C_19  and  C_22
REMARK                            x       y       z     vdW  Elec       q    Type
REMARK                         _______ _______ _______ _____ _____    ______ ____
ROOT
ATOM      6  N   UNL     1      16.466   9.114  20.668  0.00  0.00    -0.306 N 
ATOM      7  N   UNL     1      18.358   7.826  21.185  0.00  0.00    -0.214 NA
ATOM      8  N   UNL     1      18.083  10.042  22.092  0.00  0.00    -0.223 NA
ATOM     16  C   UNL     1      17.672   8.990  21.335  0.00  0.00    +0.216 A 
ATOM     19  C   UNL     1      19.530   7.740  21.848  0.00  0.00    +0.076 A 
ATOM     20  C   UNL     1      19.263   9.888  22.728  0.00  0.00    +0.116 A 
ATOM     21  C   UNL     1      20.038   8.748  22.642  0.00  0.00    +0.048 A 
ATOM     29  H   UNL     1      15.988  10.005  20.746  0.00  0.00    +0.149 HD
ENDROOT
BRANCH   6  12
ATOM      1  O   UNL     1      13.781   7.547  20.757  0.00  0.00    -0.369 OA
ATOM      2  O   UNL     1      14.602   7.778  17.810  0.00  0.00    -0.369 OA
ATOM     10  C   UNL     1      14.828   8.651  18.937  0.00  0.00    +0.172 C 
ATOM     11  C   UNL     1      13.578   8.593  19.794  0.00  0.00    +0.180 C 
ATOM     12  C   UNL     1      15.906   8.077  19.827  0.00  0.00    +0.130 C 
ATOM     13  C   UNL     1      12.511   8.229  18.790  0.00  0.00    +0.176 C 
ATOM     14  C   UNL     1      15.134   7.075  20.668  0.00  0.00    +0.185 C 
ATOM     15  C   UNL     1      13.252   7.294  17.861  0.00  0.00    +0.194 C 
BRANCH  13   3
ATOM      3  O   UNL     1      11.380   7.617  19.368  0.00  0.00    -0.362 OA
BRANCH   3  17
ATOM     17  C   UNL     1      10.828   8.402  20.421  0.00  0.00    +0.255 C 
BRANCH  17  18
ATOM      4  O   UNL     1      10.254   7.969  22.728  0.00  0.00    -0.274 OA
ATOM      9  N   UNL     1      10.864   6.203  21.385  0.00  0.00    -0.327 N 
ATOM     18  C   UNL     1      10.613   7.534  21.638  0.00  0.00    +0.236 C 
ATOM     30  H   UNL     1      11.160   5.871  20.472  0.00  0.00    +0.145 HD
ATOM     31  H   UNL     1      10.759   5.504  22.113  0.00  0.00    +0.145 HD
ENDBRANCH  17  18
ENDBRANCH   3  17
ENDBRANCH  13   3
ENDBRANCH   6  12
BRANCH  19  22
ATOM     22  C   UNL     1      20.243   6.498  21.674  0.00  0.00    +0.001 A 
ATOM     23  C   UNL     1      21.173   6.084  22.630  0.00  0.00    +0.013 A 
ATOM     24  C   UNL     1      20.004   5.704  20.551  0.00  0.00    +0.013 A 
ATOM     25  C   UNL     1      21.862   4.883  22.462  0.00  0.00    +0.046 A 
ATOM     26  C   UNL     1      20.692   4.503  20.382  0.00  0.00    +0.046 A 
ATOM     27  C   UNL     1      21.622   4.092  21.339  0.00  0.00    +0.120 A 
BRANCH  27   5
ATOM      5  O   UNL     1      22.294   2.919  21.175  0.00  0.00    -0.495 OA
ATOM     28  C   UNL     1      23.362   2.651  22.080  0.00  0.00    +0.277 C 
ENDBRANCH  27   5
ENDBRANCH  19  22
TORSDOF 6
ENDMDL
MODEL 4
REMARK VINA RESULT:      -6.7     23.318     26.330
REMARK  Name = 11913153
REMARK  7 active torsions:
REMARK  status: ('A' for Active; 'I' for Inactive)
REMARK    1  A    between atoms: O_3  and  C_13
REMARK    2  A    between atoms: O_3  and  C_17
REMARK    3  A    between atoms: O_5  and  C_27
REMARK    4  A    between atoms: O_5  and  C_28
REMARK    5  A    between atoms: N_6  and  C_12
REMARK    6  A    between atoms: C_17  and  C_18
REMARK    7  A    between atoms: C_19  and  C_22
REMARK                            x       y       z     vdW  Elec       q    Type
REMARK                         _______ _______ _______ _____ _____    ______ ____
ROOT
ATOM      6  N   UNL     1      -3.437 -10.548  12.512  0.00  0.00    -0.306 N 
ATOM      7  N   UNL     1      -3.992 -10.652  14.789  0.00  0.00    -0.214 NA
ATOM      8  N   UNL     1      -1.691 -10.587  14.077  0.00  0.00    -0.223 NA
ATOM     16  C   UNL     1      -3.028 -10.597  13.832  0.00  0.00    +0.216 A 
ATOM     19  C   UNL     1      -3.558 -10.699  16.066  0.00  0.00    +0.076 A 
ATOM     20  C   UNL     1      -1.327 -10.637  15.376  0.00  0.00    +0.116 A 
ATOM     21  C   UNL     1      -2.224 -10.695  16.423  0.00  0.00    +0.048 A 
ATOM     29  H   UNL     1      -2.710 -10.559  11.805  0.00  0.00    +0.149 HD
ENDROOT
BRANCH   6  12
ATOM      1  O   UNL     1      -4.950  -9.175  10.167  0.00  0.00    -0.369 OA
ATOM      2  O   UNL     1      -6.398 -11.814  10.762  0.00  0.00    -0.369 OA
ATOM     10  C   UNL     1      -5.011 -11.433  10.889  0.00  0.00    +0.172 C 
ATOM     11  C   UNL     1      -4.699 -10.518   9.722  0.00  0.00    +0.180 C 
ATOM     12  C   UNL     1      -4.826 -10.553  12.103  0.00  0.00    +0.130 C 
ATOM     13  C   UNL     1      -5.702 -10.959   8.683  0.00  0.00    +0.176 C 
ATOM     14  C   UNL     1      -5.226  -9.186  11.577  0.00  0.00    +0.185 C 
ATOM     15  C   UNL     1      -6.911 -11.291   9.528  0.00  0.00    +0.194 C 
BRANCH  13   3
ATOM      3  O   UNL     1      -5.985  -9.970   7.718  0.00  0.00    -0.362 OA
BRANCH   3  17
ATOM     17  C   UNL     1      -7.380  -9.697   7.627  0.00  0.00    +0.255 C 
BRANCH  17  18
ATOM      4  O   UNL     1      -8.271  -7.656   6.688  0.00  0.00    -0.274 OA
ATOM      9  N   UNL     1      -6.958  -7.531   8.574  0.00  0.00    -0.327 N 
ATOM     18  C   UNL     1      -7.598  -8.205   7.556  0.00  0.00    +0.236 C 
ATOM     30  H   UNL     1      -6.407  -8.011   9.279  0.00  0.00    +0.145 HD
ATOM     31  H   UNL     1      -7.019  -6.521   8.651  0.00  0.00    +0.145 HD
ENDBRANCH  17  18
ENDBRANCH   3  17
ENDBRANCH  13   3
ENDBRANCH   6  12
BRANCH  19  22
ATOM     22  C   UNL     1      -4.597 -10.759  17.065  0.00  0.00    +0.001 A 
ATOM     23  C   UNL     1      -4.387 -11.463  18.252  0.00  0.00    +0.013 A 
ATOM     24  C   UNL     1      -5.814 -10.111  16.849  0.00  0.00    +0.013 A 
ATOM     25  C   UNL     1      -5.390 -11.519  19.219  0.00  0.00    +0.046 A 
ATOM     26  C   UNL     1      -6.819 -10.167  17.816  0.00  0.00    +0.046 A 
ATOM     27  C   UNL     1      -6.606 -10.871  19.001  0.00  0.00    +0.120 A 
BRANCH  27   5
ATOM      5  O   UNL     1      -7.586 -10.926  19.945  0.00  0.00    -0.495 OA
ATOM     28  C   UNL     1      -8.931 -11.017  19.480  0.00  0.00    +0.277 C 
ENDBRANCH  27   5
ENDBRANCH  19  22
TORSDOF 6
ENDMDL
MODEL 5
REMARK VINA RESULT:      -6.4     24.502     28.252
REMARK  Name = 11913153
REMARK  7 active torsions:
REMARK  status: ('A' for Active; 'I' for Inactive)
REMARK    1  A    between atoms: O_3  and  C_13
REMARK    2  A    between atoms: O_3  and  C_17
REMARK    3  A    between atoms: O_5  and  C_27
REMARK    4  A    between atoms: O_5  and  C_28
REMARK    5  A    between atoms: N_6  and  C_12
REMARK    6  A    between atoms: C_17  and  C_18
REMARK    7  A    between atoms: C_19  and  C_22
REMARK                            x       y       z     vdW  Elec       q    Type
REMARK                         _______ _______ _______ _____ _____    ______ ____
ROOT
ATOM      6  N   UNL     1      -8.985 -10.191  18.311  0.00  0.00    -0.306 N 
ATOM      7  N   UNL     1      -6.835 -10.462  17.411  0.00  0.00    -0.214 NA
ATOM      8  N   UNL     1      -7.238 -10.760  19.768  0.00  0.00    -0.223 NA
ATOM     16  C   UNL     1      -7.646 -10.479  18.502  0.00  0.00    +0.216 A 
ATOM     19  C   UNL     1      -5.535 -10.748  17.635  0.00  0.00    +0.076 A 
ATOM     20  C   UNL     1      -5.926 -11.036  19.920  0.00  0.00    +0.116 A 
ATOM     21  C   UNL     1      -5.018 -11.044  18.880  0.00  0.00    +0.048 A 
ATOM     29  H   UNL     1      -9.571 -10.157  19.138  0.00  0.00    +0.149 HD
ENDROOT
BRANCH   6  12
ATOM      1  O   UNL     1     -11.580  -8.700  17.466  0.00  0.00    -0.369 OA
ATOM      2  O   UNL     1      -9.488  -8.192  15.281  0.00  0.00    -0.369 OA
ATOM     10  C   UNL     1      -9.354  -8.411  16.701  0.00  0.00    +0.172 C 
ATOM     11  C   UNL     1     -10.531  -7.724  17.364  0.00  0.00    +0.180 C 
ATOM     12  C   UNL     1      -9.559  -9.874  17.020  0.00  0.00    +0.130 C 
ATOM     13  C   UNL     1     -10.874  -6.636  16.374  0.00  0.00    +0.176 C 
ATOM     14  C   UNL     1     -11.073  -9.985  17.074  0.00  0.00    +0.185 C 
ATOM     15  C   UNL     1     -10.598  -7.312  15.050  0.00  0.00    +0.194 C 
BRANCH  13   3
ATOM      3  O   UNL     1     -12.207  -6.186  16.472  0.00  0.00    -0.362 OA
BRANCH   3  17
ATOM     17  C   UNL     1     -12.898  -6.293  15.231  0.00  0.00    +0.255 C 
BRANCH  17  18
ATOM      4  O   UNL     1     -15.303  -6.355  14.996  0.00  0.00    -0.274 OA
ATOM      9  N   UNL     1     -14.270  -7.962  16.280  0.00  0.00    -0.327 N 
ATOM     18  C   UNL     1     -14.283  -6.846  15.471  0.00  0.00    +0.236 C 
ATOM     30  H   UNL     1     -13.410  -8.346  16.660  0.00  0.00    +0.145 HD
ATOM     31  H   UNL     1     -15.131  -8.439  16.525  0.00  0.00    +0.145 HD
ENDBRANCH  17  18
ENDBRANCH   3  17
ENDBRANCH  13   3
ENDBRANCH   6  12
BRANCH  19  22
ATOM     22  C   UNL     1      -4.692 -10.722  16.464  0.00  0.00    +0.001 A 
ATOM     23  C   UNL     1      -3.305 -10.815  16.598  0.00  0.00    +0.013 A 
ATOM     24  C   UNL     1      -5.260 -10.606  15.194  0.00  0.00    +0.013 A 
ATOM     25  C   UNL     1      -2.490 -10.792  15.467  0.00  0.00    +0.046 A 
ATOM     26  C   UNL     1      -4.445 -10.582  14.062  0.00  0.00    +0.046 A 
ATOM     27  C   UNL     1      -3.059 -10.675  14.199  0.00  0.00    +0.120 A 
BRANCH  27   5
ATOM      5  O   UNL     1      -2.264 -10.652  13.094  0.00  0.00    -0.495 OA
ATOM     28  C   UNL     1      -2.786 -11.243  11.906  0.00  0.00    +0.277 C 
ENDBRANCH  27   5
ENDBRANCH  19  22
TORSDOF 6
ENDMDL
MODEL 6
REMARK VINA RESULT:      -6.3      3.169      9.113
REMARK  Name = 11913153
REMARK  7 active torsions:
REMARK  status: ('A' for Active; 'I' for Inactive)
REMARK    1  A    between atoms: O_3  and  C_13
REMARK    2  A    between atoms: O_3  and  C_17
REMARK    3  A    between atoms: O_5  and  C_27
REMARK    4  A    between atoms: O_5  and  C_28
REMARK    5  A    between atoms: N_6  and  C_12
REMARK    6  A    between atoms: C_17  and  C_18
REMARK    7  A    between atoms: C_19  and  C_22
REMARK                            x       y       z     vdW  Elec       q    Type
REMARK                         _______ _______ _______ _____ _____    ______ ____
ROOT
ATOM      6  N   UNL     1      10.146   6.131   1.048  0.00  0.00    -0.306 N 
ATOM      7  N   UNL     1       9.759   6.212   3.360  0.00  0.00    -0.214 NA
ATOM      8  N   UNL     1       8.948   7.955   1.907  0.00  0.00    -0.223 NA
ATOM     16  C   UNL     1       9.601   6.786   2.137  0.00  0.00    +0.216 A 
ATOM     19  C   UNL     1       9.215   6.878   4.401  0.00  0.00    +0.076 A 
ATOM     20  C   UNL     1       8.429   8.568   2.992  0.00  0.00    +0.116 A 
ATOM     21  C   UNL     1       8.533   8.072   4.276  0.00  0.00    +0.048 A 
ATOM     29  H   UNL     1      10.067   6.592   0.148  0.00  0.00    +0.149 HD
ENDROOT
BRANCH   6  12
ATOM      1  O   UNL     1      12.265   4.774  -0.780  0.00  0.00    -0.369 OA
ATOM      2  O   UNL     1      12.874   3.924   2.104  0.00  0.00    -0.369 OA
ATOM     10  C   UNL     1      12.298   5.132   1.564  0.00  0.00    +0.172 C 
ATOM     11  C   UNL     1      13.018   5.417   0.261  0.00  0.00    +0.180 C 
ATOM     12  C   UNL     1      10.869   4.880   1.144  0.00  0.00    +0.130 C 
ATOM     13  C   UNL     1      14.356   4.752   0.475  0.00  0.00    +0.176 C 
ATOM     14  C   UNL     1      11.039   4.262  -0.233  0.00  0.00    +0.185 C 
ATOM     15  C   UNL     1      13.979   3.528   1.279  0.00  0.00    +0.194 C 
BRANCH  13   3
ATOM      3  O   UNL     1      15.016   4.416  -0.725  0.00  0.00    -0.362 OA
BRANCH   3  17
ATOM     17  C   UNL     1      16.358   3.997  -0.497  0.00  0.00    +0.255 C 
BRANCH  17  18
ATOM      4  O   UNL     1      17.007   5.628  -2.158  0.00  0.00    -0.274 OA
ATOM      9  N   UNL     1      18.390   3.831  -1.766  0.00  0.00    -0.327 N 
ATOM     18  C   UNL     1      17.259   4.589  -1.555  0.00  0.00    +0.236 C 
ATOM     30  H   UNL     1      18.573   2.975  -1.252  0.00  0.00    +0.145 HD
ATOM     31  H   UNL     1      19.086   4.111  -2.450  0.00  0.00    +0.145 HD
ENDBRANCH  17  18
ENDBRANCH   3  17
ENDBRANCH  13   3
ENDBRANCH   6  12
BRANCH  19  22
ATOM     22  C   UNL     1       9.395   6.254   5.689  0.00  0.00    +0.001 A 
ATOM     23  C   UNL     1       9.243   7.003   6.857  0.00  0.00    +0.013 A 
ATOM     24  C   UNL     1       9.719   4.898   5.772  0.00  0.00    +0.013 A 
ATOM     25  C   UNL     1       9.416   6.400   8.103  0.00  0.00    +0.046 A 
ATOM     26  C   UNL     1       9.891   4.294   7.017  0.00  0.00    +0.046 A 
ATOM     27  C   UNL     1       9.740   5.045   8.183  0.00  0.00    +0.120 A 
BRANCH  27   5
ATOM      5  O   UNL     1       9.908   4.456   9.399  0.00  0.00    -0.495 OA
ATOM     28  C   UNL     1       8.866   4.633  10.356  0.00  0.00    +0.277 C 
ENDBRANCH  27   5
ENDBRANCH  19  22
TORSDOF 6
ENDMDL
MODEL 7
REMARK VINA RESULT:      -6.2     18.729     21.701
REMARK  Name = 11913153
REMARK  7 active torsions:
REMARK  status: ('A' for Active; 'I' for Inactive)
REMARK    1  A    between atoms: O_3  and  C_13
REMARK    2  A    between atoms: O_3  and  C_17
REMARK    3  A    between atoms: O_5  and  C_27
REMARK    4  A    between atoms: O_5  and  C_28
REMARK    5  A    between atoms: N_6  and  C_12
REMARK    6  A    between atoms: C_17  and  C_18
REMARK    7  A    between atoms: C_19  and  C_22
REMARK                            x       y       z     vdW  Elec       q    Type
REMARK                         _______ _______ _______ _____ _____    ______ ____
ROOT
ATOM      6  N   UNL     1      19.973   8.633  21.689  0.00  0.00    -0.306 N 
ATOM      7  N   UNL     1      17.674   8.641  21.217  0.00  0.00    -0.214 NA
ATOM      8  N   UNL     1      18.959  10.679  21.153  0.00  0.00    -0.223 NA
ATOM     16  C   UNL     1      18.835   9.338  21.343  0.00  0.00    +0.216 A 
ATOM     19  C   UNL     1      16.584   9.361  20.878  0.00  0.00    +0.076 A 
ATOM     20  C   UNL     1      17.830  11.336  20.816  0.00  0.00    +0.116 A 
ATOM     21  C   UNL     1      16.602  10.724  20.664  0.00  0.00    +0.048 A 
ATOM     29  H   UNL     1      20.821   9.170  21.830  0.00  0.00    +0.149 HD
ENDROOT
BRANCH   6  12
ATOM      1  O   UNL     1      21.512   6.291  20.339  0.00  0.00    -0.369 OA
ATOM      2  O   UNL     1      21.081   5.522  23.278  0.00  0.00    -0.369 OA
ATOM     10  C   UNL     1      21.257   6.805  22.641  0.00  0.00    +0.172 C 
ATOM     11  C   UNL     1      22.262   6.606  21.524  0.00  0.00    +0.180 C 
ATOM     12  C   UNL     1      19.988   7.204  21.924  0.00  0.00    +0.130 C 
ATOM     13  C   UNL     1      23.061   5.420  22.010  0.00  0.00    +0.176 C 
ATOM     14  C   UNL     1      20.110   6.455  20.607  0.00  0.00    +0.185 C 
ATOM     15  C   UNL     1      22.005   4.587  22.702  0.00  0.00    +0.194 C 
BRANCH  13   3
ATOM      3  O   UNL     1      23.702   4.711  20.975  0.00  0.00    -0.362 OA
BRANCH   3  17
ATOM     17  C   UNL     1      23.436   3.313  21.042  0.00  0.00    +0.255 C 
BRANCH  17  18
ATOM      4  O   UNL     1      25.174   1.652  20.791  0.00  0.00    -0.274 OA
ATOM      9  N   UNL     1      24.658   3.001  18.998  0.00  0.00    -0.327 N 
ATOM     18  C   UNL     1      24.510   2.558  20.295  0.00  0.00    +0.236 C 
ATOM     30  H   UNL     1      24.095   3.753  18.614  0.00  0.00    +0.145 HD
ATOM     31  H   UNL     1      25.345   2.582  18.379  0.00  0.00    +0.145 HD
ENDBRANCH  17  18
ENDBRANCH   3  17
ENDBRANCH  13   3
ENDBRANCH   6  12
BRANCH  19  22
ATOM     22  C   UNL     1      15.363   8.602  20.752  0.00  0.00    +0.001 A 
ATOM     23  C   UNL     1      15.180   7.745  19.665  0.00  0.00    +0.013 A 
ATOM     24  C   UNL     1      14.361   8.723  21.717  0.00  0.00    +0.013 A 
ATOM     25  C   UNL     1      14.001   7.011  19.543  0.00  0.00    +0.046 A 
ATOM     26  C   UNL     1      13.181   7.989  21.596  0.00  0.00    +0.046 A 
ATOM     27  C   UNL     1      13.001   7.133  20.509  0.00  0.00    +0.120 A 
BRANCH  27   5
ATOM      5  O   UNL     1      11.849   6.417  20.391  0.00  0.00    -0.495 OA
ATOM     28  C   UNL     1      11.243   5.957  21.597  0.00  0.00    +0.277 C 
ENDBRANCH  27   5
ENDBRANCH  19  22
TORSDOF 6
ENDMDL
MODEL 8
REMARK VINA RESULT:      -6.1     15.830     20.832
REMARK  Name = 11913153
REMARK  7 active torsions:
REMARK  status: ('A' for Active; 'I' for Inactive)
REMARK    1  A    between atoms: O_3  and  C_13
REMARK    2  A    between atoms: O_3  and  C_17
REMARK    3  A    between atoms: O_5  and  C_27
REMARK    4  A    between atoms: O_5  and  C_28
REMARK    5  A    between atoms: N_6  and  C_12
REMARK    6  A    between atoms: C_17  and  C_18
REMARK    7  A    between atoms: C_19  and  C_22
REMARK                            x       y       z     vdW  Elec       q    Type
REMARK                         _______ _______ _______ _____ _____    ______ ____
ROOT
ATOM      6  N   UNL     1      17.275   9.377  21.990  0.00  0.00    -0.306 N 
ATOM      7  N   UNL     1      19.102   7.906  21.919  0.00  0.00    -0.214 NA
ATOM      8  N   UNL     1      19.386  10.202  22.595  0.00  0.00    -0.223 NA
ATOM     16  C   UNL     1      18.628   9.155  22.173  0.00  0.00    +0.216 A 
ATOM     19  C   UNL     1      20.425   7.725  22.108  0.00  0.00    +0.076 A 
ATOM     20  C   UNL     1      20.701   9.951  22.763  0.00  0.00    +0.116 A 
ATOM     21  C   UNL     1      21.283   8.720  22.532  0.00  0.00    +0.048 A 
ATOM     29  H   UNL     1      16.942  10.324  22.133  0.00  0.00    +0.149 HD
ENDROOT
BRANCH   6  12
ATOM      1  O   UNL     1      14.326   9.490  21.008  0.00  0.00    -0.369 OA
ATOM      2  O   UNL     1      15.680   7.149  19.556  0.00  0.00    -0.369 OA
ATOM     10  C   UNL     1      16.201   8.405  20.041  0.00  0.00    +0.172 C 
ATOM     11  C   UNL     1      15.123   9.446  19.813  0.00  0.00    +0.180 C 
ATOM     12  C   UNL     1      16.349   8.357  21.544  0.00  0.00    +0.130 C 
ATOM     13  C   UNL     1      14.353   8.868  18.649  0.00  0.00    +0.176 C 
ATOM     14  C   UNL     1      14.943   8.678  22.019  0.00  0.00    +0.185 C 
ATOM     15  C   UNL     1      14.407   7.385  18.935  0.00  0.00    +0.194 C 
BRANCH  13   3
ATOM      3  O   UNL     1      13.029   9.344  18.559  0.00  0.00    -0.362 OA
BRANCH   3  17
ATOM     17  C   UNL     1      12.109   8.302  18.245  0.00  0.00    +0.255 C 
BRANCH  17  18
ATOM      4  O   UNL     1      10.418   8.011  16.543  0.00  0.00    -0.274 OA
ATOM      9  N   UNL     1      11.945   9.717  16.311  0.00  0.00    -0.327 N 
ATOM     18  C   UNL     1      11.389   8.635  16.960  0.00  0.00    +0.236 C 
ATOM     30  H   UNL     1      12.749  10.215  16.680  0.00  0.00    +0.145 HD
ATOM     31  H   UNL     1      11.562  10.053  15.434  0.00  0.00    +0.145 HD
ENDBRANCH  17  18
ENDBRANCH   3  17
ENDBRANCH  13   3
ENDBRANCH   6  12
BRANCH  19  22
ATOM     22  C   UNL     1      20.908   6.394  21.831  0.00  0.00    +0.001 A 
ATOM     23  C   UNL     1      21.911   5.834  22.624  0.00  0.00    +0.013 A 
ATOM     24  C   UNL     1      20.373   5.661  20.770  0.00  0.00    +0.013 A 
ATOM     25  C   UNL     1      22.377   4.546  22.357  0.00  0.00    +0.046 A 
ATOM     26  C   UNL     1      20.838   4.374  20.502  0.00  0.00    +0.046 A 
ATOM     27  C   UNL     1      21.841   3.816  21.297  0.00  0.00    +0.120 A 
BRANCH  27   5
ATOM      5  O   UNL     1      22.295   2.559  21.036  0.00  0.00    -0.495 OA
ATOM     28  C   UNL     1      23.708   2.380  20.974  0.00  0.00    +0.277 C 
ENDBRANCH  27   5
ENDBRANCH  19  22
TORSDOF 6
ENDMDL
MODEL 9
REMARK VINA RESULT:      -6.1      5.155      6.829
REMARK  Name = 11913153
REMARK  7 active torsions:
REMARK  status: ('A' for Active; 'I' for Inactive)
REMARK    1  A    between atoms: O_3  and  C_13
REMARK    2  A    between atoms: O_3  and  C_17
REMARK    3  A    between atoms: O_5  and  C_27
REMARK    4  A    between atoms: O_5  and  C_28
REMARK    5  A    between atoms: N_6  and  C_12
REMARK    6  A    between atoms: C_17  and  C_18
REMARK    7  A    between atoms: C_19  and  C_22
REMARK                            x       y       z     vdW  Elec       q    Type
REMARK                         _______ _______ _______ _____ _____    ______ ____
ROOT
ATOM      6  N   UNL     1       7.003   9.849   4.679  0.00  0.00    -0.306 N 
ATOM      7  N   UNL     1       6.276   9.693   2.453  0.00  0.00    -0.214 NA
ATOM      8  N   UNL     1       4.985  10.892   4.097  0.00  0.00    -0.223 NA
ATOM     16  C   UNL     1       6.060  10.154   3.714  0.00  0.00    +0.216 A 
ATOM     19  C   UNL     1       5.336  10.010   1.538  0.00  0.00    +0.076 A 
ATOM     20  C   UNL     1       4.084  11.172   3.132  0.00  0.00    +0.116 A 
ATOM     21  C   UNL     1       4.208  10.752   1.823  0.00  0.00    +0.048 A 
ATOM     29  H   UNL     1       6.807  10.153   5.626  0.00  0.00    +0.149 HD
ENDROOT
BRANCH   6  12
ATOM      1  O   UNL     1       9.252   8.745   6.522  0.00  0.00    -0.369 OA
ATOM      2  O   UNL     1       8.946   6.781   4.185  0.00  0.00    -0.369 OA
ATOM     10  C   UNL     1       7.991   7.637   4.847  0.00  0.00    +0.172 C 
ATOM     11  C   UNL     1       8.353   7.643   6.319  0.00  0.00    +0.180 C 
ATOM     12  C   UNL     1       8.195   9.070   4.415  0.00  0.00    +0.130 C 
ATOM     13  C   UNL     1       9.050   6.315   6.489  0.00  0.00    +0.176 C 
ATOM     14  C   UNL     1       9.331   9.522   5.317  0.00  0.00    +0.185 C 
ATOM     15  C   UNL     1       9.786   6.169   5.176  0.00  0.00    +0.194 C 
BRANCH  13   3
ATOM      3  O   UNL     1       9.925   6.276   7.594  0.00  0.00    -0.362 OA
BRANCH   3  17
ATOM     17  C   UNL     1       9.246   5.942   8.801  0.00  0.00    +0.255 C 
BRANCH  17  18
ATOM      4  O   UNL     1       9.995   4.536  10.618  0.00  0.00    -0.274 OA
ATOM      9  N   UNL     1      10.292   3.808   8.455  0.00  0.00    -0.327 N 
ATOM     18  C   UNL     1       9.873   4.711   9.409  0.00  0.00    +0.236 C 
ATOM     30  H   UNL     1      10.178   3.979   7.461  0.00  0.00    +0.145 HD
ATOM     31  H   UNL     1      10.732   2.934   8.722  0.00  0.00    +0.145 HD
ENDBRANCH  17  18
ENDBRANCH   3  17
ENDBRANCH  13   3
ENDBRANCH   6  12
BRANCH  19  22
ATOM     22  C   UNL     1       5.583   9.510   0.207  0.00  0.00    +0.001 A 
ATOM     23  C   UNL     1       6.864   9.585  -0.343  0.00  0.00    +0.013 A 
ATOM     24  C   UNL     1       4.541   8.949  -0.535  0.00  0.00    +0.013 A 
ATOM     25  C   UNL     1       7.103   9.102  -1.629  0.00  0.00    +0.046 A 
ATOM     26  C   UNL     1       4.780   8.464  -1.821  0.00  0.00    +0.046 A 
ATOM     27  C   UNL     1       6.061   8.541  -2.368  0.00  0.00    +0.120 A 
BRANCH  27   5
ATOM      5  O   UNL     1       6.294   8.068  -3.624  0.00  0.00    -0.495 OA
ATOM     28  C   UNL     1       5.225   7.377  -4.266  0.00  0.00    +0.277 C 
ENDBRANCH  27   5
ENDBRANCH  19  22
TORSDOF 6
ENDMDL
MODEL 10
REMARK VINA RESULT:      -5.9     24.628     28.801
REMARK  Name = 11913153
REMARK  7 active torsions:
REMARK  status: ('A' for Active; 'I' for Inactive)
REMARK    1  A    between atoms: O_3  and  C_13
REMARK    2  A    between atoms: O_3  and  C_17
REMARK    3  A    between atoms: O_5  and  C_27
REMARK    4  A    between atoms: O_5  and  C_28
REMARK    5  A    between atoms: N_6  and  C_12
REMARK    6  A    between atoms: C_17  and  C_18
REMARK    7  A    between atoms: C_19  and  C_22
REMARK                            x       y       z     vdW  Elec       q    Type
REMARK                         _______ _______ _______ _____ _____    ______ ____
ROOT
ATOM      6  N   UNL     1      -7.440 -10.949  18.445  0.00  0.00    -0.306 N 
ATOM      7  N   UNL     1      -9.319  -9.673  17.856  0.00  0.00    -0.214 NA
ATOM      8  N   UNL     1      -9.441 -11.319  19.612  0.00  0.00    -0.223 NA
ATOM     16  C   UNL     1      -8.773 -10.638  18.643  0.00  0.00    +0.216 A 
ATOM     19  C   UNL     1     -10.621  -9.395  18.077  0.00  0.00    +0.076 A 
ATOM     20  C   UNL     1     -10.739 -10.991  19.779  0.00  0.00    +0.116 A 
ATOM     21  C   UNL     1     -11.389 -10.028  19.033  0.00  0.00    +0.048 A 
ATOM     29  H   UNL     1      -7.058 -11.705  19.001  0.00  0.00    +0.149 HD
ENDROOT
BRANCH   6  12
ATOM      1  O   UNL     1      -4.557 -11.513  17.425  0.00  0.00    -0.369 OA
ATOM      2  O   UNL     1      -6.137 -10.331  15.076  0.00  0.00    -0.369 OA
ATOM     10  C   UNL     1      -6.550 -11.145  16.194  0.00  0.00    +0.172 C 
ATOM     11  C   UNL     1      -5.427 -12.127  16.461  0.00  0.00    +0.180 C 
ATOM     12  C   UNL     1      -6.608 -10.306  17.450  0.00  0.00    +0.130 C 
ATOM     13  C   UNL     1      -4.767 -12.244  15.108  0.00  0.00    +0.176 C 
ATOM     14  C   UNL     1      -5.158 -10.298  17.901  0.00  0.00    +0.185 C 
ATOM     15  C   UNL     1      -4.894 -10.837  14.568  0.00  0.00    +0.194 C 
BRANCH  13   3
ATOM      3  O   UNL     1      -3.424 -12.670  15.172  0.00  0.00    -0.362 OA
BRANCH   3  17
ATOM     17  C   UNL     1      -2.538 -11.728  14.574  0.00  0.00    +0.255 C 
BRANCH  17  18
ATOM      4  O   UNL     1      -1.170 -13.453  13.578  0.00  0.00    -0.274 OA
ATOM      9  N   UNL     1      -1.840 -11.676  12.277  0.00  0.00    -0.327 N 
ATOM     18  C   UNL     1      -1.776 -12.393  13.453  0.00  0.00    +0.236 C 
ATOM     30  H   UNL     1      -2.349 -10.801  12.202  0.00  0.00    +0.145 HD
ATOM     31  H   UNL     1      -1.373 -12.006  11.439  0.00  0.00    +0.145 HD
ENDBRANCH  17  18
ENDBRANCH   3  17
ENDBRANCH  13   3
ENDBRANCH   6  12
BRANCH  19  22
ATOM     22  C   UNL     1     -11.182  -8.370  17.231  0.00  0.00    +0.001 A 
ATOM     23  C   UNL     1     -10.438  -7.229  16.925  0.00  0.00    +0.013 A 
ATOM     24  C   UNL     1     -12.471  -8.516  16.714  0.00  0.00    +0.013 A 
ATOM     25  C   UNL     1     -10.979  -6.239  16.105  0.00  0.00    +0.046 A 
ATOM     26  C   UNL     1     -13.013  -7.526  15.894  0.00  0.00    +0.046 A 
ATOM     27  C   UNL     1     -12.267  -6.387  15.590  0.00  0.00    +0.120 A 
BRANCH  27   5
ATOM      5  O   UNL     1     -12.796  -5.421  14.790  0.00  0.00    -0.495 OA
ATOM     28  C   UNL     1     -12.371  -5.400  13.429  0.00  0.00    +0.277 C 
ENDBRANCH  27   5
ENDBRANCH  19  22
TORSDOF 6
ENDMDL
