MODEL 1
REMARK VINA RESULT:      -8.2      0.000      0.000
REMARK  Name = 7051672
REMARK  6 active torsions:
REMARK  status: ('A' for Active; 'I' for Inactive)
REMARK    1  A    between atoms: N_3  and  C_15
REMARK    2  A    between atoms: N_5  and  C_26
REMARK    3  A    between atoms: N_6  and  C_19
REMARK    4  A    between atoms: C_15  and  C_18
REMARK    5  A    between atoms: C_28  and  C_30
REMARK    6  A    between atoms: C_35  and  C_36
REMARK                            x       y       z     vdW  Elec       q    Type
REMARK                         _______ _______ _______ _____ _____    ______ ____
ROOT
ATOM      1  O   UNL     1      -6.062 -11.543  10.555  0.00  0.00    -0.266 OA
ATOM      3  N   UNL     1      -3.306 -11.026  14.711  0.00  0.00    -0.297 NA
ATOM      4  N   UNL     1      -3.988 -11.491  11.627  0.00  0.00    -0.310 N 
ATOM      8  C   UNL     1      -3.309 -13.182  13.430  0.00  0.00    +0.024 C 
ATOM      9  C   UNL     1      -1.755 -11.402  12.789  0.00  0.00    +0.050 C 
ATOM     10  C   UNL     1      -1.893 -12.915  12.938  0.00  0.00    +0.017 C 
ATOM     11  C   UNL     1      -3.542 -12.474  14.782  0.00  0.00    +0.090 C 
ATOM     12  C   UNL     1      -1.976 -10.724  14.160  0.00  0.00    +0.094 C 
ATOM     13  C   UNL     1      -4.302 -12.731  12.350  0.00  0.00    +0.130 C 
ATOM     14  C   UNL     1      -2.743 -10.869  11.766  0.00  0.00    +0.026 A 
ATOM     16  C   UNL     1      -2.434  -9.798  11.016  0.00  0.00    +0.024 A 
ATOM     17  C   UNL     1      -4.960 -11.020  10.723  0.00  0.00    +0.273 A 
ATOM     19  C   UNL     1      -4.587  -9.811   9.922  0.00  0.00    +0.099 A 
ATOM     20  C   UNL     1      -3.378  -9.260  10.077  0.00  0.00    +0.030 A 
ENDROOT
BRANCH  19   6
ATOM      2  O   UNL     1      -4.891 -10.583   7.191  0.00  0.00    -0.270 OA
ATOM      6  N   UNL     1      -5.505  -9.317   9.044  0.00  0.00    -0.277 N 
ATOM     28  C   UNL     1      -5.602  -9.735   7.724  0.00  0.00    +0.248 C 
ATOM     37  H   UNL     1      -6.023  -8.509   9.371  0.00  0.00    +0.155 HD
BRANCH  28  30
ATOM     30  C   UNL     1      -6.680  -9.098   6.923  0.00  0.00    +0.037 A 
ATOM     31  C   UNL     1      -6.705  -9.298   5.559  0.00  0.00    +0.014 A 
ATOM     32  C   UNL     1      -7.624  -8.328   7.572  0.00  0.00    +0.014 A 
ATOM     33  C   UNL     1      -7.719  -8.702   4.809  0.00  0.00    +0.019 A 
ATOM     34  C   UNL     1      -8.638  -7.731   6.822  0.00  0.00    +0.019 A 
ATOM     35  C   UNL     1      -8.685  -7.918   5.440  0.00  0.00    +0.052 A 
BRANCH  35  36
ATOM      7  N   UNL     1     -10.564  -6.808   4.045  0.00  0.00    -0.191 NA
ATOM     36  C   UNL     1      -9.721  -7.305   4.671  0.00  0.00    +0.099 C 
ENDBRANCH  35  36
ENDBRANCH  28  30
ENDBRANCH  19   6
BRANCH   3  15
ATOM     15  C   UNL     1      -3.486 -10.402  16.019  0.00  0.00    +0.121 C 
BRANCH  15  18
ATOM      5  N   UNL     1      -7.099  -9.897  16.188  0.00  0.00    -0.349 N 
ATOM     18  C   UNL     1      -4.947 -10.295  16.355  0.00  0.00    -0.008 A 
ATOM     21  C   UNL     1      -5.532 -10.650  17.586  0.00  0.00    +0.004 A 
ATOM     22  C   UNL     1      -5.911  -9.838  15.511  0.00  0.00    +0.091 A 
ATOM     23  C   UNL     1      -6.897 -10.389  17.458  0.00  0.00    +0.049 A 
ATOM     24  C   UNL     1      -5.052 -11.167  18.805  0.00  0.00    +0.010 A 
ATOM     25  C   UNL     1      -7.812 -10.621  18.492  0.00  0.00    +0.026 A 
ATOM     26  C   UNL     1      -8.375  -9.498  15.634  0.00  0.00    +0.149 C 
ATOM     27  C   UNL     1      -5.954 -11.404  19.849  0.00  0.00    +0.001 A 
ATOM     29  C   UNL     1      -7.313 -11.134  19.693  0.00  0.00    +0.002 A 
ENDBRANCH  15  18
ENDBRANCH   3  15
TORSDOF 5
ENDMDL
MODEL 2
REMARK VINA RESULT:      -7.6     24.928     28.167
REMARK  Name = 7051672
REMARK  6 active torsions:
REMARK  status: ('A' for Active; 'I' for Inactive)
REMARK    1  A    between atoms: N_3  and  C_15
REMARK    2  A    between atoms: N_5  and  C_26
REMARK    3  A    between atoms: N_6  and  C_19
REMARK    4  A    between atoms: C_15  and  C_18
REMARK    5  A    between atoms: C_28  and  C_30
REMARK    6  A    between atoms: C_35  and  C_36
REMARK                            x       y       z     vdW  Elec       q    Type
REMARK                         _______ _______ _______ _____ _____    ______ ____
ROOT
ATOM      1  O   UNL     1      13.690   6.551   7.007  0.00  0.00    -0.266 OA
ATOM      3  N   UNL     1       9.171   7.593   5.104  0.00  0.00    -0.297 NA
ATOM      4  N   UNL     1      11.715   7.797   7.021  0.00  0.00    -0.310 N 
ATOM      8  C   UNL     1       9.415   6.755   7.455  0.00  0.00    +0.024 C 
ATOM      9  C   UNL     1       9.595   9.155   7.007  0.00  0.00    +0.050 C 
ATOM     10  C   UNL     1       9.059   8.130   8.003  0.00  0.00    +0.017 C 
ATOM     11  C   UNL     1       8.771   6.557   6.065  0.00  0.00    +0.090 C 
ATOM     12  C   UNL     1       8.921   8.942   5.633  0.00  0.00    +0.094 C 
ATOM     13  C   UNL     1      10.943   6.614   7.423  0.00  0.00    +0.130 C 
ATOM     14  C   UNL     1      11.104   9.047   6.882  0.00  0.00    +0.026 A 
ATOM     16  C   UNL     1      11.844  10.137   6.620  0.00  0.00    +0.024 A 
ATOM     17  C   UNL     1      13.107   7.627   6.879  0.00  0.00    +0.273 A 
ATOM     19  C   UNL     1      13.894   8.862   6.564  0.00  0.00    +0.099 A 
ATOM     20  C   UNL     1      13.268  10.038   6.457  0.00  0.00    +0.030 A 
ENDROOT
BRANCH  19   6
ATOM      2  O   UNL     1      15.275   8.495   4.093  0.00  0.00    -0.270 OA
ATOM      6  N   UNL     1      15.243   8.738   6.407  0.00  0.00    -0.277 N 
ATOM     28  C   UNL     1      15.856   8.561   5.174  0.00  0.00    +0.248 C 
ATOM     37  H   UNL     1      15.769   8.633   7.267  0.00  0.00    +0.155 HD
BRANCH  28  30
ATOM     30  C   UNL     1      17.339   8.468   5.199  0.00  0.00    +0.037 A 
ATOM     31  C   UNL     1      18.002   8.080   4.054  0.00  0.00    +0.014 A 
ATOM     32  C   UNL     1      18.005   8.776   6.368  0.00  0.00    +0.014 A 
ATOM     33  C   UNL     1      19.394   7.995   4.077  0.00  0.00    +0.019 A 
ATOM     34  C   UNL     1      19.398   8.691   6.391  0.00  0.00    +0.019 A 
ATOM     35  C   UNL     1      20.092   8.300   5.246  0.00  0.00    +0.052 A 
BRANCH  35  36
ATOM      7  N   UNL     1      22.677   8.139   5.290  0.00  0.00    -0.191 NA
ATOM     36  C   UNL     1      21.518   8.210   5.271  0.00  0.00    +0.099 C 
ENDBRANCH  35  36
ENDBRANCH  28  30
ENDBRANCH  19   6
BRANCH   3  15
ATOM     15  C   UNL     1       8.503   7.400   3.820  0.00  0.00    +0.121 C 
BRANCH  15  18
ATOM      5  N   UNL     1      10.775   7.523   0.962  0.00  0.00    -0.349 N 
ATOM     18  C   UNL     1       9.513   7.187   2.727  0.00  0.00    -0.008 A 
ATOM     21  C   UNL     1      10.288   6.025   2.543  0.00  0.00    +0.004 A 
ATOM     22  C   UNL     1       9.818   8.092   1.759  0.00  0.00    +0.091 A 
ATOM     23  C   UNL     1      11.081   6.261   1.419  0.00  0.00    +0.049 A 
ATOM     24  C   UNL     1      10.406   4.790   3.211  0.00  0.00    +0.010 A 
ATOM     25  C   UNL     1      11.991   5.319   0.926  0.00  0.00    +0.026 A 
ATOM     26  C   UNL     1      11.370   8.169  -0.187  0.00  0.00    +0.149 C 
ATOM     27  C   UNL     1      11.313   3.838   2.729  0.00  0.00    +0.001 A 
ATOM     29  C   UNL     1      12.092   4.100   1.604  0.00  0.00    +0.002 A 
ENDBRANCH  15  18
ENDBRANCH   3  15
TORSDOF 5
ENDMDL
MODEL 3
REMARK VINA RESULT:      -7.4     23.369     25.783
REMARK  Name = 7051672
REMARK  6 active torsions:
REMARK  status: ('A' for Active; 'I' for Inactive)
REMARK    1  A    between atoms: N_3  and  C_15
REMARK    2  A    between atoms: N_5  and  C_26
REMARK    3  A    between atoms: N_6  and  C_19
REMARK    4  A    between atoms: C_15  and  C_18
REMARK    5  A    between atoms: C_28  and  C_30
REMARK    6  A    between atoms: C_35  and  C_36
REMARK                            x       y       z     vdW  Elec       q    Type
REMARK                         _______ _______ _______ _____ _____    ______ ____
ROOT
ATOM      1  O   UNL     1      10.179   4.385   2.628  0.00  0.00    -0.266 OA
ATOM      3  N   UNL     1       9.363   8.096   5.898  0.00  0.00    -0.297 NA
ATOM      4  N   UNL     1      10.865   5.683   4.444  0.00  0.00    -0.310 N 
ATOM      8  C   UNL     1       9.611   5.725   6.679  0.00  0.00    +0.024 C 
ATOM      9  C   UNL     1      11.608   7.110   6.382  0.00  0.00    +0.050 C 
ATOM     10  C   UNL     1      10.977   6.042   7.271  0.00  0.00    +0.017 C 
ATOM     11  C   UNL     1       8.738   6.999   6.650  0.00  0.00    +0.090 C 
ATOM     12  C   UNL     1      10.722   8.377   6.387  0.00  0.00    +0.094 C 
ATOM     13  C   UNL     1       9.805   5.112   5.285  0.00  0.00    +0.130 C 
ATOM     14  C   UNL     1      11.790   6.594   4.966  0.00  0.00    +0.026 A 
ATOM     16  C   UNL     1      12.816   7.022   4.213  0.00  0.00    +0.024 A 
ATOM     17  C   UNL     1      10.960   5.197   3.125  0.00  0.00    +0.273 A 
ATOM     19  C   UNL     1      12.104   5.717   2.310  0.00  0.00    +0.099 A 
ATOM     20  C   UNL     1      12.973   6.573   2.857  0.00  0.00    +0.030 A 
ENDROOT
BRANCH  19   6
ATOM      2  O   UNL     1      13.409   3.325   1.459  0.00  0.00    -0.270 OA
ATOM      6  N   UNL     1      12.224   5.279   1.024  0.00  0.00    -0.277 N 
ATOM     28  C   UNL     1      12.874   4.104   0.674  0.00  0.00    +0.248 C 
ATOM     37  H   UNL     1      11.938   5.945   0.314  0.00  0.00    +0.155 HD
BRANCH  28  30
ATOM     30  C   UNL     1      12.883   3.780  -0.776  0.00  0.00    +0.037 A 
ATOM     31  C   UNL     1      12.120   2.725  -1.229  0.00  0.00    +0.014 A 
ATOM     32  C   UNL     1      13.655   4.548  -1.624  0.00  0.00    +0.014 A 
ATOM     33  C   UNL     1      12.128   2.422  -2.591  0.00  0.00    +0.019 A 
ATOM     34  C   UNL     1      13.664   4.246  -2.986  0.00  0.00    +0.019 A 
ATOM     35  C   UNL     1      12.901   3.182  -3.469  0.00  0.00    +0.052 A 
BRANCH  35  36
ATOM      7  N   UNL     1      12.919   2.619  -5.998  0.00  0.00    -0.191 NA
ATOM     36  C   UNL     1      12.911   2.871  -4.864  0.00  0.00    +0.099 C 
ENDBRANCH  35  36
ENDBRANCH  28  30
ENDBRANCH  19   6
BRANCH   3  15
ATOM     15  C   UNL     1       8.533   9.296   5.938  0.00  0.00    +0.121 C 
BRANCH  15  18
ATOM      5  N   UNL     1       6.233   9.957   3.179  0.00  0.00    -0.349 N 
ATOM     18  C   UNL     1       7.801   9.474   4.637  0.00  0.00    -0.008 A 
ATOM     21  C   UNL     1       8.316   9.178   3.360  0.00  0.00    +0.004 A 
ATOM     22  C   UNL     1       6.532   9.948   4.514  0.00  0.00    +0.091 A 
ATOM     23  C   UNL     1       7.305   9.492   2.450  0.00  0.00    +0.049 A 
ATOM     24  C   UNL     1       9.537   8.674   2.870  0.00  0.00    +0.010 A 
ATOM     25  C   UNL     1       7.454   9.327   1.068  0.00  0.00    +0.026 A 
ATOM     26  C   UNL     1       4.969  10.397   2.628  0.00  0.00    +0.149 C 
ATOM     27  C   UNL     1       9.701   8.504   1.490  0.00  0.00    +0.001 A 
ATOM     29  C   UNL     1       8.674   8.826   0.605  0.00  0.00    +0.002 A 
ENDBRANCH  15  18
ENDBRANCH   3  15
TORSDOF 5
ENDMDL
MODEL 4
REMARK VINA RESULT:      -7.4      0.613      2.033
REMARK  Name = 7051672
REMARK  6 active torsions:
REMARK  status: ('A' for Active; 'I' for Inactive)
REMARK    1  A    between atoms: N_3  and  C_15
REMARK    2  A    between atoms: N_5  and  C_26
REMARK    3  A    between atoms: N_6  and  C_19
REMARK    4  A    between atoms: C_15  and  C_18
REMARK    5  A    between atoms: C_28  and  C_30
REMARK    6  A    between atoms: C_35  and  C_36
REMARK                            x       y       z     vdW  Elec       q    Type
REMARK                         _______ _______ _______ _____ _____    ______ ____
ROOT
ATOM      1  O   UNL     1      -6.085 -11.600  10.790  0.00  0.00    -0.266 OA
ATOM      3  N   UNL     1      -3.208 -11.100  14.865  0.00  0.00    -0.297 NA
ATOM      4  N   UNL     1      -3.983 -11.600  11.809  0.00  0.00    -0.310 N 
ATOM      8  C   UNL     1      -3.319 -13.279  13.628  0.00  0.00    +0.024 C 
ATOM      9  C   UNL     1      -1.720 -11.568  12.913  0.00  0.00    +0.050 C 
ATOM     10  C   UNL     1      -1.907 -13.071  13.096  0.00  0.00    +0.017 C 
ATOM     11  C   UNL     1      -3.492 -12.537  14.971  0.00  0.00    +0.090 C 
ATOM     12  C   UNL     1      -1.883 -10.856  14.275  0.00  0.00    +0.094 C 
ATOM     13  C   UNL     1      -4.323 -12.814  12.564  0.00  0.00    +0.130 C 
ATOM     14  C   UNL     1      -2.714 -11.020  11.905  0.00  0.00    +0.026 A 
ATOM     16  C   UNL     1      -2.387  -9.976  11.126  0.00  0.00    +0.024 A 
ATOM     17  C   UNL     1      -4.961 -11.113  10.919  0.00  0.00    +0.273 A 
ATOM     19  C   UNL     1      -4.566  -9.933  10.085  0.00  0.00    +0.099 A 
ATOM     20  C   UNL     1      -3.336  -9.422  10.199  0.00  0.00    +0.030 A 
ENDROOT
BRANCH  19   6
ATOM      2  O   UNL     1      -4.905 -10.682   7.352  0.00  0.00    -0.270 OA
ATOM      6  N   UNL     1      -5.489  -9.424   9.220  0.00  0.00    -0.277 N 
ATOM     28  C   UNL     1      -5.603  -9.831   7.898  0.00  0.00    +0.248 C 
ATOM     37  H   UNL     1      -5.997  -8.614   9.559  0.00  0.00    +0.155 HD
BRANCH  28  30
ATOM     30  C   UNL     1      -6.683  -9.178   7.113  0.00  0.00    +0.037 A 
ATOM     31  C   UNL     1      -7.693  -8.522   7.786  0.00  0.00    +0.014 A 
ATOM     32  C   UNL     1      -6.640  -9.248   5.736  0.00  0.00    +0.014 A 
ATOM     33  C   UNL     1      -8.706  -7.908   7.049  0.00  0.00    +0.019 A 
ATOM     34  C   UNL     1      -7.653  -8.634   4.999  0.00  0.00    +0.019 A 
ATOM     35  C   UNL     1      -8.686  -7.965   5.655  0.00  0.00    +0.052 A 
BRANCH  35  36
ATOM      7  N   UNL     1     -10.570  -6.829   4.286  0.00  0.00    -0.191 NA
ATOM     36  C   UNL     1      -9.725  -7.338   4.900  0.00  0.00    +0.099 C 
ENDBRANCH  35  36
ENDBRANCH  28  30
ENDBRANCH  19   6
BRANCH   3  15
ATOM     15  C   UNL     1      -3.333 -10.445  16.164  0.00  0.00    +0.121 C 
BRANCH  15  18
ATOM      5  N   UNL     1      -6.559 -10.517  17.875  0.00  0.00    -0.349 N 
ATOM     18  C   UNL     1      -4.769 -10.423  16.607  0.00  0.00    -0.008 A 
ATOM     21  C   UNL     1      -5.882 -10.207  15.771  0.00  0.00    +0.004 A 
ATOM     22  C   UNL     1      -5.193 -10.610  17.886  0.00  0.00    +0.091 A 
ATOM     23  C   UNL     1      -7.006 -10.271  16.596  0.00  0.00    +0.049 A 
ATOM     24  C   UNL     1      -6.062  -9.963  14.396  0.00  0.00    +0.010 A 
ATOM     25  C   UNL     1      -8.308 -10.102  16.112  0.00  0.00    +0.026 A 
ATOM     26  C   UNL     1      -7.396 -10.657  19.046  0.00  0.00    +0.149 C 
ATOM     27  C   UNL     1      -7.359  -9.792  13.897  0.00  0.00    +0.001 A 
ATOM     29  C   UNL     1      -8.464  -9.861  14.743  0.00  0.00    +0.002 A 
ENDBRANCH  15  18
ENDBRANCH   3  15
TORSDOF 5
ENDMDL
MODEL 5
REMARK VINA RESULT:      -7.4      4.308      9.763
REMARK  Name = 7051672
REMARK  6 active torsions:
REMARK  status: ('A' for Active; 'I' for Inactive)
REMARK    1  A    between atoms: N_3  and  C_15
REMARK    2  A    between atoms: N_5  and  C_26
REMARK    3  A    between atoms: N_6  and  C_19
REMARK    4  A    between atoms: C_15  and  C_18
REMARK    5  A    between atoms: C_28  and  C_30
REMARK    6  A    between atoms: C_35  and  C_36
REMARK                            x       y       z     vdW  Elec       q    Type
REMARK                         _______ _______ _______ _____ _____    ______ ____
ROOT
ATOM      1  O   UNL     1      -8.318  -9.179  17.383  0.00  0.00    -0.266 OA
ATOM      3  N   UNL     1      -4.946 -12.015  14.990  0.00  0.00    -0.297 NA
ATOM      4  N   UNL     1      -6.636 -10.800  17.411  0.00  0.00    -0.310 N 
ATOM      8  C   UNL     1      -4.225 -10.316  16.689  0.00  0.00    +0.024 C 
ATOM      9  C   UNL     1      -4.843 -12.569  17.425  0.00  0.00    +0.050 C 
ATOM     10  C   UNL     1      -3.866 -11.423  17.672  0.00  0.00    +0.017 C 
ATOM     11  C   UNL     1      -4.105 -10.837  15.240  0.00  0.00    +0.090 C 
ATOM     12  C   UNL     1      -4.688 -13.078  15.973  0.00  0.00    +0.094 C 
ATOM     13  C   UNL     1      -5.633  -9.801  17.016  0.00  0.00    +0.130 C 
ATOM     14  C   UNL     1      -6.272 -12.123  17.682  0.00  0.00    +0.026 A 
ATOM     16  C   UNL     1      -7.183 -12.994  18.145  0.00  0.00    +0.024 A 
ATOM     17  C   UNL     1      -7.954 -10.337  17.594  0.00  0.00    +0.273 A 
ATOM     19  C   UNL     1      -8.946 -11.344  18.089  0.00  0.00    +0.099 A 
ATOM     20  C   UNL     1      -8.547 -12.594  18.351  0.00  0.00    +0.030 A 
ENDROOT
BRANCH  19   6
ATOM      2  O   UNL     1     -10.058 -10.278  20.492  0.00  0.00    -0.270 OA
ATOM      6  N   UNL     1     -10.235 -10.939  18.268  0.00  0.00    -0.277 N 
ATOM     28  C   UNL     1     -10.716 -10.427  19.465  0.00  0.00    +0.248 C 
ATOM     37  H   UNL     1     -10.869 -11.173  17.512  0.00  0.00    +0.155 HD
BRANCH  28  30
ATOM     30  C   UNL     1     -12.145 -10.017  19.463  0.00  0.00    +0.037 A 
ATOM     31  C   UNL     1     -12.768  -9.778  18.257  0.00  0.00    +0.014 A 
ATOM     32  C   UNL     1     -12.802  -9.890  20.670  0.00  0.00    +0.014 A 
ATOM     33  C   UNL     1     -14.110  -9.394  18.256  0.00  0.00    +0.019 A 
ATOM     34  C   UNL     1     -14.143  -9.506  20.669  0.00  0.00    +0.019 A 
ATOM     35  C   UNL     1     -14.797  -9.258  19.462  0.00  0.00    +0.052 A 
BRANCH  35  36
ATOM      7  N   UNL     1     -17.286  -8.540  19.459  0.00  0.00    -0.191 NA
ATOM     36  C   UNL     1     -16.170  -8.862  19.460  0.00  0.00    +0.099 C 
ENDBRANCH  35  36
ENDBRANCH  28  30
ENDBRANCH  19   6
BRANCH   3  15
ATOM     15  C   UNL     1      -4.766 -12.506  13.627  0.00  0.00    +0.121 C 
BRANCH  15  18
ATOM      5  N   UNL     1      -6.588 -10.227  11.430  0.00  0.00    -0.349 N 
ATOM     18  C   UNL     1      -5.255 -11.490  12.632  0.00  0.00    -0.008 A 
ATOM     21  C   UNL     1      -4.439 -10.702  11.798  0.00  0.00    +0.004 A 
ATOM     22  C   UNL     1      -6.561 -11.192  12.400  0.00  0.00    +0.091 A 
ATOM     23  C   UNL     1      -5.305  -9.909  11.043  0.00  0.00    +0.049 A 
ATOM     24  C   UNL     1      -3.051 -10.574  11.595  0.00  0.00    +0.010 A 
ATOM     25  C   UNL     1      -4.850  -8.987  10.093  0.00  0.00    +0.026 A 
ATOM     26  C   UNL     1      -7.797  -9.635  10.899  0.00  0.00    +0.149 C 
ATOM     27  C   UNL     1      -2.581  -9.656  10.648  0.00  0.00    +0.001 A 
ATOM     29  C   UNL     1      -3.469  -8.876   9.909  0.00  0.00    +0.002 A 
ENDBRANCH  15  18
ENDBRANCH   3  15
TORSDOF 5
ENDMDL
MODEL 6
REMARK VINA RESULT:      -7.3      2.242      2.709
REMARK  Name = 7051672
REMARK  6 active torsions:
REMARK  status: ('A' for Active; 'I' for Inactive)
REMARK    1  A    between atoms: N_3  and  C_15
REMARK    2  A    between atoms: N_5  and  C_26
REMARK    3  A    between atoms: N_6  and  C_19
REMARK    4  A    between atoms: C_15  and  C_18
REMARK    5  A    between atoms: C_28  and  C_30
REMARK    6  A    between atoms: C_35  and  C_36
REMARK                            x       y       z     vdW  Elec       q    Type
REMARK                         _______ _______ _______ _____ _____    ______ ____
ROOT
ATOM      1  O   UNL     1      -7.726 -10.992  11.201  0.00  0.00    -0.266 OA
ATOM      3  N   UNL     1      -3.571 -11.062  14.005  0.00  0.00    -0.297 NA
ATOM      4  N   UNL     1      -5.398 -10.940  11.391  0.00  0.00    -0.310 N 
ATOM      8  C   UNL     1      -4.037 -12.888  12.350  0.00  0.00    +0.024 C 
ATOM      9  C   UNL     1      -2.891 -10.854  11.610  0.00  0.00    +0.050 C 
ATOM     10  C   UNL     1      -2.932 -12.370  11.439  0.00  0.00    +0.017 C 
ATOM     11  C   UNL     1      -3.733 -12.510  13.816  0.00  0.00    +0.090 C 
ATOM     12  C   UNL     1      -2.570 -10.508  13.082  0.00  0.00    +0.094 C 
ATOM     13  C   UNL     1      -5.382 -12.331  11.864  0.00  0.00    +0.130 C 
ATOM     14  C   UNL     1      -4.210 -10.229  11.193  0.00  0.00    +0.026 A 
ATOM     16  C   UNL     1      -4.240  -8.997  10.658  0.00  0.00    +0.024 A 
ATOM     17  C   UNL     1      -6.656 -10.398  11.059  0.00  0.00    +0.273 A 
ATOM     19  C   UNL     1      -6.649  -9.014  10.487  0.00  0.00    +0.099 A 
ATOM     20  C   UNL     1      -5.487  -8.380  10.300  0.00  0.00    +0.030 A 
ENDROOT
BRANCH  19   6
ATOM      2  O   UNL     1      -7.487  -8.222   7.876  0.00  0.00    -0.270 OA
ATOM      6  N   UNL     1      -7.847  -8.450  10.163  0.00  0.00    -0.277 N 
ATOM     28  C   UNL     1      -8.196  -8.085   8.870  0.00  0.00    +0.248 C 
ATOM     37  H   UNL     1      -8.419  -8.170  10.953  0.00  0.00    +0.155 HD
BRANCH  28  30
ATOM     30  C   UNL     1      -9.555  -7.505   8.708  0.00  0.00    +0.037 A 
ATOM     31  C   UNL     1      -9.679  -6.231   8.195  0.00  0.00    +0.014 A 
ATOM     32  C   UNL     1     -10.649  -8.261   9.074  0.00  0.00    +0.014 A 
ATOM     33  C   UNL     1     -10.954  -5.687   8.041  0.00  0.00    +0.019 A 
ATOM     34  C   UNL     1     -11.925  -7.717   8.921  0.00  0.00    +0.019 A 
ATOM     35  C   UNL     1     -12.077  -6.430   8.405  0.00  0.00    +0.052 A 
BRANCH  35  36
ATOM      7  N   UNL     1     -14.445  -5.418   8.124  0.00  0.00    -0.191 NA
ATOM     36  C   UNL     1     -13.384  -5.872   8.250  0.00  0.00    +0.099 C 
ENDBRANCH  35  36
ENDBRANCH  28  30
ENDBRANCH  19   6
BRANCH   3  15
ATOM     15  C   UNL     1      -3.236 -10.751  15.392  0.00  0.00    +0.121 C 
BRANCH  15  18
ATOM      5  N   UNL     1      -6.483  -9.792  16.761  0.00  0.00    -0.349 N 
ATOM     18  C   UNL     1      -4.483 -10.494  16.191  0.00  0.00    -0.008 A 
ATOM     21  C   UNL     1      -4.711 -10.920  17.514  0.00  0.00    +0.004 A 
ATOM     22  C   UNL     1      -5.569  -9.808  15.743  0.00  0.00    +0.091 A 
ATOM     23  C   UNL     1      -5.985 -10.464  17.855  0.00  0.00    +0.049 A 
ATOM     24  C   UNL     1      -3.972 -11.646  18.468  0.00  0.00    +0.010 A 
ATOM     25  C   UNL     1      -6.562 -10.701  19.109  0.00  0.00    +0.026 A 
ATOM     26  C   UNL     1      -7.782  -9.159  16.683  0.00  0.00    +0.149 C 
ATOM     27  C   UNL     1      -4.535 -11.891  19.726  0.00  0.00    +0.001 A 
ATOM     29  C   UNL     1      -5.811 -11.424  20.040  0.00  0.00    +0.002 A 
ENDBRANCH  15  18
ENDBRANCH   3  15
TORSDOF 5
ENDMDL
MODEL 7
REMARK VINA RESULT:      -7.3      4.836     10.953
REMARK  Name = 7051672
REMARK  6 active torsions:
REMARK  status: ('A' for Active; 'I' for Inactive)
REMARK    1  A    between atoms: N_3  and  C_15
REMARK    2  A    between atoms: N_5  and  C_26
REMARK    3  A    between atoms: N_6  and  C_19
REMARK    4  A    between atoms: C_15  and  C_18
REMARK    5  A    between atoms: C_28  and  C_30
REMARK    6  A    between atoms: C_35  and  C_36
REMARK                            x       y       z     vdW  Elec       q    Type
REMARK                         _______ _______ _______ _____ _____    ______ ____
ROOT
ATOM      1  O   UNL     1     -10.455 -10.397  14.726  0.00  0.00    -0.266 OA
ATOM      3  N   UNL     1     -14.046  -7.163  13.394  0.00  0.00    -0.297 NA
ATOM      4  N   UNL     1     -12.063  -8.799  15.286  0.00  0.00    -0.310 N 
ATOM      8  C   UNL     1     -14.567  -9.134  14.855  0.00  0.00    +0.024 C 
ATOM      9  C   UNL     1     -13.779  -7.052  15.875  0.00  0.00    +0.050 C 
ATOM     10  C   UNL     1     -14.746  -8.218  16.059  0.00  0.00    +0.017 C 
ATOM     11  C   UNL     1     -14.879  -8.363  13.554  0.00  0.00    +0.090 C 
ATOM     12  C   UNL     1     -14.126  -6.292  14.575  0.00  0.00    +0.094 C 
ATOM     13  C   UNL     1     -13.143  -9.706  14.875  0.00  0.00    +0.130 C 
ATOM     14  C   UNL     1     -12.343  -7.543  15.836  0.00  0.00    +0.026 A 
ATOM     16  C   UNL     1     -11.347  -6.774  16.306  0.00  0.00    +0.024 A 
ATOM     17  C   UNL     1     -10.747  -9.294  15.188  0.00  0.00    +0.273 A 
ATOM     19  C   UNL     1      -9.664  -8.396  15.701  0.00  0.00    +0.099 A 
ATOM     20  C   UNL     1      -9.981  -7.212  16.234  0.00  0.00    +0.030 A 
ENDROOT
BRANCH  19   6
ATOM      2  O   UNL     1      -8.238  -9.845  17.704  0.00  0.00    -0.270 OA
ATOM      6  N   UNL     1      -8.376  -8.834  15.614  0.00  0.00    -0.277 N 
ATOM     28  C   UNL     1      -7.736  -9.535  16.626  0.00  0.00    +0.248 C 
ATOM     37  H   UNL     1      -7.855  -8.484  14.816  0.00  0.00    +0.155 HD
BRANCH  28  30
ATOM     30  C   UNL     1      -6.338  -9.950  16.340  0.00  0.00    +0.037 A 
ATOM     31  C   UNL     1      -5.921 -10.027  15.028  0.00  0.00    +0.014 A 
ATOM     32  C   UNL     1      -5.501 -10.241  17.398  0.00  0.00    +0.014 A 
ATOM     33  C   UNL     1      -4.607 -10.414  14.760  0.00  0.00    +0.019 A 
ATOM     34  C   UNL     1      -4.187 -10.628  17.130  0.00  0.00    +0.019 A 
ATOM     35  C   UNL     1      -3.741 -10.715  15.811  0.00  0.00    +0.052 A 
BRANCH  35  36
ATOM      7  N   UNL     1      -1.304 -11.438  15.313  0.00  0.00    -0.191 NA
ATOM     36  C   UNL     1      -2.396 -11.114  15.537  0.00  0.00    +0.099 C 
ENDBRANCH  35  36
ENDBRANCH  28  30
ENDBRANCH  19   6
BRANCH   3  15
ATOM     15  C   UNL     1     -14.406  -6.436  12.180  0.00  0.00    +0.121 C 
BRANCH  15  18
ATOM      5  N   UNL     1     -11.956  -7.467   9.674  0.00  0.00    -0.349 N 
ATOM     18  C   UNL     1     -13.330  -6.581  11.140  0.00  0.00    -0.008 A 
ATOM     21  C   UNL     1     -12.549  -5.533  10.616  0.00  0.00    +0.004 A 
ATOM     22  C   UNL     1     -12.961  -7.755  10.558  0.00  0.00    +0.091 A 
ATOM     23  C   UNL     1     -11.685  -6.117   9.689  0.00  0.00    +0.049 A 
ATOM     24  C   UNL     1     -12.478  -4.142  10.829  0.00  0.00    +0.010 A 
ATOM     25  C   UNL     1     -10.748  -5.377   8.958  0.00  0.00    +0.026 A 
ATOM     26  C   UNL     1     -11.289  -8.450   8.848  0.00  0.00    +0.149 C 
ATOM     27  C   UNL     1     -11.546  -3.388  10.105  0.00  0.00    +0.001 A 
ATOM     29  C   UNL     1     -10.695  -3.998   9.184  0.00  0.00    +0.002 A 
ENDBRANCH  15  18
ENDBRANCH   3  15
TORSDOF 5
ENDMDL
MODEL 8
REMARK VINA RESULT:      -7.1     30.205     32.886
REMARK  Name = 7051672
REMARK  6 active torsions:
REMARK  status: ('A' for Active; 'I' for Inactive)
REMARK    1  A    between atoms: N_3  and  C_15
REMARK    2  A    between atoms: N_5  and  C_26
REMARK    3  A    between atoms: N_6  and  C_19
REMARK    4  A    between atoms: C_15  and  C_18
REMARK    5  A    between atoms: C_28  and  C_30
REMARK    6  A    between atoms: C_35  and  C_36
REMARK                            x       y       z     vdW  Elec       q    Type
REMARK                         _______ _______ _______ _____ _____    ______ ____
ROOT
ATOM      1  O   UNL     1      20.731   3.391  20.921  0.00  0.00    -0.266 OA
ATOM      3  N   UNL     1      24.794   4.381  23.686  0.00  0.00    -0.297 NA
ATOM      4  N   UNL     1      22.922   4.180  21.108  0.00  0.00    -0.310 N 
ATOM      8  C   UNL     1      24.879   2.693  21.832  0.00  0.00    +0.024 C 
ATOM      9  C   UNL     1      25.272   5.057  21.329  0.00  0.00    +0.050 C 
ATOM     10  C   UNL     1      25.718   3.639  20.984  0.00  0.00    +0.017 C 
ATOM     11  C   UNL     1      25.103   2.989  23.332  0.00  0.00    +0.090 C 
ATOM     12  C   UNL     1      25.523   5.328  22.829  0.00  0.00    +0.094 C 
ATOM     13  C   UNL     1      23.408   2.829  21.418  0.00  0.00    +0.130 C 
ATOM     14  C   UNL     1      23.805   5.258  20.990  0.00  0.00    +0.026 A 
ATOM     16  C   UNL     1      23.356   6.462  20.601  0.00  0.00    +0.024 A 
ATOM     17  C   UNL     1      21.543   4.313  20.845  0.00  0.00    +0.273 A 
ATOM     19  C   UNL     1      21.078   5.677  20.436  0.00  0.00    +0.099 A 
ATOM     20  C   UNL     1      21.963   6.673  20.320  0.00  0.00    +0.030 A 
ENDROOT
BRANCH  19   6
ATOM      2  O   UNL     1      19.150   6.772  22.233  0.00  0.00    -0.270 OA
ATOM      6  N   UNL     1      19.750   5.850  20.183  0.00  0.00    -0.277 N 
ATOM     28  C   UNL     1      18.860   6.390  21.102  0.00  0.00    +0.248 C 
ATOM     37  H   UNL     1      19.414   5.420  19.328  0.00  0.00    +0.155 HD
BRANCH  28  30
ATOM     30  C   UNL     1      17.454   6.521  20.638  0.00  0.00    +0.037 A 
ATOM     31  C   UNL     1      16.482   6.878  21.549  0.00  0.00    +0.014 A 
ATOM     32  C   UNL     1      17.168   6.285  19.309  0.00  0.00    +0.014 A 
ATOM     33  C   UNL     1      15.163   7.003  21.112  0.00  0.00    +0.019 A 
ATOM     34  C   UNL     1      15.848   6.410  18.872  0.00  0.00    +0.019 A 
ATOM     35  C   UNL     1      14.846   6.769  19.774  0.00  0.00    +0.052 A 
BRANCH  35  36
ATOM      7  N   UNL     1      12.396   6.997  18.965  0.00  0.00    -0.191 NA
ATOM     36  C   UNL     1      13.495   6.895  19.328  0.00  0.00    +0.099 C 
ENDBRANCH  35  36
ENDBRANCH  28  30
ENDBRANCH  19   6
BRANCH   3  15
ATOM     15  C   UNL     1      25.066   4.634  25.098  0.00  0.00    +0.121 C 
BRANCH  15  18
ATOM      5  N   UNL     1      22.194   5.220  27.277  0.00  0.00    -0.349 N 
ATOM     18  C   UNL     1      23.816   5.079  25.805  0.00  0.00    -0.008 A 
ATOM     21  C   UNL     1      22.952   6.104  25.373  0.00  0.00    +0.004 A 
ATOM     22  C   UNL     1      23.345   4.548  26.965  0.00  0.00    +0.091 A 
ATOM     23  C   UNL     1      21.930   6.176  26.322  0.00  0.00    +0.049 A 
ATOM     24  C   UNL     1      22.921   6.984  24.274  0.00  0.00    +0.010 A 
ATOM     25  C   UNL     1      20.875   7.090  26.227  0.00  0.00    +0.026 A 
ATOM     26  C   UNL     1      21.385   4.955  28.447  0.00  0.00    +0.149 C 
ATOM     27  C   UNL     1      21.872   7.905  24.166  0.00  0.00    +0.001 A 
ATOM     29  C   UNL     1      20.865   7.955  25.129  0.00  0.00    +0.002 A 
ENDBRANCH  15  18
ENDBRANCH   3  15
TORSDOF 5
ENDMDL
MODEL 9
REMARK VINA RESULT:      -7.0     20.950     25.117
REMARK  Name = 7051672
REMARK  6 active torsions:
REMARK  status: ('A' for Active; 'I' for Inactive)
REMARK    1  A    between atoms: N_3  and  C_15
REMARK    2  A    between atoms: N_5  and  C_26
REMARK    3  A    between atoms: N_6  and  C_19
REMARK    4  A    between atoms: C_15  and  C_18
REMARK    5  A    between atoms: C_28  and  C_30
REMARK    6  A    between atoms: C_35  and  C_36
REMARK                            x       y       z     vdW  Elec       q    Type
REMARK                         _______ _______ _______ _____ _____    ______ ____
ROOT
ATOM      1  O   UNL     1       9.564  -9.534  31.926  0.00  0.00    -0.266 OA
ATOM      3  N   UNL     1       8.177  -7.034  36.044  0.00  0.00    -0.297 NA
ATOM      4  N   UNL     1       8.668  -7.635  32.948  0.00  0.00    -0.310 N 
ATOM      8  C   UNL     1      10.004  -6.162  34.564  0.00  0.00    +0.024 C 
ATOM      9  C   UNL     1       7.674  -5.605  34.058  0.00  0.00    +0.050 C 
ATOM     10  C   UNL     1       9.095  -5.047  34.066  0.00  0.00    +0.017 C 
ATOM     11  C   UNL     1       9.578  -6.597  35.983  0.00  0.00    +0.090 C 
ATOM     12  C   UNL     1       7.272  -6.015  35.493  0.00  0.00    +0.094 C 
ATOM     13  C   UNL     1       9.967  -7.319  33.556  0.00  0.00    +0.130 C 
ATOM     14  C   UNL     1       7.565  -6.790  33.116  0.00  0.00    +0.026 A 
ATOM     16  C   UNL     1       6.418  -7.037  32.464  0.00  0.00    +0.024 A 
ATOM     17  C   UNL     1       8.616  -8.771  32.116  0.00  0.00    +0.273 A 
ATOM     19  C   UNL     1       7.312  -9.026  31.425  0.00  0.00    +0.099 A 
ATOM     20  C   UNL     1       6.291  -8.181  31.603  0.00  0.00    +0.030 A 
ENDROOT
BRANCH  19   6
ATOM      2  O   UNL     1       6.430 -11.624  32.214  0.00  0.00    -0.270 OA
ATOM      6  N   UNL     1       7.218 -10.122  30.621  0.00  0.00    -0.277 N 
ATOM     28  C   UNL     1       6.781 -11.362  31.065  0.00  0.00    +0.248 C 
ATOM     37  H   UNL     1       7.631 -10.018  29.700  0.00  0.00    +0.155 HD
BRANCH  28  30
ATOM     30  C   UNL     1       6.723 -12.433  30.037  0.00  0.00    +0.037 A 
ATOM     31  C   UNL     1       5.668 -13.320  30.056  0.00  0.00    +0.014 A 
ATOM     32  C   UNL     1       7.728 -12.504  29.093  0.00  0.00    +0.014 A 
ATOM     33  C   UNL     1       5.614 -14.325  29.088  0.00  0.00    +0.019 A 
ATOM     34  C   UNL     1       7.674 -13.508  28.126  0.00  0.00    +0.019 A 
ATOM     35  C   UNL     1       6.617 -14.418  28.124  0.00  0.00    +0.052 A 
BRANCH  35  36
ATOM      7  N   UNL     1       6.519 -16.285  26.330  0.00  0.00    -0.191 NA
ATOM     36  C   UNL     1       6.563 -15.448  27.135  0.00  0.00    +0.099 C 
ENDBRANCH  35  36
ENDBRANCH  28  30
ENDBRANCH  19   6
BRANCH   3  15
ATOM     15  C   UNL     1       7.799  -7.388  37.410  0.00  0.00    +0.121 C 
BRANCH  15  18
ATOM      5  N   UNL     1       4.226  -7.651  38.117  0.00  0.00    -0.349 N 
ATOM     18  C   UNL     1       6.328  -7.689  37.488  0.00  0.00    -0.008 A 
ATOM     21  C   UNL     1       5.635  -8.606  36.675  0.00  0.00    +0.004 A 
ATOM     22  C   UNL     1       5.460  -7.113  38.362  0.00  0.00    +0.091 A 
ATOM     23  C   UNL     1       4.303  -8.566  37.091  0.00  0.00    +0.049 A 
ATOM     24  C   UNL     1       5.992  -9.474  35.624  0.00  0.00    +0.010 A 
ATOM     25  C   UNL     1       3.305  -9.353  36.506  0.00  0.00    +0.026 A 
ATOM     26  C   UNL     1       3.022  -7.297  38.839  0.00  0.00    +0.149 C 
ATOM     27  C   UNL     1       5.004 -10.267  35.028  0.00  0.00    +0.001 A 
ATOM     29  C   UNL     1       3.681 -10.206  35.464  0.00  0.00    +0.002 A 
ENDBRANCH  15  18
ENDBRANCH   3  15
TORSDOF 5
ENDMDL
MODEL 10
REMARK VINA RESULT:      -6.9      6.259     11.195
REMARK  Name = 7051672
REMARK  6 active torsions:
REMARK  status: ('A' for Active; 'I' for Inactive)
REMARK    1  A    between atoms: N_3  and  C_15
REMARK    2  A    between atoms: N_5  and  C_26
REMARK    3  A    between atoms: N_6  and  C_19
REMARK    4  A    between atoms: C_15  and  C_18
REMARK    5  A    between atoms: C_28  and  C_30
REMARK    6  A    between atoms: C_35  and  C_36
REMARK                            x       y       z     vdW  Elec       q    Type
REMARK                         _______ _______ _______ _____ _____    ______ ____
ROOT
ATOM      1  O   UNL     1     -10.738 -11.597  16.240  0.00  0.00    -0.266 OA
ATOM      3  N   UNL     1     -14.948  -9.112  17.351  0.00  0.00    -0.297 NA
ATOM      4  N   UNL     1     -12.473 -11.093  17.721  0.00  0.00    -0.310 N 
ATOM      8  C   UNL     1     -14.930 -11.616  17.216  0.00  0.00    +0.024 C 
ATOM      9  C   UNL     1     -14.330 -10.519  19.321  0.00  0.00    +0.050 C 
ATOM     10  C   UNL     1     -15.065 -11.718  18.729  0.00  0.00    +0.017 C 
ATOM     11  C   UNL     1     -15.550 -10.292  16.717  0.00  0.00    +0.090 C 
ATOM     12  C   UNL     1     -14.983  -9.211  18.818  0.00  0.00    +0.094 C 
ATOM     13  C   UNL     1     -13.448 -11.751  16.841  0.00  0.00    +0.130 C 
ATOM     14  C   UNL     1     -12.858 -10.553  18.952  0.00  0.00    +0.026 A 
ATOM     16  C   UNL     1     -11.935 -10.054  19.791  0.00  0.00    +0.024 A 
ATOM     17  C   UNL     1     -11.126 -11.120  17.306  0.00  0.00    +0.273 A 
ATOM     19  C   UNL     1     -10.130 -10.531  18.259  0.00  0.00    +0.099 A 
ATOM     20  C   UNL     1     -10.544 -10.043  19.432  0.00  0.00    +0.030 A 
ENDROOT
BRANCH  19   6
ATOM      2  O   UNL     1      -7.937 -11.463  19.829  0.00  0.00    -0.270 OA
ATOM      6  N   UNL     1      -8.818 -10.527  17.890  0.00  0.00    -0.277 N 
ATOM     28  C   UNL     1      -7.794 -10.996  18.702  0.00  0.00    +0.248 C 
ATOM     37  H   UNL     1      -8.611 -10.020  17.037  0.00  0.00    +0.155 HD
BRANCH  28  30
ATOM     30  C   UNL     1      -6.428 -10.931  18.120  0.00  0.00    +0.037 A 
ATOM     31  C   UNL     1      -5.413 -11.645  18.721  0.00  0.00    +0.014 A 
ATOM     32  C   UNL     1      -6.221 -10.161  16.994  0.00  0.00    +0.014 A 
ATOM     33  C   UNL     1      -4.131 -11.586  18.172  0.00  0.00    +0.019 A 
ATOM     34  C   UNL     1      -4.939 -10.101  16.446  0.00  0.00    +0.019 A 
ATOM     35  C   UNL     1      -3.894 -10.814  17.036  0.00  0.00    +0.052 A 
BRANCH  35  36
ATOM      7  N   UNL     1      -1.513 -10.700  16.021  0.00  0.00    -0.191 NA
ATOM     36  C   UNL     1      -2.581 -10.751  16.475  0.00  0.00    +0.099 C 
ENDBRANCH  35  36
ENDBRANCH  28  30
ENDBRANCH  19   6
BRANCH   3  15
ATOM     15  C   UNL     1     -15.595  -7.886  16.893  0.00  0.00    +0.121 C 
BRANCH  15  18
ATOM      5  N   UNL     1     -14.006  -5.909  14.264  0.00  0.00    -0.349 N 
ATOM     18  C   UNL     1     -14.697  -7.137  15.947  0.00  0.00    -0.008 A 
ATOM     21  C   UNL     1     -13.295  -7.049  16.046  0.00  0.00    +0.004 A 
ATOM     22  C   UNL     1     -15.119  -6.439  14.859  0.00  0.00    +0.091 A 
ATOM     23  C   UNL     1     -12.878  -6.265  14.968  0.00  0.00    +0.049 A 
ATOM     24  C   UNL     1     -12.325  -7.551  16.935  0.00  0.00    +0.010 A 
ATOM     25  C   UNL     1     -11.533  -5.956  14.735  0.00  0.00    +0.026 A 
ATOM     26  C   UNL     1     -14.029  -5.091  13.070  0.00  0.00    +0.149 C 
ATOM     27  C   UNL     1     -10.976  -7.250  16.715  0.00  0.00    +0.001 A 
ATOM     29  C   UNL     1     -10.587  -6.464  15.631  0.00  0.00    +0.002 A 
ENDBRANCH  15  18
ENDBRANCH   3  15
TORSDOF 5
ENDMDL
