REMARK  Name = 11883055
REMARK  9 active torsions:
REMARK  status: ('A' for Active; 'I' for Inactive)
REMARK    1  A    between atoms: O_4  and  C_16
REMARK    2  A    between atoms: O_5  and  C_21
REMARK    3  A    between atoms: O_6  and  C_25
REMARK    4  A    between atoms: C_11  and  C_19
REMARK    5  A    between atoms: C_13  and  C_21
REMARK    6  A    between atoms: C_13  and  C_22
REMARK    7  A    between atoms: C_14  and  C_24
REMARK    8  A    between atoms: C_24  and  C_25
REMARK    9  A    between atoms: C_27  and  C_28
REMARK                            x       y       z     vdW  Elec       q    Type
REMARK                         _______ _______ _______ _____ _____    ______ ____
ROOT
ATOM      1  S   UNL     1       0.388   2.119   0.011  0.00  0.00    -0.057 S 
ATOM      8  O   UNL     1       3.488  -1.353  -0.039  0.00  0.00    -0.270 OA
ATOM      9  N   UNL     1       0.671  -0.452  -0.020  0.00  0.00    -0.229 NA
ATOM     10  N   UNL     1       2.690   0.864  -0.008  0.00  0.00    -0.261 N 
ATOM     11  C   UNL     1      -3.152  -0.748   0.387  0.00  0.00    -0.019 C 
ATOM     12  C   UNL     1      -3.420   0.608  -0.404  0.00  0.00    +0.011 C 
ATOM     13  C   UNL     1      -4.912   1.114  -0.472  0.00  0.00    +0.021 C 
ATOM     14  C   UNL     1      -1.709  -1.288  -0.037  0.00  0.00    +0.055 C 
ATOM     15  C   UNL     1      -4.210  -1.804  -0.027  0.00  0.00    +0.010 C 
ATOM     16  C   UNL     1      -5.840  -0.074  -0.852  0.00  0.00    +0.123 C 
ATOM     17  C   UNL     1      -2.401   1.713  -0.000  0.00  0.00    +0.049 C 
ATOM     18  C   UNL     1      -5.644  -1.298   0.036  0.00  0.00    +0.032 C 
ATOM     19  C   UNL     1      -3.204  -0.568   1.924  0.00  0.00    +0.012 C 
ATOM     20  C   UNL     1      -0.685  -0.183  -0.004  0.00  0.00    +0.058 A 
ATOM     22  C   UNL     1      -5.037   2.177  -1.600  0.00  0.00    +0.016 C 
ATOM     23  C   UNL     1      -1.017   1.157  -0.006  0.00  0.00    +0.015 A 
ATOM     26  C   UNL     1       1.332   0.685  -0.007  0.00  0.00    +0.165 A 
ATOM     27  C   UNL     1       3.671  -0.141  -0.023  0.00  0.00    +0.255 C 
ATOM     36  H   UNL     1       2.980   1.838  -0.018  0.00  0.00    +0.157 HD
ENDROOT
BRANCH  27  28
ATOM      2  F   UNL     1       4.437   2.293   1.141  0.00  0.00    -0.205 F 
ATOM      3  F   UNL     1       5.726  -1.606  -1.245  0.00  0.00    -0.205 F 
ATOM     28  C   UNL     1       5.077   0.342  -0.052  0.00  0.00    +0.107 A 
ATOM     29  C   UNL     1       5.378   1.550   0.542  0.00  0.00    +0.138 A 
ATOM     30  C   UNL     1       6.034  -0.434  -0.672  0.00  0.00    +0.138 A 
ATOM     31  C   UNL     1       6.697   2.002   0.515  0.00  0.00    +0.039 A 
ATOM     32  C   UNL     1       7.353   0.019  -0.699  0.00  0.00    +0.039 A 
ATOM     33  C   UNL     1       7.684   1.237  -0.106  0.00  0.00    +0.006 A 
ENDBRANCH  27  28
BRANCH  16   4
ATOM      4  O   UNL     1      -7.210   0.319  -0.796  0.00  0.00    -0.391 OA
ATOM     34  H   UNL     1      -7.401   0.860  -1.580  0.00  0.00    +0.210 HD
ENDBRANCH  16   4
BRANCH  13  21
ATOM     21  C   UNL     1      -5.411   1.812   0.813  0.00  0.00    +0.165 C 
BRANCH  21   5
ATOM      5  O   UNL     1      -6.745   2.214   0.596  0.00  0.00    -0.394 OA
ATOM     35  H   UNL     1      -6.731   3.096   0.187  0.00  0.00    +0.209 HD
ENDBRANCH  21   5
ENDBRANCH  13  21
BRANCH  14  24
ATOM     24  C   UNL     1      -1.233  -2.518   0.748  0.00  0.00    +0.130 C 
BRANCH  24  25
ATOM      7  O   UNL     1       0.398  -3.030  -0.990  0.00  0.00    -0.251 OA
ATOM     25  C   UNL     1       0.040  -3.075   0.177  0.00  0.00    +0.305 C 
BRANCH  25   6
ATOM      6  O   UNL     1       0.765  -3.654   1.168  0.00  0.00    -0.481 OA
ATOM     37  H   UNL     1       1.607  -4.029   0.833  0.00  0.00    +0.295 HD
ENDBRANCH  25   6
ENDBRANCH  24  25
ENDBRANCH  14  24
TORSDOF 7
