MODEL 1
REMARK VINA RESULT:      -7.3      0.000      0.000
REMARK  Name = 71694030
REMARK  8 active torsions:
REMARK  status: ('A' for Active; 'I' for Inactive)
REMARK    1  A    between atoms: O_1  and  C_7
REMARK    2  A    between atoms: O_2  and  C_9
REMARK    3  A    between atoms: O_3  and  C_22
REMARK    4  A    between atoms: O_3  and  C_23
REMARK    5  A    between atoms: N_4  and  C_5
REMARK    6  A    between atoms: N_4  and  C_11
REMARK    7  A    between atoms: C_6  and  C_10
REMARK    8  A    between atoms: C_11  and  C_14
REMARK                            x       y       z     vdW  Elec       q    Type
REMARK                         _______ _______ _______ _____ _____    ______ ____
ROOT
ATOM      5  C   UNL     1      12.844   7.130  20.756  0.00  0.00    +0.092 C 
ATOM      6  C   UNL     1      13.032   8.458  21.523  0.00  0.00    +0.041 C 
ATOM      7  C   UNL     1      11.713   6.443  21.522  0.00  0.00    +0.160 C 
ATOM      8  C   UNL     1      11.660   8.750  22.188  0.00  0.00    +0.043 C 
ATOM      9  C   UNL     1      10.745   7.592  21.787  0.00  0.00    +0.145 C 
ENDROOT
BRANCH   6  10
ATOM     10  C   UNL     1      13.548   9.582  20.650  0.00  0.00    -0.043 A 
ATOM     12  C   UNL     1      14.739  10.230  20.980  0.00  0.00    +0.004 A 
ATOM     13  C   UNL     1      12.834   9.970  19.517  0.00  0.00    +0.004 A 
ATOM     15  C   UNL     1      15.215  11.266  20.175  0.00  0.00    +0.000 A 
ATOM     16  C   UNL     1      13.310  11.006  18.712  0.00  0.00    +0.000 A 
ATOM     17  C   UNL     1      14.501  11.654  19.042  0.00  0.00    +0.000 A 
ENDBRANCH   6  10
BRANCH   7   1
ATOM      1  O   UNL     1      11.117   5.411  20.758  0.00  0.00    -0.388 OA
ATOM     25  H   UNL     1      10.986   5.755  19.858  0.00  0.00    +0.210 HD
ENDBRANCH   7   1
BRANCH   9   2
ATOM      2  O   UNL     1      10.043   7.930  20.593  0.00  0.00    -0.389 OA
ATOM     26  H   UNL     1      10.075   7.154  20.008  0.00  0.00    +0.210 HD
ENDBRANCH   9   2
BRANCH   5   4
ATOM      4  N   UNL     1      14.060   6.323  20.750  0.00  0.00    -0.306 NA
ATOM     24  H   UNL     1      14.580   6.492  21.609  0.00  0.00    +0.123 HD
BRANCH   4  11
ATOM     11  C   UNL     1      14.907   6.669  19.616  0.00  0.00    +0.116 C 
BRANCH  11  14
ATOM     14  C   UNL     1      16.369   6.516  19.941  0.00  0.00    -0.033 A 
ATOM     18  C   UNL     1      17.179   5.706  19.145  0.00  0.00    +0.008 A 
ATOM     19  C   UNL     1      16.913   7.185  21.036  0.00  0.00    +0.008 A 
ATOM     20  C   UNL     1      18.534   5.566  19.446  0.00  0.00    +0.046 A 
ATOM     21  C   UNL     1      18.267   7.045  21.337  0.00  0.00    +0.046 A 
ATOM     22  C   UNL     1      19.078   6.235  20.542  0.00  0.00    +0.120 A 
BRANCH  22   3
ATOM      3  O   UNL     1      20.400   6.100  20.834  0.00  0.00    -0.495 OA
ATOM     23  C   UNL     1      21.013   4.853  20.509  0.00  0.00    +0.277 C 
ENDBRANCH  22   3
ENDBRANCH  11  14
ENDBRANCH   4  11
ENDBRANCH   5   4
TORSDOF 7
ENDMDL
MODEL 2
REMARK VINA RESULT:      -6.9      2.786      6.468
REMARK  Name = 71694030
REMARK  8 active torsions:
REMARK  status: ('A' for Active; 'I' for Inactive)
REMARK    1  A    between atoms: O_1  and  C_7
REMARK    2  A    between atoms: O_2  and  C_9
REMARK    3  A    between atoms: O_3  and  C_22
REMARK    4  A    between atoms: O_3  and  C_23
REMARK    5  A    between atoms: N_4  and  C_5
REMARK    6  A    between atoms: N_4  and  C_11
REMARK    7  A    between atoms: C_6  and  C_10
REMARK    8  A    between atoms: C_11  and  C_14
REMARK                            x       y       z     vdW  Elec       q    Type
REMARK                         _______ _______ _______ _____ _____    ______ ____
ROOT
ATOM      5  C   UNL     1      12.998   7.670  18.911  0.00  0.00    +0.092 C 
ATOM      6  C   UNL     1      14.114   8.718  19.130  0.00  0.00    +0.041 C 
ATOM      7  C   UNL     1      12.203   8.248  17.741  0.00  0.00    +0.160 C 
ATOM      8  C   UNL     1      14.302   9.414  17.754  0.00  0.00    +0.043 C 
ATOM      9  C   UNL     1      13.299   8.752  16.808  0.00  0.00    +0.145 C 
ENDROOT
BRANCH   6  10
ATOM     10  C   UNL     1      15.383   8.126  19.704  0.00  0.00    -0.043 A 
ATOM     12  C   UNL     1      16.090   8.816  20.689  0.00  0.00    +0.004 A 
ATOM     13  C   UNL     1      15.846   6.892  19.247  0.00  0.00    +0.004 A 
ATOM     15  C   UNL     1      17.261   8.271  21.218  0.00  0.00    +0.000 A 
ATOM     16  C   UNL     1      17.016   6.347  19.777  0.00  0.00    +0.000 A 
ATOM     17  C   UNL     1      17.723   7.036  20.762  0.00  0.00    +0.000 A 
ENDBRANCH   6  10
BRANCH   7   1
ATOM      1  O   UNL     1      11.391   7.265  17.126  0.00  0.00    -0.388 OA
ATOM     25  H   UNL     1      11.896   6.434  17.121  0.00  0.00    +0.210 HD
ENDBRANCH   7   1
BRANCH   9   2
ATOM      2  O   UNL     1      13.923   7.655  16.145  0.00  0.00    -0.389 OA
ATOM     26  H   UNL     1      13.346   6.880  16.258  0.00  0.00    +0.210 HD
ENDBRANCH   9   2
BRANCH   5   4
ATOM      4  N   UNL     1      12.167   7.499  20.099  0.00  0.00    -0.306 NA
ATOM     24  H   UNL     1      11.766   6.562  20.097  0.00  0.00    +0.123 HD
BRANCH   4  11
ATOM     11  C   UNL     1      11.082   8.471  20.116  0.00  0.00    +0.116 C 
BRANCH  11  14
ATOM     14  C   UNL     1      11.277   9.509  21.188  0.00  0.00    -0.033 A 
ATOM     18  C   UNL     1      11.950  10.696  20.895  0.00  0.00    +0.008 A 
ATOM     19  C   UNL     1      10.785   9.287  22.473  0.00  0.00    +0.008 A 
ATOM     20  C   UNL     1      12.129  11.659  21.888  0.00  0.00    +0.046 A 
ATOM     21  C   UNL     1      10.964  10.249  23.466  0.00  0.00    +0.046 A 
ATOM     22  C   UNL     1      11.636  11.436  23.174  0.00  0.00    +0.120 A 
BRANCH  22   3
ATOM      3  O   UNL     1      11.809  12.376  24.142  0.00  0.00    -0.495 OA
ATOM     23  C   UNL     1      10.832  12.426  25.180  0.00  0.00    +0.277 C 
ENDBRANCH  22   3
ENDBRANCH  11  14
ENDBRANCH   4  11
ENDBRANCH   5   4
TORSDOF 7
ENDMDL
MODEL 3
REMARK VINA RESULT:      -6.9      3.642      5.122
REMARK  Name = 71694030
REMARK  8 active torsions:
REMARK  status: ('A' for Active; 'I' for Inactive)
REMARK    1  A    between atoms: O_1  and  C_7
REMARK    2  A    between atoms: O_2  and  C_9
REMARK    3  A    between atoms: O_3  and  C_22
REMARK    4  A    between atoms: O_3  and  C_23
REMARK    5  A    between atoms: N_4  and  C_5
REMARK    6  A    between atoms: N_4  and  C_11
REMARK    7  A    between atoms: C_6  and  C_10
REMARK    8  A    between atoms: C_11  and  C_14
REMARK                            x       y       z     vdW  Elec       q    Type
REMARK                         _______ _______ _______ _____ _____    ______ ____
ROOT
ATOM      5  C   UNL     1      11.845  10.387  22.707  0.00  0.00    +0.092 C 
ATOM      6  C   UNL     1      13.360  10.689  22.684  0.00  0.00    +0.041 C 
ATOM      7  C   UNL     1      11.350  11.181  23.915  0.00  0.00    +0.160 C 
ATOM      8  C   UNL     1      13.518  12.066  23.384  0.00  0.00    +0.043 C 
ATOM      9  C   UNL     1      12.106  12.499  23.781  0.00  0.00    +0.145 C 
ENDROOT
BRANCH   6  10
ATOM     10  C   UNL     1      13.959  10.627  21.296  0.00  0.00    -0.043 A 
ATOM     12  C   UNL     1      15.044   9.789  21.041  0.00  0.00    +0.004 A 
ATOM     13  C   UNL     1      13.426  11.410  20.271  0.00  0.00    +0.004 A 
ATOM     15  C   UNL     1      15.597   9.732  19.761  0.00  0.00    +0.000 A 
ATOM     16  C   UNL     1      13.979  11.352  18.991  0.00  0.00    +0.000 A 
ATOM     17  C   UNL     1      15.064  10.514  18.736  0.00  0.00    +0.000 A 
ENDBRANCH   6  10
BRANCH   7   1
ATOM      1  O   UNL     1       9.947  11.366  23.879  0.00  0.00    -0.388 OA
ATOM     25  H   UNL     1       9.685  11.418  22.944  0.00  0.00    +0.210 HD
ENDBRANCH   7   1
BRANCH   9   2
ATOM      2  O   UNL     1      11.538  13.287  22.738  0.00  0.00    -0.389 OA
ATOM     26  H   UNL     1      12.271  13.729  22.275  0.00  0.00    +0.210 HD
ENDBRANCH   9   2
BRANCH   5   4
ATOM      4  N   UNL     1      11.572   8.960  22.849  0.00  0.00    -0.306 NA
ATOM     24  H   UNL     1      12.448   8.442  22.790  0.00  0.00    +0.123 HD
BRANCH   4  11
ATOM     11  C   UNL     1      10.683   8.494  21.794  0.00  0.00    +0.116 C 
BRANCH  11  14
ATOM     14  C   UNL     1      11.434   8.174  20.529  0.00  0.00    -0.033 A 
ATOM     18  C   UNL     1      11.091   8.809  19.335  0.00  0.00    +0.008 A 
ATOM     19  C   UNL     1      12.474   7.246  20.552  0.00  0.00    +0.008 A 
ATOM     20  C   UNL     1      11.789   8.513  18.164  0.00  0.00    +0.046 A 
ATOM     21  C   UNL     1      13.171   6.950  19.381  0.00  0.00    +0.046 A 
ATOM     22  C   UNL     1      12.829   7.584  18.187  0.00  0.00    +0.120 A 
BRANCH  22   3
ATOM      3  O   UNL     1      13.511   7.298  17.045  0.00  0.00    -0.495 OA
ATOM     23  C   UNL     1      13.845   8.395  16.196  0.00  0.00    +0.277 C 
ENDBRANCH  22   3
ENDBRANCH  11  14
ENDBRANCH   4  11
ENDBRANCH   5   4
TORSDOF 7
ENDMDL
MODEL 4
REMARK VINA RESULT:      -6.8      2.998      4.201
REMARK  Name = 71694030
REMARK  8 active torsions:
REMARK  status: ('A' for Active; 'I' for Inactive)
REMARK    1  A    between atoms: O_1  and  C_7
REMARK    2  A    between atoms: O_2  and  C_9
REMARK    3  A    between atoms: O_3  and  C_22
REMARK    4  A    between atoms: O_3  and  C_23
REMARK    5  A    between atoms: N_4  and  C_5
REMARK    6  A    between atoms: N_4  and  C_11
REMARK    7  A    between atoms: C_6  and  C_10
REMARK    8  A    between atoms: C_11  and  C_14
REMARK                            x       y       z     vdW  Elec       q    Type
REMARK                         _______ _______ _______ _____ _____    ______ ____
ROOT
ATOM      5  C   UNL     1      12.814   7.532  21.248  0.00  0.00    +0.092 C 
ATOM      6  C   UNL     1      12.512   8.634  22.289  0.00  0.00    +0.041 C 
ATOM      7  C   UNL     1      11.714   6.502  21.501  0.00  0.00    +0.160 C 
ATOM      8  C   UNL     1      10.990   8.523  22.578  0.00  0.00    +0.043 C 
ATOM      9  C   UNL     1      10.480   7.375  21.705  0.00  0.00    +0.145 C 
ENDROOT
BRANCH   6  10
ATOM     10  C   UNL     1      12.960  10.010  21.848  0.00  0.00    -0.043 A 
ATOM     12  C   UNL     1      12.249  10.692  20.860  0.00  0.00    +0.004 A 
ATOM     13  C   UNL     1      14.085  10.597  22.429  0.00  0.00    +0.004 A 
ATOM     15  C   UNL     1      12.662  11.961  20.453  0.00  0.00    +0.000 A 
ATOM     16  C   UNL     1      14.497  11.867  22.022  0.00  0.00    +0.000 A 
ATOM     17  C   UNL     1      13.786  12.548  21.034  0.00  0.00    +0.000 A 
ENDBRANCH   6  10
BRANCH   7   1
ATOM      1  O   UNL     1      11.565   5.618  20.406  0.00  0.00    -0.388 OA
ATOM     25  H   UNL     1      11.077   4.840  20.726  0.00  0.00    +0.210 HD
ENDBRANCH   7   1
BRANCH   9   2
ATOM      2  O   UNL     1      10.030   7.891  20.455  0.00  0.00    -0.389 OA
ATOM     26  H   UNL     1       9.865   7.132  19.870  0.00  0.00    +0.210 HD
ENDBRANCH   9   2
BRANCH   5   4
ATOM      4  N   UNL     1      14.144   6.958  21.427  0.00  0.00    -0.306 NA
ATOM     24  H   UNL     1      14.718   7.602  21.969  0.00  0.00    +0.123 HD
BRANCH   4  11
ATOM     11  C   UNL     1      14.788   6.729  20.141  0.00  0.00    +0.116 C 
BRANCH  11  14
ATOM     14  C   UNL     1      14.533   7.858  19.178  0.00  0.00    -0.033 A 
ATOM     18  C   UNL     1      15.242   9.053  19.301  0.00  0.00    +0.008 A 
ATOM     19  C   UNL     1      13.590   7.708  18.163  0.00  0.00    +0.008 A 
ATOM     20  C   UNL     1      15.007  10.098  18.408  0.00  0.00    +0.046 A 
ATOM     21  C   UNL     1      13.355   8.753  17.269  0.00  0.00    +0.046 A 
ATOM     22  C   UNL     1      14.063   9.948  17.392  0.00  0.00    +0.120 A 
BRANCH  22   3
ATOM      3  O   UNL     1      13.836  10.966  16.519  0.00  0.00    -0.495 OA
ATOM     23  C   UNL     1      14.577  10.955  15.300  0.00  0.00    +0.277 C 
ENDBRANCH  22   3
ENDBRANCH  11  14
ENDBRANCH   4  11
ENDBRANCH   5   4
TORSDOF 7
ENDMDL
MODEL 5
REMARK VINA RESULT:      -6.6      1.967      2.829
REMARK  Name = 71694030
REMARK  8 active torsions:
REMARK  status: ('A' for Active; 'I' for Inactive)
REMARK    1  A    between atoms: O_1  and  C_7
REMARK    2  A    between atoms: O_2  and  C_9
REMARK    3  A    between atoms: O_3  and  C_22
REMARK    4  A    between atoms: O_3  and  C_23
REMARK    5  A    between atoms: N_4  and  C_5
REMARK    6  A    between atoms: N_4  and  C_11
REMARK    7  A    between atoms: C_6  and  C_10
REMARK    8  A    between atoms: C_11  and  C_14
REMARK                            x       y       z     vdW  Elec       q    Type
REMARK                         _______ _______ _______ _____ _____    ______ ____
ROOT
ATOM      5  C   UNL     1      13.431   7.836  19.719  0.00  0.00    +0.092 C 
ATOM      6  C   UNL     1      12.589   9.090  19.393  0.00  0.00    +0.041 C 
ATOM      7  C   UNL     1      13.106   7.572  21.189  0.00  0.00    +0.160 C 
ATOM      8  C   UNL     1      11.400   9.061  20.391  0.00  0.00    +0.043 C 
ATOM      9  C   UNL     1      11.601   7.809  21.246  0.00  0.00    +0.145 C 
ENDROOT
BRANCH   6  10
ATOM     10  C   UNL     1      12.174   9.168  17.939  0.00  0.00    -0.043 A 
ATOM     12  C   UNL     1      10.943   8.653  17.537  0.00  0.00    +0.004 A 
ATOM     13  C   UNL     1      13.024   9.757  17.002  0.00  0.00    +0.004 A 
ATOM     15  C   UNL     1      10.560   8.725  16.196  0.00  0.00    +0.000 A 
ATOM     16  C   UNL     1      12.642   9.829  15.662  0.00  0.00    +0.000 A 
ATOM     17  C   UNL     1      11.410   9.313  15.259  0.00  0.00    +0.000 A 
ENDBRANCH   6  10
BRANCH   7   1
ATOM      1  O   UNL     1      13.452   6.253  21.571  0.00  0.00    -0.388 OA
ATOM     25  H   UNL     1      13.703   6.279  22.510  0.00  0.00    +0.210 HD
ENDBRANCH   7   1
BRANCH   9   2
ATOM      2  O   UNL     1      10.907   6.712  20.656  0.00  0.00    -0.389 OA
ATOM     26  H   UNL     1      11.025   6.779  19.692  0.00  0.00    +0.210 HD
ENDBRANCH   9   2
BRANCH   5   4
ATOM      4  N   UNL     1      14.858   8.065  19.513  0.00  0.00    -0.306 NA
ATOM     24  H   UNL     1      14.983   8.817  18.837  0.00  0.00    +0.123 HD
BRANCH   4  11
ATOM     11  C   UNL     1      15.507   6.865  19.003  0.00  0.00    +0.116 C 
BRANCH  11  14
ATOM     14  C   UNL     1      16.826   6.611  19.683  0.00  0.00    -0.033 A 
ATOM     18  C   UNL     1      17.161   7.314  20.841  0.00  0.00    +0.008 A 
ATOM     19  C   UNL     1      17.711   5.671  19.158  0.00  0.00    +0.008 A 
ATOM     20  C   UNL     1      18.382   7.077  21.472  0.00  0.00    +0.046 A 
ATOM     21  C   UNL     1      18.932   5.433  19.789  0.00  0.00    +0.046 A 
ATOM     22  C   UNL     1      19.268   6.136  20.946  0.00  0.00    +0.120 A 
BRANCH  22   3
ATOM      3  O   UNL     1      20.458   5.903  21.562  0.00  0.00    -0.495 OA
ATOM     23  C   UNL     1      21.254   4.833  21.054  0.00  0.00    +0.277 C 
ENDBRANCH  22   3
ENDBRANCH  11  14
ENDBRANCH   4  11
ENDBRANCH   5   4
TORSDOF 7
ENDMDL
MODEL 6
REMARK VINA RESULT:      -6.6     31.337     33.115
REMARK  Name = 71694030
REMARK  8 active torsions:
REMARK  status: ('A' for Active; 'I' for Inactive)
REMARK    1  A    between atoms: O_1  and  C_7
REMARK    2  A    between atoms: O_2  and  C_9
REMARK    3  A    between atoms: O_3  and  C_22
REMARK    4  A    between atoms: O_3  and  C_23
REMARK    5  A    between atoms: N_4  and  C_5
REMARK    6  A    between atoms: N_4  and  C_11
REMARK    7  A    between atoms: C_6  and  C_10
REMARK    8  A    between atoms: C_11  and  C_14
REMARK                            x       y       z     vdW  Elec       q    Type
REMARK                         _______ _______ _______ _____ _____    ______ ____
ROOT
ATOM      5  C   UNL     1     -15.186   2.130  29.472  0.00  0.00    +0.092 C 
ATOM      6  C   UNL     1     -13.945   2.002  30.385  0.00  0.00    +0.041 C 
ATOM      7  C   UNL     1     -15.137   0.851  28.638  0.00  0.00    +0.160 C 
ATOM      8  C   UNL     1     -13.677   0.477  30.508  0.00  0.00    +0.043 C 
ATOM      9  C   UNL     1     -14.758  -0.207  29.669  0.00  0.00    +0.145 C 
ENDROOT
BRANCH   6  10
ATOM     10  C   UNL     1     -14.106   2.711  31.713  0.00  0.00    -0.043 A 
ATOM     12  C   UNL     1     -13.527   3.965  31.908  0.00  0.00    +0.004 A 
ATOM     13  C   UNL     1     -14.833   2.110  32.741  0.00  0.00    +0.004 A 
ATOM     15  C   UNL     1     -13.676   4.619  33.132  0.00  0.00    +0.000 A 
ATOM     16  C   UNL     1     -14.981   2.765  33.964  0.00  0.00    +0.000 A 
ATOM     17  C   UNL     1     -14.403   4.019  34.160  0.00  0.00    +0.000 A 
ENDBRANCH   6  10
BRANCH   7   1
ATOM      1  O   UNL     1     -16.385   0.577  28.029  0.00  0.00    -0.388 OA
ATOM     25  H   UNL     1     -17.076   0.777  28.683  0.00  0.00    +0.210 HD
ENDBRANCH   7   1
BRANCH   9   2
ATOM      2  O   UNL     1     -15.879  -0.512  30.495  0.00  0.00    -0.389 OA
ATOM     26  H   UNL     1     -15.828   0.063  31.278  0.00  0.00    +0.210 HD
ENDBRANCH   9   2
BRANCH   5   4
ATOM      4  N   UNL     1     -15.130   3.325  28.636  0.00  0.00    -0.306 NA
ATOM     24  H   UNL     1     -14.406   3.949  28.988  0.00  0.00    +0.123 HD
BRANCH   4  11
ATOM     11  C   UNL     1     -16.404   4.030  28.653  0.00  0.00    +0.116 C 
BRANCH  11  14
ATOM     14  C   UNL     1     -16.695   4.628  30.003  0.00  0.00    -0.033 A 
ATOM     18  C   UNL     1     -16.143   5.861  30.354  0.00  0.00    +0.008 A 
ATOM     19  C   UNL     1     -17.517   3.951  30.903  0.00  0.00    +0.008 A 
ATOM     20  C   UNL     1     -16.414   6.415  31.605  0.00  0.00    +0.046 A 
ATOM     21  C   UNL     1     -17.788   4.506  32.153  0.00  0.00    +0.046 A 
ATOM     22  C   UNL     1     -17.237   5.738  32.505  0.00  0.00    +0.120 A 
BRANCH  22   3
ATOM      3  O   UNL     1     -17.503   6.280  33.724  0.00  0.00    -0.495 OA
ATOM     23  C   UNL     1     -17.877   5.380  34.767  0.00  0.00    +0.277 C 
ENDBRANCH  22   3
ENDBRANCH  11  14
ENDBRANCH   4  11
ENDBRANCH   5   4
TORSDOF 7
ENDMDL
MODEL 7
REMARK VINA RESULT:      -6.5      2.402      3.398
REMARK  Name = 71694030
REMARK  8 active torsions:
REMARK  status: ('A' for Active; 'I' for Inactive)
REMARK    1  A    between atoms: O_1  and  C_7
REMARK    2  A    between atoms: O_2  and  C_9
REMARK    3  A    between atoms: O_3  and  C_22
REMARK    4  A    between atoms: O_3  and  C_23
REMARK    5  A    between atoms: N_4  and  C_5
REMARK    6  A    between atoms: N_4  and  C_11
REMARK    7  A    between atoms: C_6  and  C_10
REMARK    8  A    between atoms: C_11  and  C_14
REMARK                            x       y       z     vdW  Elec       q    Type
REMARK                         _______ _______ _______ _____ _____    ______ ____
ROOT
ATOM      5  C   UNL     1      13.334   8.112  18.470  0.00  0.00    +0.092 C 
ATOM      6  C   UNL     1      11.827   8.100  18.815  0.00  0.00    +0.041 C 
ATOM      7  C   UNL     1      13.340   8.123  16.941  0.00  0.00    +0.160 C 
ATOM      8  C   UNL     1      11.119   8.756  17.599  0.00  0.00    +0.043 C 
ATOM      9  C   UNL     1      12.229   9.114  16.610  0.00  0.00    +0.145 C 
ENDROOT
BRANCH   6  10
ATOM     10  C   UNL     1      11.514   8.758  20.142  0.00  0.00    -0.043 A 
ATOM     12  C   UNL     1      11.939  10.063  20.391  0.00  0.00    +0.004 A 
ATOM     13  C   UNL     1      10.801   8.059  21.116  0.00  0.00    +0.004 A 
ATOM     15  C   UNL     1      11.651  10.670  21.614  0.00  0.00    +0.000 A 
ATOM     16  C   UNL     1      10.513   8.666  22.339  0.00  0.00    +0.000 A 
ATOM     17  C   UNL     1      10.938   9.971  22.588  0.00  0.00    +0.000 A 
ENDBRANCH   6  10
BRANCH   7   1
ATOM      1  O   UNL     1      14.592   8.536  16.428  0.00  0.00    -0.388 OA
ATOM     25  H   UNL     1      15.201   7.782  16.505  0.00  0.00    +0.210 HD
ENDBRANCH   7   1
BRANCH   9   2
ATOM      2  O   UNL     1      12.671  10.448  16.852  0.00  0.00    -0.389 OA
ATOM     26  H   UNL     1      13.494  10.577  16.350  0.00  0.00    +0.210 HD
ENDBRANCH   9   2
BRANCH   5   4
ATOM      4  N   UNL     1      14.028   6.946  19.005  0.00  0.00    -0.306 NA
ATOM     24  H   UNL     1      13.358   6.192  19.148  0.00  0.00    +0.123 HD
BRANCH   4  11
ATOM     11  C   UNL     1      14.659   7.258  20.280  0.00  0.00    +0.116 C 
BRANCH  11  14
ATOM     14  C   UNL     1      16.112   6.863  20.298  0.00  0.00    -0.033 A 
ATOM     18  C   UNL     1      16.643   6.110  19.250  0.00  0.00    +0.008 A 
ATOM     19  C   UNL     1      16.927   7.252  21.360  0.00  0.00    +0.008 A 
ATOM     20  C   UNL     1      17.989   5.746  19.266  0.00  0.00    +0.046 A 
ATOM     21  C   UNL     1      18.273   6.888  21.376  0.00  0.00    +0.046 A 
ATOM     22  C   UNL     1      18.804   6.135  20.329  0.00  0.00    +0.120 A 
BRANCH  22   3
ATOM      3  O   UNL     1      20.118   5.782  20.344  0.00  0.00    -0.495 OA
ATOM     23  C   UNL     1      21.068   6.825  20.555  0.00  0.00    +0.277 C 
ENDBRANCH  22   3
ENDBRANCH  11  14
ENDBRANCH   4  11
ENDBRANCH   5   4
TORSDOF 7
ENDMDL
MODEL 8
REMARK VINA RESULT:      -6.4     26.607     29.281
REMARK  Name = 71694030
REMARK  8 active torsions:
REMARK  status: ('A' for Active; 'I' for Inactive)
REMARK    1  A    between atoms: O_1  and  C_7
REMARK    2  A    between atoms: O_2  and  C_9
REMARK    3  A    between atoms: O_3  and  C_22
REMARK    4  A    between atoms: O_3  and  C_23
REMARK    5  A    between atoms: N_4  and  C_5
REMARK    6  A    between atoms: N_4  and  C_11
REMARK    7  A    between atoms: C_6  and  C_10
REMARK    8  A    between atoms: C_11  and  C_14
REMARK                            x       y       z     vdW  Elec       q    Type
REMARK                         _______ _______ _______ _____ _____    ______ ____
ROOT
ATOM      5  C   UNL     1      -4.968 -10.689  15.127  0.00  0.00    +0.092 C 
ATOM      6  C   UNL     1      -4.467 -10.381  16.557  0.00  0.00    +0.041 C 
ATOM      7  C   UNL     1      -3.685 -10.668  14.297  0.00  0.00    +0.160 C 
ATOM      8  C   UNL     1      -2.988 -10.855  16.587  0.00  0.00    +0.043 C 
ATOM      9  C   UNL     1      -2.696 -11.408  15.191  0.00  0.00    +0.145 C 
ENDROOT
BRANCH   6  10
ATOM     10  C   UNL     1      -5.334 -10.991  17.637  0.00  0.00    -0.043 A 
ATOM     12  C   UNL     1      -5.730 -12.325  17.543  0.00  0.00    +0.004 A 
ATOM     13  C   UNL     1      -5.738 -10.218  18.726  0.00  0.00    +0.004 A 
ATOM     15  C   UNL     1      -6.530 -12.888  18.538  0.00  0.00    +0.000 A 
ATOM     16  C   UNL     1      -6.538 -10.781  19.721  0.00  0.00    +0.000 A 
ATOM     17  C   UNL     1      -6.934 -12.115  19.627  0.00  0.00    +0.000 A 
ENDBRANCH   6  10
BRANCH   7   1
ATOM      1  O   UNL     1      -3.861 -11.313  13.049  0.00  0.00    -0.388 OA
ATOM     25  H   UNL     1      -4.792 -11.587  12.993  0.00  0.00    +0.210 HD
ENDBRANCH   7   1
BRANCH   9   2
ATOM      2  O   UNL     1      -2.964 -12.808  15.167  0.00  0.00    -0.389 OA
ATOM     26  H   UNL     1      -3.850 -12.941  15.546  0.00  0.00    +0.210 HD
ENDBRANCH   9   2
BRANCH   5   4
ATOM      4  N   UNL     1      -5.932  -9.697  14.659  0.00  0.00    -0.306 NA
ATOM     24  H   UNL     1      -6.029  -8.965  15.361  0.00  0.00    +0.123 HD
BRANCH   4  11
ATOM     11  C   UNL     1      -7.236 -10.306  14.437  0.00  0.00    +0.116 C 
BRANCH  11  14
ATOM     14  C   UNL     1      -8.124 -10.186  15.646  0.00  0.00    -0.033 A 
ATOM     18  C   UNL     1      -8.215  -8.971  16.326  0.00  0.00    +0.008 A 
ATOM     19  C   UNL     1      -8.856 -11.287  16.086  0.00  0.00    +0.008 A 
ATOM     20  C   UNL     1      -9.040  -8.859  17.446  0.00  0.00    +0.046 A 
ATOM     21  C   UNL     1      -9.680 -11.176  17.205  0.00  0.00    +0.046 A 
ATOM     22  C   UNL     1      -9.772  -9.962  17.886  0.00  0.00    +0.120 A 
BRANCH  22   3
ATOM      3  O   UNL     1     -10.578  -9.852  18.977  0.00  0.00    -0.495 OA
ATOM     23  C   UNL     1     -10.342 -10.760  20.052  0.00  0.00    +0.277 C 
ENDBRANCH  22   3
ENDBRANCH  11  14
ENDBRANCH   4  11
ENDBRANCH   5   4
TORSDOF 7
ENDMDL
MODEL 9
REMARK VINA RESULT:      -6.4     26.039     29.179
REMARK  Name = 71694030
REMARK  8 active torsions:
REMARK  status: ('A' for Active; 'I' for Inactive)
REMARK    1  A    between atoms: O_1  and  C_7
REMARK    2  A    between atoms: O_2  and  C_9
REMARK    3  A    between atoms: O_3  and  C_22
REMARK    4  A    between atoms: O_3  and  C_23
REMARK    5  A    between atoms: N_4  and  C_5
REMARK    6  A    between atoms: N_4  and  C_11
REMARK    7  A    between atoms: C_6  and  C_10
REMARK    8  A    between atoms: C_11  and  C_14
REMARK                            x       y       z     vdW  Elec       q    Type
REMARK                         _______ _______ _______ _____ _____    ______ ____
ROOT
ATOM      5  C   UNL     1      -9.094 -10.811  17.830  0.00  0.00    +0.092 C 
ATOM      6  C   UNL     1      -8.607 -12.164  18.398  0.00  0.00    +0.041 C 
ATOM      7  C   UNL     1     -10.511 -10.688  18.392  0.00  0.00    +0.160 C 
ATOM      8  C   UNL     1      -9.425 -12.384  19.699  0.00  0.00    +0.043 C 
ATOM      9  C   UNL     1     -10.343 -11.168  19.830  0.00  0.00    +0.145 C 
ENDROOT
BRANCH   6  10
ATOM     10  C   UNL     1      -7.108 -12.224  18.591  0.00  0.00    -0.043 A 
ATOM     12  C   UNL     1      -6.483 -11.341  19.472  0.00  0.00    +0.004 A 
ATOM     13  C   UNL     1      -6.350 -13.161  17.889  0.00  0.00    +0.004 A 
ATOM     15  C   UNL     1      -5.100 -11.396  19.651  0.00  0.00    +0.000 A 
ATOM     16  C   UNL     1      -4.967 -13.216  18.068  0.00  0.00    +0.000 A 
ATOM     17  C   UNL     1      -4.343 -12.334  18.949  0.00  0.00    +0.000 A 
ENDBRANCH   6  10
BRANCH   7   1
ATOM      1  O   UNL     1     -10.983  -9.355  18.328  0.00  0.00    -0.388 OA
ATOM     25  H   UNL     1     -11.049  -9.026  19.240  0.00  0.00    +0.210 HD
ENDBRANCH   7   1
BRANCH   9   2
ATOM      2  O   UNL     1      -9.697 -10.166  20.611  0.00  0.00    -0.389 OA
ATOM     26  H   UNL     1      -8.941  -9.837  20.094  0.00  0.00    +0.210 HD
ENDBRANCH   9   2
BRANCH   5   4
ATOM      4  N   UNL     1      -9.088 -10.794  16.371  0.00  0.00    -0.306 NA
ATOM     24  H   UNL     1      -8.725 -11.681  16.026  0.00  0.00    +0.123 HD
BRANCH   4  11
ATOM     11  C   UNL     1      -8.244  -9.718  15.869  0.00  0.00    +0.116 C 
BRANCH  11  14
ATOM     14  C   UNL     1      -6.820 -10.168  15.675  0.00  0.00    -0.033 A 
ATOM     18  C   UNL     1      -6.530 -11.201  14.782  0.00  0.00    +0.008 A 
ATOM     19  C   UNL     1      -5.792  -9.551  16.385  0.00  0.00    +0.008 A 
ATOM     20  C   UNL     1      -5.211 -11.615  14.601  0.00  0.00    +0.046 A 
ATOM     21  C   UNL     1      -4.472  -9.966  16.204  0.00  0.00    +0.046 A 
ATOM     22  C   UNL     1      -4.182 -10.998  15.313  0.00  0.00    +0.120 A 
BRANCH  22   3
ATOM      3  O   UNL     1      -2.894 -11.401  15.135  0.00  0.00    -0.495 OA
ATOM     23  C   UNL     1      -1.885 -10.679  15.838  0.00  0.00    +0.277 C 
ENDBRANCH  22   3
ENDBRANCH  11  14
ENDBRANCH   4  11
ENDBRANCH   5   4
TORSDOF 7
ENDMDL
MODEL 10
REMARK VINA RESULT:      -6.4     25.920     27.945
REMARK  Name = 71694030
REMARK  8 active torsions:
REMARK  status: ('A' for Active; 'I' for Inactive)
REMARK    1  A    between atoms: O_1  and  C_7
REMARK    2  A    between atoms: O_2  and  C_9
REMARK    3  A    between atoms: O_3  and  C_22
REMARK    4  A    between atoms: O_3  and  C_23
REMARK    5  A    between atoms: N_4  and  C_5
REMARK    6  A    between atoms: N_4  and  C_11
REMARK    7  A    between atoms: C_6  and  C_10
REMARK    8  A    between atoms: C_11  and  C_14
REMARK                            x       y       z     vdW  Elec       q    Type
REMARK                         _______ _______ _______ _____ _____    ______ ____
ROOT
ATOM      5  C   UNL     1     -10.927   9.991  17.571  0.00  0.00    +0.092 C 
ATOM      6  C   UNL     1     -10.672   8.544  18.050  0.00  0.00    +0.041 C 
ATOM      7  C   UNL     1     -10.242  10.032  16.206  0.00  0.00    +0.160 C 
ATOM      8  C   UNL     1     -10.486   7.707  16.755  0.00  0.00    +0.043 C 
ATOM      9  C   UNL     1     -10.636   8.691  15.594  0.00  0.00    +0.145 C 
ENDROOT
BRANCH   6  10
ATOM     10  C   UNL     1     -11.751   8.023  18.975  0.00  0.00    -0.043 A 
ATOM     12  C   UNL     1     -11.404   7.439  20.193  0.00  0.00    +0.004 A 
ATOM     13  C   UNL     1     -13.093   8.127  18.608  0.00  0.00    +0.004 A 
ATOM     15  C   UNL     1     -12.399   6.959  21.046  0.00  0.00    +0.000 A 
ATOM     16  C   UNL     1     -14.088   7.647  19.461  0.00  0.00    +0.000 A 
ATOM     17  C   UNL     1     -13.741   7.063  20.680  0.00  0.00    +0.000 A 
ENDBRANCH   6  10
BRANCH   7   1
ATOM      1  O   UNL     1     -10.693  11.125  15.428  0.00  0.00    -0.388 OA
ATOM     25  H   UNL     1     -11.663  11.068  15.383  0.00  0.00    +0.210 HD
ENDBRANCH   7   1
BRANCH   9   2
ATOM      2  O   UNL     1     -11.997   8.725  15.171  0.00  0.00    -0.389 OA
ATOM     26  H   UNL     1     -12.418   7.904  15.480  0.00  0.00    +0.210 HD
ENDBRANCH   9   2
BRANCH   5   4
ATOM      4  N   UNL     1     -10.365  10.979  18.488  0.00  0.00    -0.306 NA
ATOM     24  H   UNL     1     -10.079  10.515  19.348  0.00  0.00    +0.123 HD
BRANCH   4  11
ATOM     11  C   UNL     1     -11.349  12.002  18.815  0.00  0.00    +0.116 C 
BRANCH  11  14
ATOM     14  C   UNL     1     -12.335  11.521  19.846  0.00  0.00    -0.033 A 
ATOM     18  C   UNL     1     -13.705  11.604  19.593  0.00  0.00    +0.008 A 
ATOM     19  C   UNL     1     -11.880  10.991  21.052  0.00  0.00    +0.008 A 
ATOM     20  C   UNL     1     -14.618  11.157  20.548  0.00  0.00    +0.046 A 
ATOM     21  C   UNL     1     -12.792  10.544  22.007  0.00  0.00    +0.046 A 
ATOM     22  C   UNL     1     -14.162  10.627  21.756  0.00  0.00    +0.120 A 
BRANCH  22   3
ATOM      3  O   UNL     1     -15.052  10.188  22.686  0.00  0.00    -0.495 OA
ATOM     23  C   UNL     1     -14.584   9.227  23.631  0.00  0.00    +0.277 C 
ENDBRANCH  22   3
ENDBRANCH  11  14
ENDBRANCH   4  11
ENDBRANCH   5   4
TORSDOF 7
ENDMDL
