MODEL 1
REMARK VINA RESULT:      -7.4      0.000      0.000
REMARK  Name = 51137136
REMARK  6 active torsions:
REMARK  status: ('A' for Active; 'I' for Inactive)
REMARK    1  A    between atoms: S_1  and  C_18
REMARK    2  A    between atoms: S_1  and  C_23
REMARK    3  A    between atoms: N_6  and  C_13
REMARK    4  A    between atoms: C_8  and  C_12
REMARK    5  A    between atoms: C_13  and  C_14
REMARK    6  A    between atoms: C_23  and  C_27
REMARK                            x       y       z     vdW  Elec       q    Type
REMARK                         _______ _______ _______ _____ _____    ______ ____
ROOT
ATOM      3  O   UNL     1      17.692   7.876  21.522  0.00  0.00    -0.439 OA
ATOM      7  N   UNL     1      17.281   6.305  19.941  0.00  0.00    -0.213 NA
ATOM     12  C   UNL     1      18.177   6.918  20.683  0.00  0.00    +0.201 A 
ATOM     15  C   UNL     1      16.100   6.901  20.312  0.00  0.00    +0.111 A 
ATOM     16  C   UNL     1      16.348   7.863  21.280  0.00  0.00    +0.155 A 
ATOM     17  C   UNL     1      14.781   6.692  19.887  0.00  0.00    +0.058 A 
ATOM     18  C   UNL     1      13.770   7.473  20.466  0.00  0.00    +0.090 A 
ATOM     21  C   UNL     1      15.375   8.655  21.876  0.00  0.00    +0.050 A 
ATOM     22  C   UNL     1      14.064   8.434  21.441  0.00  0.00    +0.030 A 
ENDROOT
BRANCH  12   8
ATOM      6  N   UNL     1      21.309   5.085  21.192  0.00  0.00    -0.297 NA
ATOM      8  C   UNL     1      19.671   6.697  20.725  0.00  0.00    +0.090 C 
ATOM      9  C   UNL     1      20.333   7.014  22.078  0.00  0.00    +0.029 C 
ATOM     10  C   UNL     1      20.072   5.246  20.426  0.00  0.00    +0.097 C 
ATOM     11  C   UNL     1      21.041   5.726  22.480  0.00  0.00    +0.085 C 
BRANCH   6  13
ATOM     13  C   UNL     1      21.694   3.689  21.337  0.00  0.00    +0.119 C 
BRANCH  13  14
ATOM      2  F   UNL     1      27.068   2.833  19.873  0.00  0.00    -0.205 F 
ATOM     14  C   UNL     1      23.130   3.461  20.945  0.00  0.00    -0.033 A 
ATOM     19  C   UNL     1      23.734   2.230  21.199  0.00  0.00    +0.008 A 
ATOM     20  C   UNL     1      23.857   4.480  20.329  0.00  0.00    +0.008 A 
ATOM     24  C   UNL     1      25.065   2.018  20.837  0.00  0.00    +0.038 A 
ATOM     25  C   UNL     1      25.187   4.269  19.967  0.00  0.00    +0.038 A 
ATOM     26  C   UNL     1      25.791   3.037  20.221  0.00  0.00    +0.123 A 
ENDBRANCH  13  14
ENDBRANCH   6  13
ENDBRANCH  12   8
BRANCH  18   1
ATOM      1  S   UNL     1      12.112   7.242  19.958  0.00  0.00    -0.003 S 
ATOM      4  O   UNL     1      12.069   7.194  18.504  0.00  0.00    -0.169 OA
ATOM      5  O   UNL     1      11.557   6.144  20.736  0.00  0.00    -0.169 OA
BRANCH   1  23
ATOM     23  C   UNL     1      11.289   8.737  20.453  0.00  0.00    +0.168 C 
ATOM     27  C   UNL     1      10.559   8.561  21.765  0.00  0.00    +0.028 C 
ENDBRANCH   1  23
ENDBRANCH  18   1
TORSDOF 5
ENDMDL
MODEL 2
REMARK VINA RESULT:      -7.0     30.594     33.509
REMARK  Name = 51137136
REMARK  6 active torsions:
REMARK  status: ('A' for Active; 'I' for Inactive)
REMARK    1  A    between atoms: S_1  and  C_18
REMARK    2  A    between atoms: S_1  and  C_23
REMARK    3  A    between atoms: N_6  and  C_13
REMARK    4  A    between atoms: C_8  and  C_12
REMARK    5  A    between atoms: C_13  and  C_14
REMARK    6  A    between atoms: C_23  and  C_27
REMARK                            x       y       z     vdW  Elec       q    Type
REMARK                         _______ _______ _______ _____ _____    ______ ____
ROOT
ATOM      3  O   UNL     1     -16.288   3.817  22.358  0.00  0.00    -0.439 OA
ATOM      7  N   UNL     1     -14.849   4.735  23.849  0.00  0.00    -0.213 NA
ATOM     12  C   UNL     1     -15.268   4.686  22.603  0.00  0.00    +0.201 A 
ATOM     15  C   UNL     1     -15.653   3.824  24.490  0.00  0.00    +0.111 A 
ATOM     16  C   UNL     1     -16.536   3.260  23.580  0.00  0.00    +0.155 A 
ATOM     17  C   UNL     1     -15.707   3.413  25.830  0.00  0.00    +0.058 A 
ATOM     18  C   UNL     1     -16.658   2.446  26.185  0.00  0.00    +0.090 A 
ATOM     21  C   UNL     1     -17.490   2.301  23.894  0.00  0.00    +0.050 A 
ATOM     22  C   UNL     1     -17.531   1.902  25.234  0.00  0.00    +0.030 A 
ENDROOT
BRANCH  12   8
ATOM      6  N   UNL     1     -13.192   7.082  20.767  0.00  0.00    -0.297 NA
ATOM      8  C   UNL     1     -14.765   5.468  21.412  0.00  0.00    +0.090 C 
ATOM      9  C   UNL     1     -15.475   6.812  21.175  0.00  0.00    +0.029 C 
ATOM     10  C   UNL     1     -13.277   5.827  21.516  0.00  0.00    +0.097 C 
ATOM     11  C   UNL     1     -14.362   7.852  21.187  0.00  0.00    +0.085 C 
BRANCH   6  13
ATOM     13  C   UNL     1     -11.944   7.790  21.011  0.00  0.00    +0.119 C 
BRANCH  13  14
ATOM      2  F   UNL     1      -9.707   9.806  16.248  0.00  0.00    -0.205 F 
ATOM     14  C   UNL     1     -11.346   8.329  19.738  0.00  0.00    -0.033 A 
ATOM     19  C   UNL     1     -10.734   9.581  19.731  0.00  0.00    +0.008 A 
ATOM     20  C   UNL     1     -11.406   7.575  18.566  0.00  0.00    +0.008 A 
ATOM     24  C   UNL     1     -10.180  10.081  18.552  0.00  0.00    +0.038 A 
ATOM     25  C   UNL     1     -10.852   8.074  17.387  0.00  0.00    +0.038 A 
ATOM     26  C   UNL     1     -10.239   9.327  17.380  0.00  0.00    +0.123 A 
ENDBRANCH  13  14
ENDBRANCH   6  13
ENDBRANCH  12   8
BRANCH  18   1
ATOM      1  S   UNL     1     -16.752   1.908  27.847  0.00  0.00    -0.003 S 
ATOM      4  O   UNL     1     -18.104   2.135  28.337  0.00  0.00    -0.169 OA
ATOM      5  O   UNL     1     -16.168   0.577  27.918  0.00  0.00    -0.169 OA
BRANCH   1  23
ATOM     23  C   UNL     1     -15.685   3.023  28.730  0.00  0.00    +0.168 C 
ATOM     27  C   UNL     1     -14.946   2.318  29.844  0.00  0.00    +0.028 C 
ENDBRANCH   1  23
ENDBRANCH  18   1
TORSDOF 5
ENDMDL
MODEL 3
REMARK VINA RESULT:      -6.9     30.063     32.366
REMARK  Name = 51137136
REMARK  6 active torsions:
REMARK  status: ('A' for Active; 'I' for Inactive)
REMARK    1  A    between atoms: S_1  and  C_18
REMARK    2  A    between atoms: S_1  and  C_23
REMARK    3  A    between atoms: N_6  and  C_13
REMARK    4  A    between atoms: C_8  and  C_12
REMARK    5  A    between atoms: C_13  and  C_14
REMARK    6  A    between atoms: C_23  and  C_27
REMARK                            x       y       z     vdW  Elec       q    Type
REMARK                         _______ _______ _______ _____ _____    ______ ____
ROOT
ATOM      3  O   UNL     1     -12.220  -7.641  16.468  0.00  0.00    -0.439 OA
ATOM      7  N   UNL     1     -10.546  -6.357  15.639  0.00  0.00    -0.213 NA
ATOM     12  C   UNL     1     -10.896  -7.320  16.464  0.00  0.00    +0.201 A 
ATOM     15  C   UNL     1     -11.733  -6.003  15.043  0.00  0.00    +0.111 A 
ATOM     16  C   UNL     1     -12.759  -6.788  15.548  0.00  0.00    +0.155 A 
ATOM     17  C   UNL     1     -12.032  -5.038  14.071  0.00  0.00    +0.058 A 
ATOM     18  C   UNL     1     -13.365  -4.913  13.656  0.00  0.00    +0.090 A 
ATOM     21  C   UNL     1     -14.090  -6.694  15.161  0.00  0.00    +0.050 A 
ATOM     22  C   UNL     1     -14.372  -5.726  14.191  0.00  0.00    +0.030 A 
ENDROOT
BRANCH  12   8
ATOM      6  N   UNL     1      -8.615  -9.989  17.514  0.00  0.00    -0.297 NA
ATOM      8  C   UNL     1     -10.021  -8.115  17.405  0.00  0.00    +0.090 C 
ATOM      9  C   UNL     1     -10.739  -9.253  18.149  0.00  0.00    +0.029 C 
ATOM     10  C   UNL     1      -8.842  -8.796  16.696  0.00  0.00    +0.097 C 
ATOM     11  C   UNL     1      -9.952 -10.510  17.800  0.00  0.00    +0.085 C 
BRANCH   6  13
ATOM     13  C   UNL     1      -7.769 -10.966  16.847  0.00  0.00    +0.119 C 
BRANCH  13  14
ATOM      2  F   UNL     1      -3.150 -12.143  19.852  0.00  0.00    -0.205 F 
ATOM     14  C   UNL     1      -6.535 -11.281  17.650  0.00  0.00    -0.033 A 
ATOM     19  C   UNL     1      -5.360 -11.660  17.003  0.00  0.00    +0.008 A 
ATOM     20  C   UNL     1      -6.567 -11.193  19.042  0.00  0.00    +0.008 A 
ATOM     24  C   UNL     1      -4.216 -11.951  17.746  0.00  0.00    +0.038 A 
ATOM     25  C   UNL     1      -5.424 -11.484  19.786  0.00  0.00    +0.038 A 
ATOM     26  C   UNL     1      -4.248 -11.863  19.138  0.00  0.00    +0.123 A 
ENDBRANCH  13  14
ENDBRANCH   6  13
ENDBRANCH  12   8
BRANCH  18   1
ATOM      1  S   UNL     1     -13.776  -3.718  12.446  0.00  0.00    -0.003 S 
ATOM      4  O   UNL     1     -14.890  -2.919  12.936  0.00  0.00    -0.169 OA
ATOM      5  O   UNL     1     -12.544  -3.066  12.028  0.00  0.00    -0.169 OA
BRANCH   1  23
ATOM     23  C   UNL     1     -14.384  -4.672  11.074  0.00  0.00    +0.168 C 
ATOM     27  C   UNL     1     -13.253  -5.233  10.244  0.00  0.00    +0.028 C 
ENDBRANCH   1  23
ENDBRANCH  18   1
TORSDOF 5
ENDMDL
MODEL 4
REMARK VINA RESULT:      -6.9     28.015     30.320
REMARK  Name = 51137136
REMARK  6 active torsions:
REMARK  status: ('A' for Active; 'I' for Inactive)
REMARK    1  A    between atoms: S_1  and  C_18
REMARK    2  A    between atoms: S_1  and  C_23
REMARK    3  A    between atoms: N_6  and  C_13
REMARK    4  A    between atoms: C_8  and  C_12
REMARK    5  A    between atoms: C_13  and  C_14
REMARK    6  A    between atoms: C_23  and  C_27
REMARK                            x       y       z     vdW  Elec       q    Type
REMARK                         _______ _______ _______ _____ _____    ______ ____
ROOT
ATOM      3  O   UNL     1      -4.250 -11.139  17.626  0.00  0.00    -0.439 OA
ATOM      7  N   UNL     1      -5.809 -10.262  16.234  0.00  0.00    -0.213 NA
ATOM     12  C   UNL     1      -4.537 -10.519  16.447  0.00  0.00    +0.201 A 
ATOM     15  C   UNL     1      -6.424 -10.749  17.362  0.00  0.00    +0.111 A 
ATOM     16  C   UNL     1      -5.473 -11.287  18.216  0.00  0.00    +0.155 A 
ATOM     17  C   UNL     1      -7.772 -10.778  17.745  0.00  0.00    +0.058 A 
ATOM     18  C   UNL     1      -8.094 -11.355  18.982  0.00  0.00    +0.090 A 
ATOM     21  C   UNL     1      -5.752 -11.866  19.447  0.00  0.00    +0.050 A 
ATOM     22  C   UNL     1      -7.102 -11.887  19.815  0.00  0.00    +0.030 A 
ENDROOT
BRANCH  12   8
ATOM      6  N   UNL     1      -2.178 -11.000  13.685  0.00  0.00    -0.297 NA
ATOM      8  C   UNL     1      -3.355 -10.216  15.555  0.00  0.00    +0.090 C 
ATOM      9  C   UNL     1      -2.025 -10.841  16.010  0.00  0.00    +0.029 C 
ATOM     10  C   UNL     1      -3.547 -10.715  14.116  0.00  0.00    +0.097 C 
ATOM     11  C   UNL     1      -1.556 -11.675  14.824  0.00  0.00    +0.085 C 
BRANCH   6  13
ATOM     13  C   UNL     1      -2.134 -11.804  12.473  0.00  0.00    +0.119 C 
BRANCH  13  14
ATOM      2  F   UNL     1      -4.698  -9.237   8.160  0.00  0.00    -0.205 F 
ATOM     14  C   UNL     1      -2.819 -11.118  11.320  0.00  0.00    -0.033 A 
ATOM     19  C   UNL     1      -3.745 -11.815  10.545  0.00  0.00    +0.008 A 
ATOM     20  C   UNL     1      -2.528  -9.785  11.028  0.00  0.00    +0.008 A 
ATOM     24  C   UNL     1      -4.380 -11.179   9.477  0.00  0.00    +0.038 A 
ATOM     25  C   UNL     1      -3.162  -9.150   9.961  0.00  0.00    +0.038 A 
ATOM     26  C   UNL     1      -4.088  -9.847   9.185  0.00  0.00    +0.123 A 
ENDBRANCH  13  14
ENDBRANCH   6  13
ENDBRANCH  12   8
BRANCH  18   1
ATOM      1  S   UNL     1      -9.766 -11.407  19.493  0.00  0.00    -0.003 S 
ATOM      4  O   UNL     1      -9.978 -10.388  20.510  0.00  0.00    -0.169 OA
ATOM      5  O   UNL     1     -10.597 -11.424  18.298  0.00  0.00    -0.169 OA
BRANCH   1  23
ATOM     23  C   UNL     1      -9.930 -12.985  20.298  0.00  0.00    +0.168 C 
ATOM     27  C   UNL     1     -11.276 -13.128  20.970  0.00  0.00    +0.028 C 
ENDBRANCH   1  23
ENDBRANCH  18   1
TORSDOF 5
ENDMDL
MODEL 5
REMARK VINA RESULT:      -6.5      2.276      3.003
REMARK  Name = 51137136
REMARK  6 active torsions:
REMARK  status: ('A' for Active; 'I' for Inactive)
REMARK    1  A    between atoms: S_1  and  C_18
REMARK    2  A    between atoms: S_1  and  C_23
REMARK    3  A    between atoms: N_6  and  C_13
REMARK    4  A    between atoms: C_8  and  C_12
REMARK    5  A    between atoms: C_13  and  C_14
REMARK    6  A    between atoms: C_23  and  C_27
REMARK                            x       y       z     vdW  Elec       q    Type
REMARK                         _______ _______ _______ _____ _____    ______ ____
ROOT
ATOM      3  O   UNL     1      19.887   6.619  21.239  0.00  0.00    -0.439 OA
ATOM      7  N   UNL     1      19.146   5.112  19.717  0.00  0.00    -0.213 NA
ATOM     12  C   UNL     1      20.124   5.495  20.508  0.00  0.00    +0.201 A 
ATOM     15  C   UNL     1      18.173   6.058  19.936  0.00  0.00    +0.111 A 
ATOM     16  C   UNL     1      18.624   6.982  20.867  0.00  0.00    +0.155 A 
ATOM     17  C   UNL     1      16.889   6.212  19.395  0.00  0.00    +0.058 A 
ATOM     18  C   UNL     1      16.119   7.301  19.827  0.00  0.00    +0.090 A 
ATOM     21  C   UNL     1      17.891   8.072  21.319  0.00  0.00    +0.050 A 
ATOM     22  C   UNL     1      16.612   8.212  20.770  0.00  0.00    +0.030 A 
ENDROOT
BRANCH  12   8
ATOM      6  N   UNL     1      22.734   3.587  22.234  0.00  0.00    -0.297 NA
ATOM      8  C   UNL     1      21.476   4.848  20.710  0.00  0.00    +0.090 C 
ATOM      9  C   UNL     1      22.529   5.749  21.376  0.00  0.00    +0.029 C 
ATOM     10  C   UNL     1      21.415   3.598  21.597  0.00  0.00    +0.097 C 
ATOM     11  C   UNL     1      22.983   4.978  22.609  0.00  0.00    +0.085 C 
BRANCH   6  13
ATOM     13  C   UNL     1      22.791   2.685  23.375  0.00  0.00    +0.119 C 
BRANCH  13  14
ATOM      2  F   UNL     1      26.783  -1.242  22.748  0.00  0.00    -0.205 F 
ATOM     14  C   UNL     1      23.858   1.636  23.207  0.00  0.00    -0.033 A 
ATOM     19  C   UNL     1      24.271   0.880  24.303  0.00  0.00    +0.008 A 
ATOM     20  C   UNL     1      24.434   1.420  21.955  0.00  0.00    +0.008 A 
ATOM     24  C   UNL     1      25.259  -0.092  24.148  0.00  0.00    +0.038 A 
ATOM     25  C   UNL     1      25.422   0.448  21.799  0.00  0.00    +0.038 A 
ATOM     26  C   UNL     1      25.835  -0.309  22.896  0.00  0.00    +0.123 A 
ENDBRANCH  13  14
ENDBRANCH   6  13
ENDBRANCH  12   8
BRANCH  18   1
ATOM      1  S   UNL     1      14.512   7.526  19.172  0.00  0.00    -0.003 S 
ATOM      4  O   UNL     1      14.568   7.365  17.726  0.00  0.00    -0.169 OA
ATOM      5  O   UNL     1      13.594   6.715  19.957  0.00  0.00    -0.169 OA
BRANCH   1  23
ATOM     23  C   UNL     1      14.143   9.236  19.490  0.00  0.00    +0.168 C 
ATOM     27  C   UNL     1      12.988   9.722  18.645  0.00  0.00    +0.028 C 
ENDBRANCH   1  23
ENDBRANCH  18   1
TORSDOF 5
ENDMDL
MODEL 6
REMARK VINA RESULT:      -6.4     29.071     31.202
REMARK  Name = 51137136
REMARK  6 active torsions:
REMARK  status: ('A' for Active; 'I' for Inactive)
REMARK    1  A    between atoms: S_1  and  C_18
REMARK    2  A    between atoms: S_1  and  C_23
REMARK    3  A    between atoms: N_6  and  C_13
REMARK    4  A    between atoms: C_8  and  C_12
REMARK    5  A    between atoms: C_13  and  C_14
REMARK    6  A    between atoms: C_23  and  C_27
REMARK                            x       y       z     vdW  Elec       q    Type
REMARK                         _______ _______ _______ _____ _____    ______ ____
ROOT
ATOM      3  O   UNL     1      -6.789 -10.943  18.031  0.00  0.00    -0.439 OA
ATOM      7  N   UNL     1      -7.910  -9.287  16.965  0.00  0.00    -0.213 NA
ATOM     12  C   UNL     1      -6.782  -9.950  17.099  0.00  0.00    +0.201 A 
ATOM     15  C   UNL     1      -8.740  -9.885  17.882  0.00  0.00    +0.111 A 
ATOM     16  C   UNL     1      -8.057 -10.900  18.537  0.00  0.00    +0.155 A 
ATOM     17  C   UNL     1     -10.077  -9.638  18.226  0.00  0.00    +0.058 A 
ATOM     18  C   UNL     1     -10.660 -10.434  19.222  0.00  0.00    +0.090 A 
ATOM     21  C   UNL     1      -8.600 -11.709  19.527  0.00  0.00    +0.050 A 
ATOM     22  C   UNL     1      -9.934 -11.449  19.858  0.00  0.00    +0.030 A 
ENDROOT
BRANCH  12   8
ATOM      6  N   UNL     1      -4.139 -10.669  14.666  0.00  0.00    -0.297 NA
ATOM      8  C   UNL     1      -5.483  -9.751  16.354  0.00  0.00    +0.090 C 
ATOM      9  C   UNL     1      -4.263 -10.442  16.987  0.00  0.00    +0.029 C 
ATOM     10  C   UNL     1      -5.529 -10.284  14.916  0.00  0.00    +0.097 C 
ATOM     11  C   UNL     1      -3.708 -11.343  15.891  0.00  0.00    +0.085 C 
BRANCH   6  13
ATOM     13  C   UNL     1      -4.000 -11.513  13.489  0.00  0.00    +0.119 C 
BRANCH  13  14
ATOM      2  F   UNL     1      -3.694  -8.476   8.752  0.00  0.00    -0.205 F 
ATOM     14  C   UNL     1      -3.918 -10.701  12.223  0.00  0.00    -0.033 A 
ATOM     19  C   UNL     1      -5.079 -10.396  11.515  0.00  0.00    +0.008 A 
ATOM     20  C   UNL     1      -2.680 -10.255  11.759  0.00  0.00    +0.008 A 
ATOM     24  C   UNL     1      -5.004  -9.643  10.342  0.00  0.00    +0.038 A 
ATOM     25  C   UNL     1      -2.604  -9.504  10.587  0.00  0.00    +0.038 A 
ATOM     26  C   UNL     1      -3.766  -9.198   9.878  0.00  0.00    +0.123 A 
ENDBRANCH  13  14
ENDBRANCH   6  13
ENDBRANCH  12   8
BRANCH  18   1
ATOM      1  S   UNL     1     -12.325 -10.152  19.678  0.00  0.00    -0.003 S 
ATOM      4  O   UNL     1     -12.351  -9.494  20.976  0.00  0.00    -0.169 OA
ATOM      5  O   UNL     1     -13.000  -9.543  18.542  0.00  0.00    -0.169 OA
BRANCH   1  23
ATOM     23  C   UNL     1     -12.999 -11.781  19.908  0.00  0.00    +0.168 C 
ATOM     27  C   UNL     1     -13.325 -12.047  21.360  0.00  0.00    +0.028 C 
ENDBRANCH   1  23
ENDBRANCH  18   1
TORSDOF 5
ENDMDL
MODEL 7
REMARK VINA RESULT:      -6.4     19.865     22.359
REMARK  Name = 51137136
REMARK  6 active torsions:
REMARK  status: ('A' for Active; 'I' for Inactive)
REMARK    1  A    between atoms: S_1  and  C_18
REMARK    2  A    between atoms: S_1  and  C_23
REMARK    3  A    between atoms: N_6  and  C_13
REMARK    4  A    between atoms: C_8  and  C_12
REMARK    5  A    between atoms: C_13  and  C_14
REMARK    6  A    between atoms: C_23  and  C_27
REMARK                            x       y       z     vdW  Elec       q    Type
REMARK                         _______ _______ _______ _____ _____    ______ ____
ROOT
ATOM      3  O   UNL     1      13.014   4.163   0.258  0.00  0.00    -0.439 OA
ATOM      7  N   UNL     1      10.750   4.140   0.166  0.00  0.00    -0.213 NA
ATOM     12  C   UNL     1      11.825   4.274   0.912  0.00  0.00    +0.201 A 
ATOM     15  C   UNL     1      11.261   3.922  -1.091  0.00  0.00    +0.111 A 
ATOM     16  C   UNL     1      12.647   3.936  -1.038  0.00  0.00    +0.155 A 
ATOM     17  C   UNL     1      10.632   3.705  -2.324  0.00  0.00    +0.058 A 
ATOM     18  C   UNL     1      11.442   3.511  -3.452  0.00  0.00    +0.090 A 
ATOM     21  C   UNL     1      13.483   3.748  -2.132  0.00  0.00    +0.050 A 
ATOM     22  C   UNL     1      12.839   3.532  -3.356  0.00  0.00    +0.030 A 
ENDROOT
BRANCH  12   8
ATOM      6  N   UNL     1      10.724   5.439   4.207  0.00  0.00    -0.297 NA
ATOM      8  C   UNL     1      11.910   4.534   2.398  0.00  0.00    +0.090 C 
ATOM      9  C   UNL     1      12.518   5.893   2.783  0.00  0.00    +0.029 C 
ATOM     10  C   UNL     1      10.540   4.510   3.090  0.00  0.00    +0.097 C 
ATOM     11  C   UNL     1      11.456   6.571   3.640  0.00  0.00    +0.085 C 
BRANCH   6  13
ATOM     13  C   UNL     1       9.460   5.840   4.807  0.00  0.00    +0.119 C 
BRANCH  13  14
ATOM      2  F   UNL     1       9.418   4.974  10.376  0.00  0.00    -0.205 F 
ATOM     14  C   UNL     1       9.449   5.609   6.296  0.00  0.00    -0.033 A 
ATOM     19  C   UNL     1       9.800   4.361   6.810  0.00  0.00    +0.008 A 
ATOM     20  C   UNL     1       9.087   6.642   7.160  0.00  0.00    +0.008 A 
ATOM     24  C   UNL     1       9.790   4.146   8.189  0.00  0.00    +0.038 A 
ATOM     25  C   UNL     1       9.076   6.428   8.538  0.00  0.00    +0.038 A 
ATOM     26  C   UNL     1       9.428   5.180   9.053  0.00  0.00    +0.123 A 
ENDBRANCH  13  14
ENDBRANCH   6  13
ENDBRANCH  12   8
BRANCH  18   1
ATOM      1  S   UNL     1      10.692   3.234  -5.008  0.00  0.00    -0.003 S 
ATOM      4  O   UNL     1      11.710   2.788  -5.947  0.00  0.00    -0.169 OA
ATOM      5  O   UNL     1       9.501   2.426  -4.791  0.00  0.00    -0.169 OA
BRANCH   1  23
ATOM     23  C   UNL     1      10.170   4.850  -5.537  0.00  0.00    +0.168 C 
ATOM     27  C   UNL     1      10.794   5.230  -6.860  0.00  0.00    +0.028 C 
ENDBRANCH   1  23
ENDBRANCH  18   1
TORSDOF 5
ENDMDL
MODEL 8
REMARK VINA RESULT:      -6.3     30.068     33.992
REMARK  Name = 51137136
REMARK  6 active torsions:
REMARK  status: ('A' for Active; 'I' for Inactive)
REMARK    1  A    between atoms: S_1  and  C_18
REMARK    2  A    between atoms: S_1  and  C_23
REMARK    3  A    between atoms: N_6  and  C_13
REMARK    4  A    between atoms: C_8  and  C_12
REMARK    5  A    between atoms: C_13  and  C_14
REMARK    6  A    between atoms: C_23  and  C_27
REMARK                            x       y       z     vdW  Elec       q    Type
REMARK                         _______ _______ _______ _____ _____    ______ ____
ROOT
ATOM      3  O   UNL     1     -11.409  -9.144  18.009  0.00  0.00    -0.439 OA
ATOM      7  N   UNL     1      -9.671  -8.467  16.721  0.00  0.00    -0.213 NA
ATOM     12  C   UNL     1     -10.954  -8.363  16.990  0.00  0.00    +0.201 A 
ATOM     15  C   UNL     1      -9.231  -9.395  17.635  0.00  0.00    +0.111 A 
ATOM     16  C   UNL     1     -10.292  -9.811  18.425  0.00  0.00    +0.155 A 
ATOM     17  C   UNL     1      -7.960  -9.939  17.866  0.00  0.00    +0.058 A 
ATOM     18  C   UNL     1      -7.824 -10.884  18.892  0.00  0.00    +0.090 A 
ATOM     21  C   UNL     1     -10.197 -10.744  19.450  0.00  0.00    +0.050 A 
ATOM     22  C   UNL     1      -8.923 -11.277  19.667  0.00  0.00    +0.030 A 
ENDROOT
BRANCH  12   8
ATOM      6  N   UNL     1     -12.650  -6.655  14.227  0.00  0.00    -0.297 NA
ATOM      8  C   UNL     1     -11.987  -7.490  16.316  0.00  0.00    +0.090 C 
ATOM      9  C   UNL     1     -11.607  -6.003  16.212  0.00  0.00    +0.029 C 
ATOM     10  C   UNL     1     -12.283  -7.918  14.872  0.00  0.00    +0.097 C 
ATOM     11  C   UNL     1     -11.680  -5.681  14.725  0.00  0.00    +0.085 C 
BRANCH   6  13
ATOM     13  C   UNL     1     -12.645  -6.752  12.775  0.00  0.00    +0.119 C 
BRANCH  13  14
ATOM      2  F   UNL     1     -14.813  -2.145  10.359  0.00  0.00    -0.205 F 
ATOM     14  C   UNL     1     -13.224  -5.521  12.129  0.00  0.00    -0.033 A 
ATOM     19  C   UNL     1     -14.553  -5.170  12.365  0.00  0.00    +0.008 A 
ATOM     20  C   UNL     1     -12.432  -4.732  11.295  0.00  0.00    +0.008 A 
ATOM     24  C   UNL     1     -15.090  -4.029  11.767  0.00  0.00    +0.038 A 
ATOM     25  C   UNL     1     -12.968  -3.592  10.697  0.00  0.00    +0.038 A 
ATOM     26  C   UNL     1     -14.297  -3.240  10.933  0.00  0.00    +0.123 A 
ENDBRANCH  13  14
ENDBRANCH   6  13
ENDBRANCH  12   8
BRANCH  18   1
ATOM      1  S   UNL     1      -6.253 -11.586  19.208  0.00  0.00    -0.003 S 
ATOM      4  O   UNL     1      -5.928 -11.396  20.614  0.00  0.00    -0.169 OA
ATOM      5  O   UNL     1      -6.240 -12.924  18.635  0.00  0.00    -0.169 OA
BRANCH   1  23
ATOM     23  C   UNL     1      -5.126 -10.578  18.273  0.00  0.00    +0.168 C 
ATOM     27  C   UNL     1      -4.192 -11.420  17.435  0.00  0.00    +0.028 C 
ENDBRANCH   1  23
ENDBRANCH  18   1
TORSDOF 5
ENDMDL
MODEL 9
REMARK VINA RESULT:      -6.3     19.692     21.823
REMARK  Name = 51137136
REMARK  6 active torsions:
REMARK  status: ('A' for Active; 'I' for Inactive)
REMARK    1  A    between atoms: S_1  and  C_18
REMARK    2  A    between atoms: S_1  and  C_23
REMARK    3  A    between atoms: N_6  and  C_13
REMARK    4  A    between atoms: C_8  and  C_12
REMARK    5  A    between atoms: C_13  and  C_14
REMARK    6  A    between atoms: C_23  and  C_27
REMARK                            x       y       z     vdW  Elec       q    Type
REMARK                         _______ _______ _______ _____ _____    ______ ____
ROOT
ATOM      3  O   UNL     1      10.513   6.533   1.628  0.00  0.00    -0.439 OA
ATOM      7  N   UNL     1      12.080   5.534   2.926  0.00  0.00    -0.213 NA
ATOM     12  C   UNL     1      11.677   5.831   1.709  0.00  0.00    +0.201 A 
ATOM     15  C   UNL     1      11.106   6.083   3.725  0.00  0.00    +0.111 A 
ATOM     16  C   UNL     1      10.145   6.696   2.934  0.00  0.00    +0.155 A 
ATOM     17  C   UNL     1      10.955   6.111   5.118  0.00  0.00    +0.058 A 
ATOM     18  C   UNL     1       9.831   6.763   5.646  0.00  0.00    +0.090 A 
ATOM     21  C   UNL     1       9.020   7.350   3.419  0.00  0.00    +0.050 A 
ATOM     22  C   UNL     1       8.884   7.369   4.811  0.00  0.00    +0.030 A 
ENDROOT
BRANCH  12   8
ATOM      6  N   UNL     1      12.715   3.733  -1.110  0.00  0.00    -0.297 NA
ATOM      8  C   UNL     1      12.338   5.492   0.393  0.00  0.00    +0.090 C 
ATOM      9  C   UNL     1      13.799   5.024   0.506  0.00  0.00    +0.029 C 
ATOM     10  C   UNL     1      11.625   4.364  -0.363  0.00  0.00    +0.097 C 
ATOM     11  C   UNL     1      13.826   3.655  -0.162  0.00  0.00    +0.085 C 
BRANCH   6  13
ATOM     13  C   UNL     1      12.343   2.428  -1.637  0.00  0.00    +0.119 C 
BRANCH  13  14
ATOM      2  F   UNL     1       9.216   2.868  -6.305  0.00  0.00    -0.205 F 
ATOM     14  C   UNL     1      11.507   2.546  -2.885  0.00  0.00    -0.033 A 
ATOM     19  C   UNL     1      12.043   3.132  -4.030  0.00  0.00    +0.008 A 
ATOM     20  C   UNL     1      10.196   2.068  -2.894  0.00  0.00    +0.008 A 
ATOM     24  C   UNL     1      11.269   3.241  -5.186  0.00  0.00    +0.038 A 
ATOM     25  C   UNL     1       9.422   2.177  -4.049  0.00  0.00    +0.038 A 
ATOM     26  C   UNL     1       9.959   2.763  -5.196  0.00  0.00    +0.123 A 
ENDBRANCH  13  14
ENDBRANCH   6  13
ENDBRANCH  12   8
BRANCH  18   1
ATOM      1  S   UNL     1       9.608   6.816   7.380  0.00  0.00    -0.003 S 
ATOM      4  O   UNL     1      10.747   7.498   7.979  0.00  0.00    -0.169 OA
ATOM      5  O   UNL     1       8.258   7.292   7.641  0.00  0.00    -0.169 OA
BRANCH   1  23
ATOM     23  C   UNL     1       9.697   5.114   7.887  0.00  0.00    +0.168 C 
ATOM     27  C   UNL     1       9.343   4.950   9.347  0.00  0.00    +0.028 C 
ENDBRANCH   1  23
ENDBRANCH  18   1
TORSDOF 5
ENDMDL
MODEL 10
REMARK VINA RESULT:      -6.3     29.160     33.726
REMARK  Name = 51137136
REMARK  6 active torsions:
REMARK  status: ('A' for Active; 'I' for Inactive)
REMARK    1  A    between atoms: S_1  and  C_18
REMARK    2  A    between atoms: S_1  and  C_23
REMARK    3  A    between atoms: N_6  and  C_13
REMARK    4  A    between atoms: C_8  and  C_12
REMARK    5  A    between atoms: C_13  and  C_14
REMARK    6  A    between atoms: C_23  and  C_27
REMARK                            x       y       z     vdW  Elec       q    Type
REMARK                         _______ _______ _______ _____ _____    ______ ____
ROOT
ATOM      3  O   UNL     1      -7.292 -11.015  19.760  0.00  0.00    -0.439 OA
ATOM      7  N   UNL     1      -8.119 -10.698  17.674  0.00  0.00    -0.213 NA
ATOM     12  C   UNL     1      -8.364 -10.745  18.965  0.00  0.00    +0.201 A 
ATOM     15  C   UNL     1      -6.772 -10.958  17.597  0.00  0.00    +0.111 A 
ATOM     16  C   UNL     1      -6.262 -11.152  18.873  0.00  0.00    +0.155 A 
ATOM     17  C   UNL     1      -5.904 -11.047  16.500  0.00  0.00    +0.058 A 
ATOM     18  C   UNL     1      -4.554 -11.332  16.749  0.00  0.00    +0.090 A 
ATOM     21  C   UNL     1      -4.933 -11.435  19.159  0.00  0.00    +0.050 A 
ATOM     22  C   UNL     1      -4.080 -11.521  18.053  0.00  0.00    +0.030 A 
ENDROOT
BRANCH  12   8
ATOM      6  N   UNL     1     -11.692 -11.608  20.232  0.00  0.00    -0.297 NA
ATOM      8  C   UNL     1      -9.681 -10.539  19.678  0.00  0.00    +0.090 C 
ATOM      9  C   UNL     1     -10.814  -9.989  18.796  0.00  0.00    +0.029 C 
ATOM     10  C   UNL     1     -10.246 -11.833  20.278  0.00  0.00    +0.097 C 
ATOM     11  C   UNL     1     -11.939 -11.008  18.921  0.00  0.00    +0.085 C 
BRANCH   6  13
ATOM     13  C   UNL     1     -12.451 -12.833  20.434  0.00  0.00    +0.119 C 
BRANCH  13  14
ATOM      2  F   UNL     1     -14.319 -13.294  25.731  0.00  0.00    -0.205 F 
ATOM     14  C   UNL     1     -12.950 -12.956  21.850  0.00  0.00    -0.033 A 
ATOM     19  C   UNL     1     -12.330 -13.838  22.733  0.00  0.00    +0.008 A 
ATOM     20  C   UNL     1     -14.034 -12.188  22.277  0.00  0.00    +0.008 A 
ATOM     24  C   UNL     1     -12.792 -13.953  24.045  0.00  0.00    +0.038 A 
ATOM     25  C   UNL     1     -14.496 -12.302  23.588  0.00  0.00    +0.038 A 
ATOM     26  C   UNL     1     -13.875 -13.184  24.472  0.00  0.00    +0.123 A 
ENDBRANCH  13  14
ENDBRANCH   6  13
ENDBRANCH  12   8
BRANCH  18   1
ATOM      1  S   UNL     1      -3.442 -11.453  15.404  0.00  0.00    -0.003 S 
ATOM      4  O   UNL     1      -3.320 -12.852  15.021  0.00  0.00    -0.169 OA
ATOM      5  O   UNL     1      -3.833 -10.461  14.413  0.00  0.00    -0.169 OA
BRANCH   1  23
ATOM     23  C   UNL     1      -1.875 -10.962  16.084  0.00  0.00    +0.168 C 
ATOM     27  C   UNL     1      -1.231  -9.869  15.262  0.00  0.00    +0.028 C 
ENDBRANCH   1  23
ENDBRANCH  18   1
TORSDOF 5
ENDMDL
