MODEL 1
REMARK VINA RESULT:      -7.2      0.000      0.000
REMARK  Name = 11913371
REMARK  8 active torsions:
REMARK  status: ('A' for Active; 'I' for Inactive)
REMARK    1  A    between atoms: O_5  and  C_25
REMARK    2  A    between atoms: N_7  and  C_14
REMARK    3  A    between atoms: N_8  and  C_17
REMARK    4  A    between atoms: C_11  and  C_18
REMARK    5  A    between atoms: C_11  and  C_22
REMARK    6  A    between atoms: C_18  and  C_24
REMARK    7  A    between atoms: C_22  and  C_25
REMARK    8  A    between atoms: C_27  and  C_30
REMARK                            x       y       z     vdW  Elec       q    Type
REMARK                         _______ _______ _______ _____ _____    ______ ____
ROOT
ATOM      2  O   UNL     1      -2.741 -12.918  12.754  0.00  0.00    -0.370 OA
ATOM      3  O   UNL     1      -1.864  -9.967  13.262  0.00  0.00    -0.370 OA
ATOM     12  C   UNL     1      -2.898 -10.797  13.819  0.00  0.00    +0.171 C 
ATOM     13  C   UNL     1      -3.436 -11.660  12.696  0.00  0.00    +0.171 C 
ATOM     14  C   UNL     1      -2.307 -11.789  14.795  0.00  0.00    +0.130 C 
ATOM     17  C   UNL     1      -3.060 -10.911  11.439  0.00  0.00    +0.130 C 
ATOM     21  C   UNL     1      -1.853 -12.913  13.880  0.00  0.00    +0.185 C 
ATOM     23  C   UNL     1      -1.785 -10.197  11.848  0.00  0.00    +0.185 C 
ENDROOT
BRANCH  17   8
ATOM      8  N   UNL     1      -4.088  -9.950  11.110  0.00  0.00    -0.306 N 
ATOM      9  N   UNL     1      -4.353 -10.822   8.975  0.00  0.00    -0.214 NA
ATOM     10  N   UNL     1      -5.669  -8.951   9.733  0.00  0.00    -0.223 NA
ATOM     26  C   UNL     1      -4.732  -9.906   9.886  0.00  0.00    +0.216 A 
ATOM     27  C   UNL     1      -5.001 -10.750   7.794  0.00  0.00    +0.076 A 
ATOM     28  C   UNL     1      -6.275  -8.937   8.528  0.00  0.00    +0.116 A 
ATOM     29  C   UNL     1      -5.980  -9.820   7.510  0.00  0.00    +0.048 A 
ATOM     37  H   UNL     1      -4.405  -9.297  11.818  0.00  0.00    +0.149 HD
BRANCH  27  30
ATOM      1  F   UNL     1      -4.569 -12.179   3.203  0.00  0.00    -0.205 F 
ATOM     30  C   UNL     1      -4.599 -11.732   6.814  0.00  0.00    +0.003 A 
ATOM     31  C   UNL     1      -4.781 -11.476   5.455  0.00  0.00    +0.048 A 
ATOM     32  C   UNL     1      -4.028 -12.935   7.226  0.00  0.00    +0.010 A 
ATOM     33  C   UNL     1      -4.392 -12.424   4.508  0.00  0.00    +0.124 A 
ATOM     34  C   UNL     1      -3.639 -13.883   6.279  0.00  0.00    +0.003 A 
ATOM     35  C   UNL     1      -3.822 -13.627   4.920  0.00  0.00    +0.038 A 
ENDBRANCH  27  30
ENDBRANCH  17   8
BRANCH  14   7
ATOM      4  O   UNL     1      -3.580 -10.249  16.888  0.00  0.00    -0.276 OA
ATOM      7  N   UNL     1      -3.298 -12.248  15.737  0.00  0.00    -0.308 N 
ATOM     24  C   UNL     1      -3.856 -11.432  16.713  0.00  0.00    +0.214 C 
ATOM     36  H   UNL     1      -3.616 -13.208  15.652  0.00  0.00    +0.149 HD
BRANCH  24  18
ATOM     18  C   UNL     1      -4.870 -12.182  17.557  0.00  0.00    +0.103 C 
BRANCH  18  11
ATOM     11  C   UNL     1      -6.299 -11.674  17.349  0.00  0.00    -0.011 C 
ATOM     15  C   UNL     1      -7.337 -12.756  17.679  0.00  0.00    +0.008 C 
ATOM     16  C   UNL     1      -6.593 -11.405  15.866  0.00  0.00    +0.008 C 
ATOM     19  C   UNL     1      -8.590 -12.352  16.907  0.00  0.00    +0.001 C 
ATOM     20  C   UNL     1      -8.112 -11.485  15.742  0.00  0.00    +0.001 C 
BRANCH  11  22
ATOM     22  C   UNL     1      -6.517 -10.412  18.198  0.00  0.00    +0.127 C 
BRANCH  22  25
ATOM      6  O   UNL     1      -6.055 -11.242  20.444  0.00  0.00    -0.251 OA
ATOM     25  C   UNL     1      -6.824 -10.762  19.625  0.00  0.00    +0.305 C 
BRANCH  25   5
ATOM      5  O   UNL     1      -8.121 -10.462  19.893  0.00  0.00    -0.481 OA
ATOM     38  H   UNL     1      -8.201  -9.752  20.565  0.00  0.00    +0.295 HD
ENDBRANCH  25   5
ENDBRANCH  22  25
ENDBRANCH  11  22
ENDBRANCH  18  11
ENDBRANCH  24  18
ENDBRANCH  14   7
TORSDOF 8
ENDMDL
MODEL 2
REMARK VINA RESULT:      -7.0      1.926      2.901
REMARK  Name = 11913371
REMARK  8 active torsions:
REMARK  status: ('A' for Active; 'I' for Inactive)
REMARK    1  A    between atoms: O_5  and  C_25
REMARK    2  A    between atoms: N_7  and  C_14
REMARK    3  A    between atoms: N_8  and  C_17
REMARK    4  A    between atoms: C_11  and  C_18
REMARK    5  A    between atoms: C_11  and  C_22
REMARK    6  A    between atoms: C_18  and  C_24
REMARK    7  A    between atoms: C_22  and  C_25
REMARK    8  A    between atoms: C_27  and  C_30
REMARK                            x       y       z     vdW  Elec       q    Type
REMARK                         _______ _______ _______ _____ _____    ______ ____
ROOT
ATOM      2  O   UNL     1      -2.958 -11.950  11.106  0.00  0.00    -0.370 OA
ATOM      3  O   UNL     1      -3.652  -8.908  11.081  0.00  0.00    -0.370 OA
ATOM     12  C   UNL     1      -4.213 -10.040  11.767  0.00  0.00    +0.171 C 
ATOM     13  C   UNL     1      -4.160 -11.217  10.813  0.00  0.00    +0.171 C 
ATOM     14  C   UNL     1      -3.319 -10.455  12.914  0.00  0.00    +0.130 C 
ATOM     17  C   UNL     1      -4.066 -10.582   9.446  0.00  0.00    +0.130 C 
ATOM     21  C   UNL     1      -2.296 -11.341  12.224  0.00  0.00    +0.185 C 
ATOM     23  C   UNL     1      -3.333  -9.284   9.733  0.00  0.00    +0.185 C 
ENDROOT
BRANCH  17   8
ATOM      8  N   UNL     1      -5.390 -10.307   8.936  0.00  0.00    -0.306 N 
ATOM      9  N   UNL     1      -4.887 -11.228   6.865  0.00  0.00    -0.214 NA
ATOM     10  N   UNL     1      -7.066 -10.309   7.328  0.00  0.00    -0.223 NA
ATOM     26  C   UNL     1      -5.799 -10.629   7.654  0.00  0.00    +0.216 A 
ATOM     27  C   UNL     1      -5.319 -11.528   5.623  0.00  0.00    +0.076 A 
ATOM     28  C   UNL     1      -7.430 -10.636   6.071  0.00  0.00    +0.116 A 
ATOM     29  C   UNL     1      -6.592 -11.253   5.166  0.00  0.00    +0.048 A 
ATOM     37  H   UNL     1      -6.087  -9.903   9.551  0.00  0.00    +0.149 HD
BRANCH  27  30
ATOM      1  F   UNL     1      -1.082 -13.761   5.028  0.00  0.00    -0.205 F 
ATOM     30  C   UNL     1      -4.345 -12.172   4.774  0.00  0.00    +0.003 A 
ATOM     31  C   UNL     1      -3.161 -12.665   5.322  0.00  0.00    +0.048 A 
ATOM     32  C   UNL     1      -4.587 -12.300   3.407  0.00  0.00    +0.010 A 
ATOM     33  C   UNL     1      -2.219 -13.288   4.502  0.00  0.00    +0.124 A 
ATOM     34  C   UNL     1      -3.645 -12.923   2.587  0.00  0.00    +0.003 A 
ATOM     35  C   UNL     1      -2.461 -13.417   3.135  0.00  0.00    +0.038 A 
ENDBRANCH  27  30
ENDBRANCH  17   8
BRANCH  14   7
ATOM      4  O   UNL     1      -2.465 -11.105  15.601  0.00  0.00    -0.276 OA
ATOM      7  N   UNL     1      -4.058 -11.189  13.912  0.00  0.00    -0.308 N 
ATOM     24  C   UNL     1      -3.565 -11.454  15.183  0.00  0.00    +0.214 C 
ATOM     36  H   UNL     1      -4.996 -11.495  13.670  0.00  0.00    +0.149 HD
BRANCH  24  18
ATOM     18  C   UNL     1      -4.559 -12.240  16.017  0.00  0.00    +0.103 C 
BRANCH  18  11
ATOM     11  C   UNL     1      -5.038 -11.465  17.246  0.00  0.00    -0.011 C 
ATOM     15  C   UNL     1      -4.164 -11.757  18.475  0.00  0.00    +0.008 C 
ATOM     16  C   UNL     1      -6.414 -11.953  17.722  0.00  0.00    +0.008 C 
ATOM     19  C   UNL     1      -5.045 -11.426  19.676  0.00  0.00    +0.001 C 
ATOM     20  C   UNL     1      -6.490 -11.553  19.193  0.00  0.00    +0.001 C 
BRANCH  11  22
ATOM     22  C   UNL     1      -5.060  -9.963  16.921  0.00  0.00    +0.127 C 
BRANCH  22  25
ATOM      6  O   UNL     1      -7.389  -9.246  16.993  0.00  0.00    -0.251 OA
ATOM     25  C   UNL     1      -6.389  -9.547  16.361  0.00  0.00    +0.305 C 
BRANCH  25   5
ATOM      5  O   UNL     1      -6.326  -9.550  15.004  0.00  0.00    -0.481 OA
ATOM     38  H   UNL     1      -5.456  -9.236  14.678  0.00  0.00    +0.295 HD
ENDBRANCH  25   5
ENDBRANCH  22  25
ENDBRANCH  11  22
ENDBRANCH  18  11
ENDBRANCH  24  18
ENDBRANCH  14   7
TORSDOF 8
ENDMDL
MODEL 3
REMARK VINA RESULT:      -7.0      7.797     12.296
REMARK  Name = 11913371
REMARK  8 active torsions:
REMARK  status: ('A' for Active; 'I' for Inactive)
REMARK    1  A    between atoms: O_5  and  C_25
REMARK    2  A    between atoms: N_7  and  C_14
REMARK    3  A    between atoms: N_8  and  C_17
REMARK    4  A    between atoms: C_11  and  C_18
REMARK    5  A    between atoms: C_11  and  C_22
REMARK    6  A    between atoms: C_18  and  C_24
REMARK    7  A    between atoms: C_22  and  C_25
REMARK    8  A    between atoms: C_27  and  C_30
REMARK                            x       y       z     vdW  Elec       q    Type
REMARK                         _______ _______ _______ _____ _____    ______ ____
ROOT
ATOM      2  O   UNL     1     -12.208  -7.926  14.430  0.00  0.00    -0.370 OA
ATOM      3  O   UNL     1     -10.978  -6.250  16.757  0.00  0.00    -0.370 OA
ATOM     12  C   UNL     1     -10.874  -6.172  15.325  0.00  0.00    +0.171 C 
ATOM     13  C   UNL     1     -10.858  -7.591  14.795  0.00  0.00    +0.171 C 
ATOM     14  C   UNL     1     -12.133  -5.574  14.739  0.00  0.00    +0.130 C 
ATOM     17  C   UNL     1     -10.413  -8.423  15.976  0.00  0.00    +0.130 C 
ATOM     21  C   UNL     1     -13.049  -6.782  14.638  0.00  0.00    +0.185 C 
ATOM     23  C   UNL     1     -10.940  -7.628  17.157  0.00  0.00    +0.185 C 
ENDROOT
BRANCH  17   8
ATOM      8  N   UNL     1      -8.970  -8.488  16.019  0.00  0.00    -0.306 N 
ATOM      9  N   UNL     1      -8.999 -10.150  17.639  0.00  0.00    -0.214 NA
ATOM     10  N   UNL     1      -6.924  -9.290  16.769  0.00  0.00    -0.223 NA
ATOM     26  C   UNL     1      -8.267  -9.347  16.845  0.00  0.00    +0.216 A 
ATOM     27  C   UNL     1      -8.282 -10.975  18.430  0.00  0.00    +0.076 A 
ATOM     28  C   UNL     1      -6.271 -10.141  17.588  0.00  0.00    +0.116 A 
ATOM     29  C   UNL     1      -6.903 -11.014  18.448  0.00  0.00    +0.048 A 
ATOM     37  H   UNL     1      -8.426  -7.918  15.382  0.00  0.00    +0.149 HD
BRANCH  27  30
ATOM      1  F   UNL     1     -12.320 -11.907  20.906  0.00  0.00    -0.205 F 
ATOM     30  C   UNL     1      -9.064 -11.839  19.283  0.00  0.00    +0.003 A 
ATOM     31  C   UNL     1     -10.339 -11.448  19.690  0.00  0.00    +0.048 A 
ATOM     32  C   UNL     1      -8.544 -13.064  19.699  0.00  0.00    +0.010 A 
ATOM     33  C   UNL     1     -11.095 -12.283  20.514  0.00  0.00    +0.124 A 
ATOM     34  C   UNL     1      -9.300 -13.899  20.522  0.00  0.00    +0.003 A 
ATOM     35  C   UNL     1     -10.575 -13.508  20.930  0.00  0.00    +0.038 A 
ENDBRANCH  27  30
ENDBRANCH  17   8
BRANCH  14   7
ATOM      4  O   UNL     1     -13.674  -3.518  13.408  0.00  0.00    -0.276 OA
ATOM      7  N   UNL     1     -11.883  -4.997  13.442  0.00  0.00    -0.308 N 
ATOM     24  C   UNL     1     -12.681  -4.009  12.880  0.00  0.00    +0.214 C 
ATOM     36  H   UNL     1     -11.062  -5.317  12.937  0.00  0.00    +0.149 HD
BRANCH  24  18
ATOM     18  C   UNL     1     -12.177  -3.592  11.511  0.00  0.00    +0.103 C 
BRANCH  18  11
ATOM     11  C   UNL     1     -12.802  -4.411  10.380  0.00  0.00    -0.011 C 
ATOM     15  C   UNL     1     -13.243  -3.518   9.212  0.00  0.00    +0.008 C 
ATOM     16  C   UNL     1     -14.134  -5.043  10.808  0.00  0.00    +0.008 C 
ATOM     19  C   UNL     1     -14.315  -4.322   8.480  0.00  0.00    +0.001 C 
ATOM     20  C   UNL     1     -14.888  -5.301   9.506  0.00  0.00    +0.001 C 
BRANCH  11  22
ATOM     22  C   UNL     1     -11.800  -5.482   9.917  0.00  0.00    +0.127 C 
BRANCH  22  25
ATOM      6  O   UNL     1     -10.024  -4.076   9.016  0.00  0.00    -0.251 OA
ATOM     25  C   UNL     1     -10.872  -4.942   8.868  0.00  0.00    +0.305 C 
BRANCH  25   5
ATOM      5  O   UNL     1     -11.112  -5.572   7.689  0.00  0.00    -0.481 OA
ATOM     38  H   UNL     1     -11.017  -6.545   7.768  0.00  0.00    +0.295 HD
ENDBRANCH  25   5
ENDBRANCH  22  25
ENDBRANCH  11  22
ENDBRANCH  18  11
ENDBRANCH  24  18
ENDBRANCH  14   7
TORSDOF 8
ENDMDL
MODEL 4
REMARK VINA RESULT:      -7.0      4.125     10.380
REMARK  Name = 11913371
REMARK  8 active torsions:
REMARK  status: ('A' for Active; 'I' for Inactive)
REMARK    1  A    between atoms: O_5  and  C_25
REMARK    2  A    between atoms: N_7  and  C_14
REMARK    3  A    between atoms: N_8  and  C_17
REMARK    4  A    between atoms: C_11  and  C_18
REMARK    5  A    between atoms: C_11  and  C_22
REMARK    6  A    between atoms: C_18  and  C_24
REMARK    7  A    between atoms: C_22  and  C_25
REMARK    8  A    between atoms: C_27  and  C_30
REMARK                            x       y       z     vdW  Elec       q    Type
REMARK                         _______ _______ _______ _____ _____    ______ ____
ROOT
ATOM      2  O   UNL     1      -6.605 -10.590  10.034  0.00  0.00    -0.370 OA
ATOM      3  O   UNL     1      -4.175  -8.814   9.213  0.00  0.00    -0.370 OA
ATOM     12  C   UNL     1      -4.556 -10.165   8.904  0.00  0.00    +0.171 C 
ATOM     13  C   UNL     1      -5.182 -10.754  10.153  0.00  0.00    +0.171 C 
ATOM     14  C   UNL     1      -5.677 -10.176   7.890  0.00  0.00    +0.130 C 
ATOM     17  C   UNL     1      -4.647  -9.896  11.275  0.00  0.00    +0.130 C 
ATOM     21  C   UNL     1      -6.907  -9.996   8.763  0.00  0.00    +0.185 C 
ATOM     23  C   UNL     1      -4.445  -8.553  10.598  0.00  0.00    +0.185 C 
ENDROOT
BRANCH  17   8
ATOM      8  N   UNL     1      -3.381 -10.419  11.738  0.00  0.00    -0.306 N 
ATOM      9  N   UNL     1      -4.093 -10.451  13.947  0.00  0.00    -0.214 NA
ATOM     10  N   UNL     1      -1.879 -11.182  13.337  0.00  0.00    -0.223 NA
ATOM     26  C   UNL     1      -3.106 -10.696  13.064  0.00  0.00    +0.216 A 
ATOM     27  C   UNL     1      -3.791 -10.732  15.231  0.00  0.00    +0.076 A 
ATOM     28  C   UNL     1      -1.645 -11.439  14.640  0.00  0.00    +0.116 A 
ATOM     29  C   UNL     1      -2.572 -11.233  15.641  0.00  0.00    +0.048 A 
ATOM     37  H   UNL     1      -2.661 -10.651  11.062  0.00  0.00    +0.149 HD
BRANCH  27  30
ATOM      1  F   UNL     1      -8.112  -8.870  16.309  0.00  0.00    -0.205 F 
ATOM     30  C   UNL     1      -4.847 -10.472  16.180  0.00  0.00    +0.003 A 
ATOM     31  C   UNL     1      -5.992  -9.784  15.778  0.00  0.00    +0.048 A 
ATOM     32  C   UNL     1      -4.724 -10.909  17.499  0.00  0.00    +0.010 A 
ATOM     33  C   UNL     1      -7.013  -9.532  16.695  0.00  0.00    +0.124 A 
ATOM     34  C   UNL     1      -5.745 -10.657  18.416  0.00  0.00    +0.003 A 
ATOM     35  C   UNL     1      -6.889  -9.969  18.013  0.00  0.00    +0.038 A 
ENDBRANCH  27  30
ENDBRANCH  17   8
BRANCH  14   7
ATOM      4  O   UNL     1      -6.310 -10.576   5.095  0.00  0.00    -0.276 OA
ATOM      7  N   UNL     1      -5.722 -11.428   7.175  0.00  0.00    -0.308 N 
ATOM     24  C   UNL     1      -6.037 -11.523   5.825  0.00  0.00    +0.214 C 
ATOM     36  H   UNL     1      -5.480 -12.270   7.688  0.00  0.00    +0.149 HD
BRANCH  24  18
ATOM     18  C   UNL     1      -6.005 -12.962   5.343  0.00  0.00    +0.103 C 
BRANCH  18  11
ATOM     11  C   UNL     1      -4.719 -13.298   4.584  0.00  0.00    -0.011 C 
ATOM     15  C   UNL     1      -3.714 -12.139   4.633  0.00  0.00    +0.008 C 
ATOM     16  C   UNL     1      -4.971 -13.427   3.075  0.00  0.00    +0.008 C 
ATOM     19  C   UNL     1      -2.805 -12.350   3.425  0.00  0.00    +0.001 C 
ATOM     20  C   UNL     1      -3.613 -13.177   2.424  0.00  0.00    +0.001 C 
BRANCH  11  22
ATOM     22  C   UNL     1      -4.114 -14.588   5.161  0.00  0.00    +0.127 C 
BRANCH  22  25
ATOM      6  O   UNL     1      -3.912 -13.944   7.504  0.00  0.00    -0.251 OA
ATOM     25  C   UNL     1      -3.408 -14.326   6.459  0.00  0.00    +0.305 C 
BRANCH  25   5
ATOM      5  O   UNL     1      -2.082 -14.580   6.310  0.00  0.00    -0.481 OA
ATOM     38  H   UNL     1      -1.921 -15.468   5.927  0.00  0.00    +0.295 HD
ENDBRANCH  25   5
ENDBRANCH  22  25
ENDBRANCH  11  22
ENDBRANCH  18  11
ENDBRANCH  24  18
ENDBRANCH  14   7
TORSDOF 8
ENDMDL
MODEL 5
REMARK VINA RESULT:      -6.9     23.269     26.312
REMARK  Name = 11913371
REMARK  8 active torsions:
REMARK  status: ('A' for Active; 'I' for Inactive)
REMARK    1  A    between atoms: O_5  and  C_25
REMARK    2  A    between atoms: N_7  and  C_14
REMARK    3  A    between atoms: N_8  and  C_17
REMARK    4  A    between atoms: C_11  and  C_18
REMARK    5  A    between atoms: C_11  and  C_22
REMARK    6  A    between atoms: C_18  and  C_24
REMARK    7  A    between atoms: C_22  and  C_25
REMARK    8  A    between atoms: C_27  and  C_30
REMARK                            x       y       z     vdW  Elec       q    Type
REMARK                         _______ _______ _______ _____ _____    ______ ____
ROOT
ATOM      2  O   UNL     1      19.016  -9.151  -2.189  0.00  0.00    -0.370 OA
ATOM      3  O   UNL     1      21.261  -7.800  -0.494  0.00  0.00    -0.370 OA
ATOM     12  C   UNL     1      19.884  -8.119  -0.229  0.00  0.00    +0.171 C 
ATOM     13  C   UNL     1      19.113  -7.885  -1.513  0.00  0.00    +0.171 C 
ATOM     14  C   UNL     1      19.728  -9.600   0.030  0.00  0.00    +0.130 C 
ATOM     17  C   UNL     1      19.984  -6.935  -2.301  0.00  0.00    +0.130 C 
ATOM     21  C   UNL     1      19.622 -10.166  -1.376  0.00  0.00    +0.185 C 
ATOM     23  C   UNL     1      21.381  -7.301  -1.834  0.00  0.00    +0.185 C 
ENDROOT
BRANCH  17   8
ATOM      8  N   UNL     1      19.677  -5.569  -1.941  0.00  0.00    -0.306 N 
ATOM      9  N   UNL     1      17.616  -5.651  -3.006  0.00  0.00    -0.214 NA
ATOM     10  N   UNL     1      18.362  -3.656  -1.878  0.00  0.00    -0.223 NA
ATOM     26  C   UNL     1      18.501  -4.930  -2.290  0.00  0.00    +0.216 A 
ATOM     27  C   UNL     1      16.480  -4.998  -3.328  0.00  0.00    +0.076 A 
ATOM     28  C   UNL     1      17.204  -3.065  -2.237  0.00  0.00    +0.116 A 
ATOM     29  C   UNL     1      16.217  -3.692  -2.968  0.00  0.00    +0.048 A 
ATOM     37  H   UNL     1      20.325  -5.050  -1.358  0.00  0.00    +0.149 HD
BRANCH  27  30
ATOM      1  F   UNL     1      14.120  -9.121  -4.184  0.00  0.00    -0.205 F 
ATOM     30  C   UNL     1      15.529  -5.767  -4.094  0.00  0.00    +0.003 A 
ATOM     31  C   UNL     1      15.279  -7.098  -3.762  0.00  0.00    +0.048 A 
ATOM     32  C   UNL     1      14.858  -5.179  -5.166  0.00  0.00    +0.010 A 
ATOM     33  C   UNL     1      14.359  -7.842  -4.502  0.00  0.00    +0.124 A 
ATOM     34  C   UNL     1      13.938  -5.922  -5.907  0.00  0.00    +0.003 A 
ATOM     35  C   UNL     1      13.689  -7.253  -5.574  0.00  0.00    +0.038 A 
ENDBRANCH  27  30
ENDBRANCH  17   8
BRANCH  14   7
ATOM      4  O   UNL     1      19.562 -10.913   2.603  0.00  0.00    -0.276 OA
ATOM      7  N   UNL     1      18.537  -9.873   0.795  0.00  0.00    -0.308 N 
ATOM     24  C   UNL     1      18.554 -10.512   2.029  0.00  0.00    +0.214 C 
ATOM     36  H   UNL     1      17.652  -9.551   0.416  0.00  0.00    +0.149 HD
BRANCH  24  18
ATOM     18  C   UNL     1      17.157 -10.662   2.602  0.00  0.00    +0.103 C 
BRANCH  18  11
ATOM     11  C   UNL     1      16.734 -12.125   2.745  0.00  0.00    -0.011 C 
ATOM     15  C   UNL     1      15.223 -12.256   2.984  0.00  0.00    +0.008 C 
ATOM     16  C   UNL     1      17.306 -12.756   4.023  0.00  0.00    +0.008 C 
ATOM     19  C   UNL     1      15.045 -13.611   3.665  0.00  0.00    +0.001 C 
ATOM     20  C   UNL     1      16.382 -13.932   4.332  0.00  0.00    +0.001 C 
BRANCH  11  22
ATOM     22  C   UNL     1      17.171 -12.904   1.494  0.00  0.00    +0.127 C 
BRANCH  22  25
ATOM      6  O   UNL     1      16.163 -11.650  -0.337  0.00  0.00    -0.251 OA
ATOM     25  C   UNL     1      16.236 -12.660   0.345  0.00  0.00    +0.305 C 
BRANCH  25   5
ATOM      5  O   UNL     1      15.454 -13.755   0.161  0.00  0.00    -0.481 OA
ATOM     38  H   UNL     1      15.762 -14.301  -0.593  0.00  0.00    +0.295 HD
ENDBRANCH  25   5
ENDBRANCH  22  25
ENDBRANCH  11  22
ENDBRANCH  18  11
ENDBRANCH  24  18
ENDBRANCH  14   7
TORSDOF 8
ENDMDL
MODEL 6
REMARK VINA RESULT:      -6.8      4.509     10.713
REMARK  Name = 11913371
REMARK  8 active torsions:
REMARK  status: ('A' for Active; 'I' for Inactive)
REMARK    1  A    between atoms: O_5  and  C_25
REMARK    2  A    between atoms: N_7  and  C_14
REMARK    3  A    between atoms: N_8  and  C_17
REMARK    4  A    between atoms: C_11  and  C_18
REMARK    5  A    between atoms: C_11  and  C_22
REMARK    6  A    between atoms: C_18  and  C_24
REMARK    7  A    between atoms: C_22  and  C_25
REMARK    8  A    between atoms: C_27  and  C_30
REMARK                            x       y       z     vdW  Elec       q    Type
REMARK                         _______ _______ _______ _____ _____    ______ ____
ROOT
ATOM      2  O   UNL     1      -6.071 -11.594  10.107  0.00  0.00    -0.370 OA
ATOM      3  O   UNL     1      -4.706  -8.800  10.362  0.00  0.00    -0.370 OA
ATOM     12  C   UNL     1      -4.415  -9.970   9.580  0.00  0.00    +0.171 C 
ATOM     13  C   UNL     1      -4.735 -11.178  10.438  0.00  0.00    +0.171 C 
ATOM     14  C   UNL     1      -5.377 -10.078   8.418  0.00  0.00    +0.130 C 
ATOM     17  C   UNL     1      -4.685 -10.651  11.852  0.00  0.00    +0.130 C 
ATOM     21  C   UNL     1      -6.576 -10.762   9.052  0.00  0.00    +0.185 C 
ATOM     23  C   UNL     1      -5.104  -9.202  11.681  0.00  0.00    +0.185 C 
ENDROOT
BRANCH  17   8
ATOM      8  N   UNL     1      -3.334 -10.724  12.361  0.00  0.00    -0.306 N 
ATOM      9  N   UNL     1      -4.055 -10.597  14.564  0.00  0.00    -0.214 NA
ATOM     10  N   UNL     1      -1.713 -10.778  14.023  0.00  0.00    -0.223 NA
ATOM     26  C   UNL     1      -3.020 -10.699  13.708  0.00  0.00    +0.216 A 
ATOM     27  C   UNL     1      -3.713 -10.576  15.869  0.00  0.00    +0.076 A 
ATOM     28  C   UNL     1      -1.444 -10.750  15.345  0.00  0.00    +0.116 A 
ATOM     29  C   UNL     1      -2.412 -10.649  16.323  0.00  0.00    +0.048 A 
ATOM     37  H   UNL     1      -2.564 -10.853  11.713  0.00  0.00    +0.149 HD
BRANCH  27  30
ATOM      1  F   UNL     1      -5.650 -11.342  20.223  0.00  0.00    -0.205 F 
ATOM     30  C   UNL     1      -4.819 -10.468  16.790  0.00  0.00    +0.003 A 
ATOM     31  C   UNL     1      -4.697 -10.967  18.087  0.00  0.00    +0.048 A 
ATOM     32  C   UNL     1      -6.009  -9.866  16.384  0.00  0.00    +0.010 A 
ATOM     33  C   UNL     1      -5.766 -10.863  18.978  0.00  0.00    +0.124 A 
ATOM     34  C   UNL     1      -7.078  -9.761  17.274  0.00  0.00    +0.003 A 
ATOM     35  C   UNL     1      -6.956 -10.260  18.571  0.00  0.00    +0.038 A 
ENDBRANCH  27  30
ENDBRANCH  17   8
BRANCH  14   7
ATOM      4  O   UNL     1      -6.382 -10.339   5.717  0.00  0.00    -0.276 OA
ATOM      7  N   UNL     1      -4.822 -10.876   7.353  0.00  0.00    -0.308 N 
ATOM     24  C   UNL     1      -5.376 -10.940   6.080  0.00  0.00    +0.214 C 
ATOM     36  H   UNL     1      -3.967 -11.388   7.548  0.00  0.00    +0.149 HD
BRANCH  24  18
ATOM     18  C   UNL     1      -4.580 -11.854   5.168  0.00  0.00    +0.103 C 
BRANCH  18  11
ATOM     11  C   UNL     1      -5.160 -13.269   5.102  0.00  0.00    -0.011 C 
ATOM     15  C   UNL     1      -5.722 -13.713   6.460  0.00  0.00    +0.008 C 
ATOM     16  C   UNL     1      -4.066 -14.318   4.861  0.00  0.00    +0.008 C 
ATOM     19  C   UNL     1      -5.713 -15.239   6.413  0.00  0.00    +0.001 C 
ATOM     20  C   UNL     1      -4.649 -15.627   5.386  0.00  0.00    +0.001 C 
BRANCH  11  22
ATOM     22  C   UNL     1      -6.237 -13.324   4.007  0.00  0.00    +0.127 C 
BRANCH  22  25
ATOM      6  O   UNL     1      -4.988 -12.675   2.016  0.00  0.00    -0.251 OA
ATOM     25  C   UNL     1      -5.868 -12.461   2.835  0.00  0.00    +0.305 C 
BRANCH  25   5
ATOM      5  O   UNL     1      -6.675 -11.369   2.809  0.00  0.00    -0.481 OA
ATOM     38  H   UNL     1      -6.849 -11.065   1.893  0.00  0.00    +0.295 HD
ENDBRANCH  25   5
ENDBRANCH  22  25
ENDBRANCH  11  22
ENDBRANCH  18  11
ENDBRANCH  24  18
ENDBRANCH  14   7
TORSDOF 8
ENDMDL
MODEL 7
REMARK VINA RESULT:      -6.7      4.067     10.194
REMARK  Name = 11913371
REMARK  8 active torsions:
REMARK  status: ('A' for Active; 'I' for Inactive)
REMARK    1  A    between atoms: O_5  and  C_25
REMARK    2  A    between atoms: N_7  and  C_14
REMARK    3  A    between atoms: N_8  and  C_17
REMARK    4  A    between atoms: C_11  and  C_18
REMARK    5  A    between atoms: C_11  and  C_22
REMARK    6  A    between atoms: C_18  and  C_24
REMARK    7  A    between atoms: C_22  and  C_25
REMARK    8  A    between atoms: C_27  and  C_30
REMARK                            x       y       z     vdW  Elec       q    Type
REMARK                         _______ _______ _______ _____ _____    ______ ____
ROOT
ATOM      2  O   UNL     1      -6.741 -11.366  10.569  0.00  0.00    -0.370 OA
ATOM      3  O   UNL     1      -6.009  -8.568  11.742  0.00  0.00    -0.370 OA
ATOM     12  C   UNL     1      -5.664  -9.245  10.521  0.00  0.00    +0.171 C 
ATOM     13  C   UNL     1      -5.491 -10.714  10.853  0.00  0.00    +0.171 C 
ATOM     14  C   UNL     1      -6.831  -9.220   9.559  0.00  0.00    +0.130 C 
ATOM     17  C   UNL     1      -5.218 -10.728  12.338  0.00  0.00    +0.130 C 
ATOM     21  C   UNL     1      -7.658 -10.407  10.021  0.00  0.00    +0.185 C 
ATOM     23  C   UNL     1      -5.976  -9.507  12.826  0.00  0.00    +0.185 C 
ENDROOT
BRANCH  17   8
ATOM      8  N   UNL     1      -3.802 -10.570  12.583  0.00  0.00    -0.306 N 
ATOM      9  N   UNL     1      -4.086 -10.719  14.882  0.00  0.00    -0.214 NA
ATOM     10  N   UNL     1      -1.903 -10.409  13.909  0.00  0.00    -0.223 NA
ATOM     26  C   UNL     1      -3.239 -10.566  13.846  0.00  0.00    +0.216 A 
ATOM     27  C   UNL     1      -3.503 -10.711  16.098  0.00  0.00    +0.076 A 
ATOM     28  C   UNL     1      -1.388 -10.410  15.156  0.00  0.00    +0.116 A 
ATOM     29  C   UNL     1      -2.146 -10.559  16.299  0.00  0.00    +0.048 A 
ATOM     37  H   UNL     1      -3.165 -10.507  11.796  0.00  0.00    +0.149 HD
BRANCH  27  30
ATOM      1  F   UNL     1      -7.748  -9.856  18.232  0.00  0.00    -0.205 F 
ATOM     30  C   UNL     1      -4.407 -10.876  17.212  0.00  0.00    +0.003 A 
ATOM     31  C   UNL     1      -5.665 -10.274  17.183  0.00  0.00    +0.048 A 
ATOM     32  C   UNL     1      -4.023 -11.637  18.315  0.00  0.00    +0.010 A 
ATOM     33  C   UNL     1      -6.540 -10.434  18.259  0.00  0.00    +0.124 A 
ATOM     34  C   UNL     1      -4.897 -11.797  19.391  0.00  0.00    +0.003 A 
ATOM     35  C   UNL     1      -6.156 -11.195  19.362  0.00  0.00    +0.038 A 
ENDBRANCH  27  30
ENDBRANCH  17   8
BRANCH  14   7
ATOM      4  O   UNL     1      -8.345  -8.704   7.148  0.00  0.00    -0.276 OA
ATOM      7  N   UNL     1      -6.388  -9.388   8.197  0.00  0.00    -0.308 N 
ATOM     24  C   UNL     1      -7.189  -9.113   7.096  0.00  0.00    +0.214 C 
ATOM     36  H   UNL     1      -5.431  -9.695   8.050  0.00  0.00    +0.149 HD
BRANCH  24  18
ATOM     18  C   UNL     1      -6.460  -9.380   5.792  0.00  0.00    +0.103 C 
BRANCH  18  11
ATOM     11  C   UNL     1      -6.678 -10.805   5.277  0.00  0.00    -0.011 C 
ATOM     15  C   UNL     1      -7.483 -10.817   3.970  0.00  0.00    +0.008 C 
ATOM     16  C   UNL     1      -7.593 -11.610   6.212  0.00  0.00    +0.008 C 
ATOM     19  C   UNL     1      -8.104 -12.209   3.899  0.00  0.00    +0.001 C 
ATOM     20  C   UNL     1      -8.175 -12.718   5.339  0.00  0.00    +0.001 C 
BRANCH  11  22
ATOM     22  C   UNL     1      -5.316 -11.494   5.101  0.00  0.00    +0.127 C 
BRANCH  22  25
ATOM      6  O   UNL     1      -4.492 -11.390   7.393  0.00  0.00    -0.251 OA
ATOM     25  C   UNL     1      -4.805 -12.035   6.405  0.00  0.00    +0.305 C 
BRANCH  25   5
ATOM      5  O   UNL     1      -4.737 -13.390   6.334  0.00  0.00    -0.481 OA
ATOM     38  H   UNL     1      -5.554 -13.778   5.955  0.00  0.00    +0.295 HD
ENDBRANCH  25   5
ENDBRANCH  22  25
ENDBRANCH  11  22
ENDBRANCH  18  11
ENDBRANCH  24  18
ENDBRANCH  14   7
TORSDOF 8
ENDMDL
MODEL 8
REMARK VINA RESULT:      -6.6     30.341     32.622
REMARK  Name = 11913371
REMARK  8 active torsions:
REMARK  status: ('A' for Active; 'I' for Inactive)
REMARK    1  A    between atoms: O_5  and  C_25
REMARK    2  A    between atoms: N_7  and  C_14
REMARK    3  A    between atoms: N_8  and  C_17
REMARK    4  A    between atoms: C_11  and  C_18
REMARK    5  A    between atoms: C_11  and  C_22
REMARK    6  A    between atoms: C_18  and  C_24
REMARK    7  A    between atoms: C_22  and  C_25
REMARK    8  A    between atoms: C_27  and  C_30
REMARK                            x       y       z     vdW  Elec       q    Type
REMARK                         _______ _______ _______ _____ _____    ______ ____
ROOT
ATOM      2  O   UNL     1      -7.900   8.302  36.770  0.00  0.00    -0.370 OA
ATOM      3  O   UNL     1      -7.065  10.766  38.492  0.00  0.00    -0.370 OA
ATOM     12  C   UNL     1      -7.580  10.627  37.157  0.00  0.00    +0.171 C 
ATOM     13  C   UNL     1      -6.965   9.374  36.565  0.00  0.00    +0.171 C 
ATOM     14  C   UNL     1      -9.061  10.327  37.194  0.00  0.00    +0.130 C 
ATOM     17  C   UNL     1      -5.719   9.148  37.389  0.00  0.00    +0.130 C 
ATOM     21  C   UNL     1      -9.083   8.822  37.393  0.00  0.00    +0.185 C 
ATOM     23  C   UNL     1      -6.103   9.729  38.737  0.00  0.00    +0.185 C 
ENDROOT
BRANCH  17   8
ATOM      8  N   UNL     1      -4.611   9.885  36.823  0.00  0.00    -0.306 N 
ATOM      9  N   UNL     1      -3.050   8.463  37.786  0.00  0.00    -0.214 NA
ATOM     10  N   UNL     1      -2.367  10.330  36.424  0.00  0.00    -0.223 NA
ATOM     26  C   UNL     1      -3.285   9.545  37.019  0.00  0.00    +0.216 A 
ATOM     27  C   UNL     1      -1.746   8.159  37.956  0.00  0.00    +0.076 A 
ATOM     28  C   UNL     1      -1.085   9.969  36.637  0.00  0.00    +0.116 A 
ATOM     29  C   UNL     1      -0.711   8.883  37.401  0.00  0.00    +0.048 A 
ATOM     37  H   UNL     1      -4.797  10.667  36.205  0.00  0.00    +0.149 HD
BRANCH  27  30
ATOM      1  F   UNL     1       1.128   4.533  39.331  0.00  0.00    -0.205 F 
ATOM     30  C   UNL     1      -1.490   6.999  38.776  0.00  0.00    +0.003 A 
ATOM     31  C   UNL     1      -0.281   6.313  38.655  0.00  0.00    +0.048 A 
ATOM     32  C   UNL     1      -2.449   6.565  39.689  0.00  0.00    +0.010 A 
ATOM     33  C   UNL     1      -0.032   5.192  39.448  0.00  0.00    +0.124 A 
ATOM     34  C   UNL     1      -2.201   5.444  40.482  0.00  0.00    +0.003 A 
ATOM     35  C   UNL     1      -0.992   4.758  40.361  0.00  0.00    +0.038 A 
ENDBRANCH  27  30
ENDBRANCH  17   8
BRANCH  14   7
ATOM      4  O   UNL     1     -11.899  10.612  36.703  0.00  0.00    -0.276 OA
ATOM      7  N   UNL     1      -9.700  10.701  35.956  0.00  0.00    -0.308 N 
ATOM     24  C   UNL     1     -11.078  10.813  35.813  0.00  0.00    +0.214 C 
ATOM     36  H   UNL     1      -9.101  10.918  35.166  0.00  0.00    +0.149 HD
BRANCH  24  18
ATOM     18  C   UNL     1     -11.463  11.223  34.404  0.00  0.00    +0.103 C 
BRANCH  18  11
ATOM     11  C   UNL     1     -11.554  10.030  33.449  0.00  0.00    -0.011 C 
ATOM     15  C   UNL     1     -12.549  10.293  32.310  0.00  0.00    +0.008 C 
ATOM     16  C   UNL     1     -12.181   8.806  34.132  0.00  0.00    +0.008 C 
ATOM     19  C   UNL     1     -12.967   8.909  31.820  0.00  0.00    +0.001 C 
ATOM     20  C   UNL     1     -12.731   7.954  32.991  0.00  0.00    +0.001 C 
BRANCH  11  22
ATOM     22  C   UNL     1     -10.153   9.709  32.905  0.00  0.00    +0.127 C 
BRANCH  22  25
ATOM      6  O   UNL     1      -9.720  11.805  31.738  0.00  0.00    -0.251 OA
ATOM     25  C   UNL     1      -9.401  10.962  32.562  0.00  0.00    +0.305 C 
BRANCH  25   5
ATOM      5  O   UNL     1      -8.276  11.033  33.319  0.00  0.00    -0.481 OA
ATOM     38  H   UNL     1      -7.678  10.272  33.158  0.00  0.00    +0.295 HD
ENDBRANCH  25   5
ENDBRANCH  22  25
ENDBRANCH  11  22
ENDBRANCH  18  11
ENDBRANCH  24  18
ENDBRANCH  14   7
TORSDOF 8
ENDMDL
MODEL 9
REMARK VINA RESULT:      -6.6     22.518     26.099
REMARK  Name = 11913371
REMARK  8 active torsions:
REMARK  status: ('A' for Active; 'I' for Inactive)
REMARK    1  A    between atoms: O_5  and  C_25
REMARK    2  A    between atoms: N_7  and  C_14
REMARK    3  A    between atoms: N_8  and  C_17
REMARK    4  A    between atoms: C_11  and  C_18
REMARK    5  A    between atoms: C_11  and  C_22
REMARK    6  A    between atoms: C_18  and  C_24
REMARK    7  A    between atoms: C_22  and  C_25
REMARK    8  A    between atoms: C_27  and  C_30
REMARK                            x       y       z     vdW  Elec       q    Type
REMARK                         _______ _______ _______ _____ _____    ______ ____
ROOT
ATOM      2  O   UNL     1     -11.428   8.008  20.494  0.00  0.00    -0.370 OA
ATOM      3  O   UNL     1     -14.385   7.678  19.553  0.00  0.00    -0.370 OA
ATOM     12  C   UNL     1     -13.291   8.493  19.097  0.00  0.00    +0.171 C 
ATOM     13  C   UNL     1     -12.516   8.933  20.322  0.00  0.00    +0.171 C 
ATOM     14  C   UNL     1     -12.303   7.656  18.316  0.00  0.00    +0.130 C 
ATOM     17  C   UNL     1     -13.505   8.797  21.456  0.00  0.00    +0.130 C 
ATOM     21  C   UNL     1     -11.442   7.060  19.417  0.00  0.00    +0.185 C 
ATOM     23  C   UNL     1     -14.390   7.656  20.987  0.00  0.00    +0.185 C 
ENDROOT
BRANCH  17   8
ATOM      8  N   UNL     1     -14.280  10.010  21.585  0.00  0.00    -0.306 N 
ATOM      9  N   UNL     1     -13.448  10.426  23.712  0.00  0.00    -0.214 NA
ATOM     10  N   UNL     1     -15.029  11.919  22.674  0.00  0.00    -0.223 NA
ATOM     26  C   UNL     1     -14.251  10.821  22.706  0.00  0.00    +0.216 A 
ATOM     27  C   UNL     1     -13.444  11.239  24.789  0.00  0.00    +0.076 A 
ATOM     28  C   UNL     1     -14.977  12.686  23.783  0.00  0.00    +0.116 A 
ATOM     29  C   UNL     1     -14.195  12.393  24.881  0.00  0.00    +0.048 A 
ATOM     37  H   UNL     1     -14.841  10.328  20.804  0.00  0.00    +0.149 HD
BRANCH  27  30
ATOM      1  F   UNL     1      -9.049  10.267  26.530  0.00  0.00    -0.205 F 
ATOM     30  C   UNL     1     -12.584  10.821  25.870  0.00  0.00    +0.003 A 
ATOM     31  C   UNL     1     -11.205  10.745  25.674  0.00  0.00    +0.048 A 
ATOM     32  C   UNL     1     -13.131  10.492  27.109  0.00  0.00    +0.010 A 
ATOM     33  C   UNL     1     -10.373  10.341  26.718  0.00  0.00    +0.124 A 
ATOM     34  C   UNL     1     -12.299  10.088  28.154  0.00  0.00    +0.003 A 
ATOM     35  C   UNL     1     -10.920  10.012  27.958  0.00  0.00    +0.038 A 
ENDBRANCH  27  30
ENDBRANCH  17   8
BRANCH  14   7
ATOM      4  O   UNL     1     -12.905   8.315  15.564  0.00  0.00    -0.276 OA
ATOM      7  N   UNL     1     -11.519   8.472  17.422  0.00  0.00    -0.308 N 
ATOM     24  C   UNL     1     -11.890   8.736  16.110  0.00  0.00    +0.214 C 
ATOM     36  H   UNL     1     -10.672   8.893  17.793  0.00  0.00    +0.149 HD
BRANCH  24  18
ATOM     18  C   UNL     1     -10.877   9.623  15.409  0.00  0.00    +0.103 C 
BRANCH  18  11
ATOM     11  C   UNL     1     -11.219  11.110  15.527  0.00  0.00    -0.011 C 
ATOM     15  C   UNL     1     -12.521  11.332  16.309  0.00  0.00    +0.008 C 
ATOM     16  C   UNL     1     -11.569  11.719  14.162  0.00  0.00    +0.008 C 
ATOM     19  C   UNL     1     -13.025  12.701  15.861  0.00  0.00    +0.001 C 
ATOM     20  C   UNL     1     -12.415  12.949  14.482  0.00  0.00    +0.001 C 
BRANCH  11  22
ATOM     22  C   UNL     1     -10.041  11.850  16.181  0.00  0.00    +0.127 C 
BRANCH  22  25
ATOM      6  O   UNL     1     -10.015  10.787  18.375  0.00  0.00    -0.251 OA
ATOM     25  C   UNL     1     -10.121  11.785  17.679  0.00  0.00    +0.305 C 
BRANCH  25   5
ATOM      5  O   UNL     1     -10.334  13.032  18.173  0.00  0.00    -0.481 OA
ATOM     38  H   UNL     1     -10.081  13.099  19.118  0.00  0.00    +0.295 HD
ENDBRANCH  25   5
ENDBRANCH  22  25
ENDBRANCH  11  22
ENDBRANCH  18  11
ENDBRANCH  24  18
ENDBRANCH  14   7
TORSDOF 8
ENDMDL
MODEL 10
REMARK VINA RESULT:      -6.6      6.746     13.282
REMARK  Name = 11913371
REMARK  8 active torsions:
REMARK  status: ('A' for Active; 'I' for Inactive)
REMARK    1  A    between atoms: O_5  and  C_25
REMARK    2  A    between atoms: N_7  and  C_14
REMARK    3  A    between atoms: N_8  and  C_17
REMARK    4  A    between atoms: C_11  and  C_18
REMARK    5  A    between atoms: C_11  and  C_22
REMARK    6  A    between atoms: C_18  and  C_24
REMARK    7  A    between atoms: C_22  and  C_25
REMARK    8  A    between atoms: C_27  and  C_30
REMARK                            x       y       z     vdW  Elec       q    Type
REMARK                         _______ _______ _______ _____ _____    ______ ____
ROOT
ATOM      2  O   UNL     1      -1.116 -14.435   5.714  0.00  0.00    -0.370 OA
ATOM      3  O   UNL     1      -3.110 -15.904   3.816  0.00  0.00    -0.370 OA
ATOM     12  C   UNL     1      -2.110 -14.892   3.602  0.00  0.00    +0.171 C 
ATOM     13  C   UNL     1      -2.133 -13.974   4.808  0.00  0.00    +0.171 C 
ATOM     14  C   UNL     1      -0.728 -15.505   3.631  0.00  0.00    +0.130 C 
ATOM     17  C   UNL     1      -3.503 -14.184   5.408  0.00  0.00    +0.130 C 
ATOM     21  C   UNL     1      -0.420 -15.539   5.118  0.00  0.00    +0.185 C 
ATOM     23  C   UNL     1      -3.811 -15.624   5.037  0.00  0.00    +0.185 C 
ENDROOT
BRANCH  17   8
ATOM      8  N   UNL     1      -4.457 -13.292   4.789  0.00  0.00    -0.306 N 
ATOM      9  N   UNL     1      -4.494 -11.892   6.640  0.00  0.00    -0.214 NA
ATOM     10  N   UNL     1      -5.831 -11.423   4.691  0.00  0.00    -0.223 NA
ATOM     26  C   UNL     1      -4.949 -12.153   5.399  0.00  0.00    +0.216 A 
ATOM     27  C   UNL     1      -4.994 -10.774   7.206  0.00  0.00    +0.076 A 
ATOM     28  C   UNL     1      -6.291 -10.320   5.318  0.00  0.00    +0.116 A 
ATOM     29  C   UNL     1      -5.904  -9.942   6.586  0.00  0.00    +0.048 A 
ATOM     37  H   UNL     1      -4.755 -13.466   3.835  0.00  0.00    +0.149 HD
BRANCH  27  30
ATOM      1  F   UNL     1      -3.203 -12.259  11.435  0.00  0.00    -0.205 F 
ATOM     30  C   UNL     1      -4.508 -10.491   8.535  0.00  0.00    +0.003 A 
ATOM     31  C   UNL     1      -4.081 -11.533   9.359  0.00  0.00    +0.048 A 
ATOM     32  C   UNL     1      -4.465  -9.175   8.996  0.00  0.00    +0.010 A 
ATOM     33  C   UNL     1      -3.611 -11.259  10.643  0.00  0.00    +0.124 A 
ATOM     34  C   UNL     1      -3.995  -8.901  10.281  0.00  0.00    +0.003 A 
ATOM     35  C   UNL     1      -3.568  -9.944  11.104  0.00  0.00    +0.038 A 
ENDBRANCH  27  30
ENDBRANCH  17   8
BRANCH  14   7
ATOM      4  O   UNL     1       1.967 -16.217   2.855  0.00  0.00    -0.276 OA
ATOM      7  N   UNL     1       0.220 -14.685   2.919  0.00  0.00    -0.308 N 
ATOM     24  C   UNL     1       1.500 -15.114   2.587  0.00  0.00    +0.214 C 
ATOM     36  H   UNL     1      -0.085 -13.762   2.625  0.00  0.00    +0.149 HD
BRANCH  24  18
ATOM     18  C   UNL     1       2.273 -14.044   1.839  0.00  0.00    +0.103 C 
BRANCH  18  11
ATOM     11  C   UNL     1       2.956 -14.583   0.581  0.00  0.00    -0.011 C 
ATOM     15  C   UNL     1       4.086 -15.563   0.927  0.00  0.00    +0.008 C 
ATOM     16  C   UNL     1       3.720 -13.480  -0.165  0.00  0.00    +0.008 C 
ATOM     19  C   UNL     1       5.007 -15.553  -0.290  0.00  0.00    +0.001 C 
ATOM     20  C   UNL     1       4.772 -14.215  -0.991  0.00  0.00    +0.001 C 
BRANCH  11  22
ATOM     22  C   UNL     1       1.903 -15.242  -0.325  0.00  0.00    +0.127 C 
BRANCH  22  25
ATOM      6  O   UNL     1       0.040 -13.671  -0.229  0.00  0.00    -0.251 OA
ATOM     25  C   UNL     1       0.929 -14.230  -0.854  0.00  0.00    +0.305 C 
BRANCH  25   5
ATOM      5  O   UNL     1       1.179 -14.011  -2.171  0.00  0.00    -0.481 OA
ATOM     38  H   UNL     1       1.148 -13.057  -2.395  0.00  0.00    +0.295 HD
ENDBRANCH  25   5
ENDBRANCH  22  25
ENDBRANCH  11  22
ENDBRANCH  18  11
ENDBRANCH  24  18
ENDBRANCH  14   7
TORSDOF 8
ENDMDL
