MODEL 1
REMARK VINA RESULT:      -6.5      0.000      0.000
REMARK  Name = 11886323
REMARK  12 active torsions:
REMARK  status: ('A' for Active; 'I' for Inactive)
REMARK    1  A    between atoms: O_3  and  C_24
REMARK    2  A    between atoms: O_3  and  C_29
REMARK    3  A    between atoms: O_5  and  C_28
REMARK    4  A    between atoms: N_7  and  C_17
REMARK    5  A    between atoms: N_8  and  C_18
REMARK    6  A    between atoms: N_12  and  C_34
REMARK    7  A    between atoms: C_21  and  C_22
REMARK    8  A    between atoms: C_22  and  C_23
REMARK    9  A    between atoms: C_23  and  C_25
REMARK   10  A    between atoms: C_23  and  C_26
REMARK   11  A    between atoms: C_23  and  C_27
REMARK   12  A    between atoms: C_25  and  C_28
REMARK                            x       y       z     vdW  Elec       q    Type
REMARK                         _______ _______ _______ _____ _____    ______ ____
ROOT
ATOM      1  O   UNL     1      11.516   8.734   4.654  0.00  0.00    -0.370 OA
ATOM      2  O   UNL     1      13.729   7.295   6.364  0.00  0.00    -0.370 OA
ATOM     15  C   UNL     1      12.905   6.899   5.256  0.00  0.00    +0.171 C 
ATOM     16  C   UNL     1      11.541   7.533   5.448  0.00  0.00    +0.176 C 
ATOM     17  C   UNL     1      13.423   7.507   3.973  0.00  0.00    +0.130 C 
ATOM     18  C   UNL     1      11.484   7.888   6.921  0.00  0.00    +0.171 C 
ATOM     19  C   UNL     1      12.773   8.878   3.978  0.00  0.00    +0.185 C 
ATOM     20  C   UNL     1      12.953   8.071   7.286  0.00  0.00    +0.190 C 
ENDROOT
BRANCH  18   8
ATOM      8  N   UNL     1      10.769   6.884   7.714  0.00  0.00    -0.187 N 
ATOM      9  N   UNL     1      11.409   5.829   8.237  0.00  0.00    -0.041 NA
ATOM     10  N   UNL     1       9.243   5.757   8.764  0.00  0.00    -0.071 NA
ATOM     11  N   UNL     1      10.470   5.143   8.880  0.00  0.00    -0.020 NA
ATOM     24  C   UNL     1       9.451   6.832   8.041  0.00  0.00    +0.342 A 
BRANCH  24   3
ATOM      3  O   UNL     1       8.549   7.725   7.677  0.00  0.00    -0.423 OA
BRANCH   3  29
ATOM     29  C   UNL     1       8.331   8.069   6.350  0.00  0.00    +0.132 A 
ATOM     30  C   UNL     1       8.188   7.071   5.385  0.00  0.00    +0.048 A 
ATOM     31  C   UNL     1       8.258   9.412   5.981  0.00  0.00    +0.048 A 
ATOM     32  C   UNL     1       7.969   7.418   4.052  0.00  0.00    +0.031 A 
ATOM     33  C   UNL     1       8.039   9.758   4.647  0.00  0.00    +0.031 A 
ATOM     34  C   UNL     1       7.895   8.761   3.683  0.00  0.00    +0.067 A 
BRANCH  34  12
ATOM     12  N   UNL     1       7.679   9.104   2.360  0.00  0.00    -0.220 N 
ATOM     13  N   UNL     1       6.541   9.690   1.960  0.00  0.00    -0.154 NA
ATOM     14  N   UNL     1       7.981   9.368   0.213  0.00  0.00    -0.222 NA
ATOM     35  C   UNL     1       8.530   8.916   1.316  0.00  0.00    +0.225 A 
ATOM     36  C   UNL     1       6.774   9.829   0.653  0.00  0.00    +0.245 A 
ENDBRANCH  34  12
ENDBRANCH   3  29
ENDBRANCH  24   3
ENDBRANCH  18   8
BRANCH  17   7
ATOM      4  O   UNL     1      15.121   6.448   1.905  0.00  0.00    -0.276 OA
ATOM      7  N   UNL     1      13.010   6.737   2.825  0.00  0.00    -0.308 N 
ATOM     21  C   UNL     1      13.905   6.268   1.878  0.00  0.00    +0.214 C 
ATOM     37  H   UNL     1      12.028   6.489   2.745  0.00  0.00    +0.149 HD
BRANCH  21  22
ATOM     22  C   UNL     1      13.237   5.478   0.764  0.00  0.00    +0.102 C 
BRANCH  22  23
ATOM     23  C   UNL     1      13.167   3.948   1.002  0.00  0.00    -0.017 C 
ATOM     26  C   UNL     1      14.521   3.497   1.590  0.00  0.00    +0.012 C 
ATOM     27  C   UNL     1      12.971   3.203  -0.334  0.00  0.00    +0.012 C 
BRANCH  23  25
ATOM     25  C   UNL     1      12.013   3.540   1.950  0.00  0.00    +0.127 C 
BRANCH  25  28
ATOM      6  O   UNL     1       9.967   4.074   0.771  0.00  0.00    -0.251 OA
ATOM     28  C   UNL     1      10.712   4.278   1.721  0.00  0.00    +0.305 C 
BRANCH  28   5
ATOM      5  O   UNL     1      10.454   5.202   2.679  0.00  0.00    -0.481 OA
ATOM     38  H   UNL     1       9.913   4.832   3.409  0.00  0.00    +0.295 HD
ENDBRANCH  28   5
ENDBRANCH  25  28
ENDBRANCH  23  25
ENDBRANCH  22  23
ENDBRANCH  21  22
ENDBRANCH  17   7
TORSDOF 10
ENDMDL
MODEL 2
REMARK VINA RESULT:      -6.2     24.815     27.072
REMARK  Name = 11886323
REMARK  12 active torsions:
REMARK  status: ('A' for Active; 'I' for Inactive)
REMARK    1  A    between atoms: O_3  and  C_24
REMARK    2  A    between atoms: O_3  and  C_29
REMARK    3  A    between atoms: O_5  and  C_28
REMARK    4  A    between atoms: N_7  and  C_17
REMARK    5  A    between atoms: N_8  and  C_18
REMARK    6  A    between atoms: N_12  and  C_34
REMARK    7  A    between atoms: C_21  and  C_22
REMARK    8  A    between atoms: C_22  and  C_23
REMARK    9  A    between atoms: C_23  and  C_25
REMARK   10  A    between atoms: C_23  and  C_26
REMARK   11  A    between atoms: C_23  and  C_27
REMARK   12  A    between atoms: C_25  and  C_28
REMARK                            x       y       z     vdW  Elec       q    Type
REMARK                         _______ _______ _______ _____ _____    ______ ____
ROOT
ATOM      1  O   UNL     1      -4.095  -9.920  16.465  0.00  0.00    -0.370 OA
ATOM      2  O   UNL     1      -4.528 -12.936  17.246  0.00  0.00    -0.370 OA
ATOM     15  C   UNL     1      -4.999 -12.101  16.176  0.00  0.00    +0.171 C 
ATOM     16  C   UNL     1      -5.257 -10.721  16.749  0.00  0.00    +0.176 C 
ATOM     17  C   UNL     1      -3.903 -11.885  15.158  0.00  0.00    +0.130 C 
ATOM     18  C   UNL     1      -5.379 -10.941  18.245  0.00  0.00    +0.171 C 
ATOM     19  C   UNL     1      -3.140 -10.714  15.747  0.00  0.00    +0.185 C 
ATOM     20  C   UNL     1      -4.548 -12.198  18.475  0.00  0.00    +0.190 C 
ENDROOT
BRANCH  18   8
ATOM      8  N   UNL     1      -6.773 -11.029  18.688  0.00  0.00    -0.187 N 
ATOM      9  N   UNL     1      -7.173 -11.991  19.531  0.00  0.00    -0.041 NA
ATOM     10  N   UNL     1      -8.890 -10.676  18.990  0.00  0.00    -0.071 NA
ATOM     11  N   UNL     1      -8.470 -11.770  19.713  0.00  0.00    -0.020 NA
ATOM     24  C   UNL     1      -7.825 -10.233  18.365  0.00  0.00    +0.342 A 
BRANCH  24   3
ATOM      3  O   UNL     1      -7.762  -9.194  17.553  0.00  0.00    -0.423 OA
BRANCH   3  29
ATOM     29  C   UNL     1      -8.863  -8.727  16.848  0.00  0.00    +0.132 A 
ATOM     30  C   UNL     1      -9.124  -9.207  15.564  0.00  0.00    +0.048 A 
ATOM     31  C   UNL     1      -9.708  -7.779  17.423  0.00  0.00    +0.048 A 
ATOM     32  C   UNL     1     -10.230  -8.738  14.857  0.00  0.00    +0.031 A 
ATOM     33  C   UNL     1     -10.815  -7.310  16.715  0.00  0.00    +0.031 A 
ATOM     34  C   UNL     1     -11.075  -7.789  15.432  0.00  0.00    +0.067 A 
BRANCH  34  12
ATOM     12  N   UNL     1     -12.172  -7.324  14.729  0.00  0.00    -0.220 N 
ATOM     13  N   UNL     1     -12.692  -8.007  13.698  0.00  0.00    -0.154 NA
ATOM     14  N   UNL     1     -13.839  -6.067  14.085  0.00  0.00    -0.222 NA
ATOM     35  C   UNL     1     -12.860  -6.172  14.952  0.00  0.00    +0.225 A 
ATOM     36  C   UNL     1     -13.698  -7.205  13.344  0.00  0.00    +0.245 A 
ENDBRANCH  34  12
ENDBRANCH   3  29
ENDBRANCH  24   3
ENDBRANCH  18   8
BRANCH  17   7
ATOM      4  O   UNL     1      -2.750 -12.493  12.592  0.00  0.00    -0.276 OA
ATOM      7  N   UNL     1      -4.450 -11.555  13.864  0.00  0.00    -0.308 N 
ATOM     21  C   UNL     1      -3.819 -11.891  12.678  0.00  0.00    +0.214 C 
ATOM     37  H   UNL     1      -5.360 -11.105  13.831  0.00  0.00    +0.149 HD
BRANCH  21  22
ATOM     22  C   UNL     1      -4.587 -11.443  11.445  0.00  0.00    +0.102 C 
BRANCH  22  23
ATOM     23  C   UNL     1      -4.088 -10.118  10.812  0.00  0.00    -0.017 C 
ATOM     26  C   UNL     1      -4.266 -10.226   9.283  0.00  0.00    +0.012 C 
ATOM     27  C   UNL     1      -2.583  -9.922  11.090  0.00  0.00    +0.012 C 
BRANCH  23  25
ATOM     25  C   UNL     1      -4.838  -8.876  11.350  0.00  0.00    +0.127 C 
BRANCH  25  28
ATOM      6  O   UNL     1      -7.206  -9.314  11.087  0.00  0.00    -0.251 OA
ATOM     28  C   UNL     1      -6.248  -9.145  11.831  0.00  0.00    +0.305 C 
BRANCH  28   5
ATOM      5  O   UNL     1      -6.348  -9.172  13.183  0.00  0.00    -0.481 OA
ATOM     38  H   UNL     1      -7.281  -9.125  13.483  0.00  0.00    +0.295 HD
ENDBRANCH  28   5
ENDBRANCH  25  28
ENDBRANCH  23  25
ENDBRANCH  22  23
ENDBRANCH  21  22
ENDBRANCH  17   7
TORSDOF 10
ENDMDL
MODEL 3
REMARK VINA RESULT:      -6.1     35.720     37.524
REMARK  Name = 11886323
REMARK  12 active torsions:
REMARK  status: ('A' for Active; 'I' for Inactive)
REMARK    1  A    between atoms: O_3  and  C_24
REMARK    2  A    between atoms: O_3  and  C_29
REMARK    3  A    between atoms: O_5  and  C_28
REMARK    4  A    between atoms: N_7  and  C_17
REMARK    5  A    between atoms: N_8  and  C_18
REMARK    6  A    between atoms: N_12  and  C_34
REMARK    7  A    between atoms: C_21  and  C_22
REMARK    8  A    between atoms: C_22  and  C_23
REMARK    9  A    between atoms: C_23  and  C_25
REMARK   10  A    between atoms: C_23  and  C_26
REMARK   11  A    between atoms: C_23  and  C_27
REMARK   12  A    between atoms: C_25  and  C_28
REMARK                            x       y       z     vdW  Elec       q    Type
REMARK                         _______ _______ _______ _____ _____    ______ ____
ROOT
ATOM      1  O   UNL     1     -17.386   5.429  30.903  0.00  0.00    -0.370 OA
ATOM      2  O   UNL     1     -17.152   8.449  30.056  0.00  0.00    -0.370 OA
ATOM     15  C   UNL     1     -16.610   7.221  29.545  0.00  0.00    +0.171 C 
ATOM     16  C   UNL     1     -16.281   6.335  30.730  0.00  0.00    +0.176 C 
ATOM     17  C   UNL     1     -17.670   6.455  28.788  0.00  0.00    +0.130 C 
ATOM     18  C   UNL     1     -16.202   7.284  31.911  0.00  0.00    +0.171 C 
ATOM     19  C   UNL     1     -18.373   5.693  29.896  0.00  0.00    +0.185 C 
ATOM     20  C   UNL     1     -17.112   8.431  31.490  0.00  0.00    +0.190 C 
ENDROOT
BRANCH  18   8
ATOM      8  N   UNL     1     -14.825   7.669  32.232  0.00  0.00    -0.187 N 
ATOM      9  N   UNL     1     -14.292   8.801  31.750  0.00  0.00    -0.041 NA
ATOM     10  N   UNL     1     -12.805   7.725  33.016  0.00  0.00    -0.071 NA
ATOM     11  N   UNL     1     -13.055   8.830  32.234  0.00  0.00    -0.020 NA
ATOM     24  C   UNL     1     -13.913   7.021  33.002  0.00  0.00    +0.342 A 
BRANCH  24   3
ATOM      3  O   UNL     1     -14.127   5.875  33.620  0.00  0.00    -0.423 OA
BRANCH   3  29
ATOM     29  C   UNL     1     -14.184   4.662  32.947  0.00  0.00    +0.132 A 
ATOM     30  C   UNL     1     -15.255   3.794  33.165  0.00  0.00    +0.048 A 
ATOM     31  C   UNL     1     -13.171   4.311  32.056  0.00  0.00    +0.048 A 
ATOM     32  C   UNL     1     -15.312   2.575  32.490  0.00  0.00    +0.031 A 
ATOM     33  C   UNL     1     -13.228   3.091  31.381  0.00  0.00    +0.031 A 
ATOM     34  C   UNL     1     -14.299   2.224  31.598  0.00  0.00    +0.067 A 
BRANCH  34  12
ATOM     12  N   UNL     1     -14.355   1.014  30.929  0.00  0.00    -0.220 N 
ATOM     13  N   UNL     1     -13.526   0.729  29.914  0.00  0.00    -0.154 NA
ATOM     14  N   UNL     1     -14.961  -1.000  30.338  0.00  0.00    -0.222 NA
ATOM     35  C   UNL     1     -15.205  -0.019  31.175  0.00  0.00    +0.225 A 
ATOM     36  C   UNL     1     -13.933  -0.500  29.591  0.00  0.00    +0.245 A 
ENDBRANCH  34  12
ENDBRANCH   3  29
ENDBRANCH  24   3
ENDBRANCH  18   8
BRANCH  17   7
ATOM      4  O   UNL     1     -18.583   5.951  26.106  0.00  0.00    -0.276 OA
ATOM      7  N   UNL     1     -17.079   5.554  27.828  0.00  0.00    -0.308 N 
ATOM     21  C   UNL     1     -17.593   5.377  26.555  0.00  0.00    +0.214 C 
ATOM     37  H   UNL     1     -16.222   5.075  28.088  0.00  0.00    +0.149 HD
BRANCH  21  22
ATOM     22  C   UNL     1     -16.798   4.383  25.723  0.00  0.00    +0.102 C 
BRANCH  22  23
ATOM     23  C   UNL     1     -17.381   2.947  25.693  0.00  0.00    -0.017 C 
ATOM     26  C   UNL     1     -17.682   2.587  24.222  0.00  0.00    +0.012 C 
ATOM     27  C   UNL     1     -18.716   2.890  26.464  0.00  0.00    +0.012 C 
BRANCH  23  25
ATOM     25  C   UNL     1     -16.427   1.898  26.313  0.00  0.00    +0.127 C 
BRANCH  25  28
ATOM      6  O   UNL     1     -16.142   2.698  28.581  0.00  0.00    -0.251 OA
ATOM     28  C   UNL     1     -16.484   1.800  27.822  0.00  0.00    +0.305 C 
BRANCH  28   5
ATOM      5  O   UNL     1     -16.951   0.603  28.256  0.00  0.00    -0.481 OA
ATOM     38  H   UNL     1     -17.595   0.212  27.628  0.00  0.00    +0.295 HD
ENDBRANCH  28   5
ENDBRANCH  25  28
ENDBRANCH  23  25
ENDBRANCH  22  23
ENDBRANCH  21  22
ENDBRANCH  17   7
TORSDOF 10
ENDMDL
MODEL 4
REMARK VINA RESULT:      -6.1     13.429     17.009
REMARK  Name = 11886323
REMARK  12 active torsions:
REMARK  status: ('A' for Active; 'I' for Inactive)
REMARK    1  A    between atoms: O_3  and  C_24
REMARK    2  A    between atoms: O_3  and  C_29
REMARK    3  A    between atoms: O_5  and  C_28
REMARK    4  A    between atoms: N_7  and  C_17
REMARK    5  A    between atoms: N_8  and  C_18
REMARK    6  A    between atoms: N_12  and  C_34
REMARK    7  A    between atoms: C_21  and  C_22
REMARK    8  A    between atoms: C_22  and  C_23
REMARK    9  A    between atoms: C_23  and  C_25
REMARK   10  A    between atoms: C_23  and  C_26
REMARK   11  A    between atoms: C_23  and  C_27
REMARK   12  A    between atoms: C_25  and  C_28
REMARK                            x       y       z     vdW  Elec       q    Type
REMARK                         _______ _______ _______ _____ _____    ______ ____
ROOT
ATOM      1  O   UNL     1      16.042   8.822  19.739  0.00  0.00    -0.370 OA
ATOM      2  O   UNL     1      14.758   9.855  22.418  0.00  0.00    -0.370 OA
ATOM     15  C   UNL     1      15.556   8.714  22.065  0.00  0.00    +0.171 C 
ATOM     16  C   UNL     1      15.119   8.256  20.688  0.00  0.00    +0.176 C 
ATOM     17  C   UNL     1      17.001   9.120  21.884  0.00  0.00    +0.130 C 
ATOM     18  C   UNL     1      13.744   8.866  20.496  0.00  0.00    +0.171 C 
ATOM     19  C   UNL     1      17.026   9.594  20.443  0.00  0.00    +0.185 C 
ATOM     20  C   UNL     1      13.789  10.100  21.389  0.00  0.00    +0.190 C 
ENDROOT
BRANCH  18   8
ATOM      8  N   UNL     1      12.664   7.922  20.796  0.00  0.00    -0.187 N 
ATOM      9  N   UNL     1      12.045   7.931  21.984  0.00  0.00    -0.041 NA
ATOM     10  N   UNL     1      11.183   6.343  20.678  0.00  0.00    -0.071 NA
ATOM     11  N   UNL     1      11.139   6.963  21.907  0.00  0.00    -0.020 NA
ATOM     24  C   UNL     1      12.131   6.953  20.006  0.00  0.00    +0.342 A 
BRANCH  24   3
ATOM      3  O   UNL     1      12.522   6.686  18.774  0.00  0.00    -0.423 OA
BRANCH   3  29
ATOM     29  C   UNL     1      12.747   7.678  17.829  0.00  0.00    +0.132 A 
ATOM     30  C   UNL     1      13.997   7.788  17.219  0.00  0.00    +0.048 A 
ATOM     31  C   UNL     1      11.725   8.565  17.492  0.00  0.00    +0.048 A 
ATOM     32  C   UNL     1      14.223   8.785  16.270  0.00  0.00    +0.031 A 
ATOM     33  C   UNL     1      11.952   9.562  16.543  0.00  0.00    +0.031 A 
ATOM     34  C   UNL     1      13.201   9.672  15.933  0.00  0.00    +0.067 A 
BRANCH  34  12
ATOM     12  N   UNL     1      13.426  10.662  14.992  0.00  0.00    -0.220 N 
ATOM     13  N   UNL     1      12.459  11.081  14.163  0.00  0.00    -0.154 NA
ATOM     14  N   UNL     1      14.422  12.196  13.798  0.00  0.00    -0.222 NA
ATOM     35  C   UNL     1      14.590  11.329  14.769  0.00  0.00    +0.225 A 
ATOM     36  C   UNL     1      13.112  12.009  13.461  0.00  0.00    +0.245 A 
ENDBRANCH  34  12
ENDBRANCH   3  29
ENDBRANCH  24   3
ENDBRANCH  18   8
BRANCH  17   7
ATOM      4  O   UNL     1      19.820   9.230  22.451  0.00  0.00    -0.276 OA
ATOM      7  N   UNL     1      17.887   7.999  22.081  0.00  0.00    -0.308 N 
ATOM     21  C   UNL     1      19.237   8.152  22.351  0.00  0.00    +0.214 C 
ATOM     37  H   UNL     1      17.486   7.066  22.072  0.00  0.00    +0.149 HD
BRANCH  21  22
ATOM     22  C   UNL     1      19.965   6.829  22.525  0.00  0.00    +0.102 C 
BRANCH  22  23
ATOM     23  C   UNL     1      20.535   6.222  21.217  0.00  0.00    -0.017 C 
ATOM     26  C   UNL     1      19.344   5.747  20.357  0.00  0.00    +0.012 C 
ATOM     27  C   UNL     1      21.402   4.985  21.529  0.00  0.00    +0.012 C 
BRANCH  23  25
ATOM     25  C   UNL     1      21.402   7.224  20.418  0.00  0.00    +0.127 C 
BRANCH  25  28
ATOM      6  O   UNL     1      23.804   6.950  20.572  0.00  0.00    -0.251 OA
ATOM     28  C   UNL     1      22.780   7.472  20.994  0.00  0.00    +0.305 C 
BRANCH  28   5
ATOM      5  O   UNL     1      22.766   8.333  22.041  0.00  0.00    -0.481 OA
ATOM     38  H   UNL     1      22.553   9.249  21.760  0.00  0.00    +0.295 HD
ENDBRANCH  28   5
ENDBRANCH  25  28
ENDBRANCH  23  25
ENDBRANCH  22  23
ENDBRANCH  21  22
ENDBRANCH  17   7
TORSDOF 10
ENDMDL
MODEL 5
REMARK VINA RESULT:      -6.1     28.709     32.447
REMARK  Name = 11886323
REMARK  12 active torsions:
REMARK  status: ('A' for Active; 'I' for Inactive)
REMARK    1  A    between atoms: O_3  and  C_24
REMARK    2  A    between atoms: O_3  and  C_29
REMARK    3  A    between atoms: O_5  and  C_28
REMARK    4  A    between atoms: N_7  and  C_17
REMARK    5  A    between atoms: N_8  and  C_18
REMARK    6  A    between atoms: N_12  and  C_34
REMARK    7  A    between atoms: C_21  and  C_22
REMARK    8  A    between atoms: C_22  and  C_23
REMARK    9  A    between atoms: C_23  and  C_25
REMARK   10  A    between atoms: C_23  and  C_26
REMARK   11  A    between atoms: C_23  and  C_27
REMARK   12  A    between atoms: C_25  and  C_28
REMARK                            x       y       z     vdW  Elec       q    Type
REMARK                         _______ _______ _______ _____ _____    ______ ____
ROOT
ATOM      1  O   UNL     1     -15.332   7.594  22.521  0.00  0.00    -0.370 OA
ATOM      2  O   UNL     1     -13.649   4.944  22.715  0.00  0.00    -0.370 OA
ATOM     15  C   UNL     1     -14.242   5.677  21.631  0.00  0.00    +0.171 C 
ATOM     16  C   UNL     1     -15.565   6.232  22.120  0.00  0.00    +0.176 C 
ATOM     17  C   UNL     1     -13.417   6.902  21.313  0.00  0.00    +0.130 C 
ATOM     18  C   UNL     1     -15.912   5.390  23.333  0.00  0.00    +0.171 C 
ATOM     19  C   UNL     1     -13.952   7.919  22.304  0.00  0.00    +0.185 C 
ATOM     20  C   UNL     1     -14.548   4.931  23.833  0.00  0.00    +0.190 C 
ENDROOT
BRANCH  18   8
ATOM      8  N   UNL     1     -16.852   4.311  23.018  0.00  0.00    -0.187 N 
ATOM      9  N   UNL     1     -16.902   3.769  21.793  0.00  0.00    -0.041 NA
ATOM     10  N   UNL     1     -18.395   2.791  23.129  0.00  0.00    -0.071 NA
ATOM     11  N   UNL     1     -17.847   2.840  21.866  0.00  0.00    -0.020 NA
ATOM     24  C   UNL     1     -17.765   3.708  23.825  0.00  0.00    +0.342 A 
BRANCH  24   3
ATOM      3  O   UNL     1     -17.967   4.014  25.093  0.00  0.00    -0.423 OA
BRANCH   3  29
ATOM     29  C   UNL     1     -17.342   3.339  26.133  0.00  0.00    +0.132 A 
ATOM     30  C   UNL     1     -17.422   1.948  26.209  0.00  0.00    +0.048 A 
ATOM     31  C   UNL     1     -16.637   4.052  27.102  0.00  0.00    +0.048 A 
ATOM     32  C   UNL     1     -16.795   1.271  27.255  0.00  0.00    +0.031 A 
ATOM     33  C   UNL     1     -16.010   3.374  28.148  0.00  0.00    +0.031 A 
ATOM     34  C   UNL     1     -16.089   1.984  28.224  0.00  0.00    +0.067 A 
BRANCH  34  12
ATOM     12  N   UNL     1     -15.468   1.312  29.262  0.00  0.00    -0.220 N 
ATOM     13  N   UNL     1     -15.634   1.679  30.541  0.00  0.00    -0.154 NA
ATOM     14  N   UNL     1     -14.246  -0.128  30.359  0.00  0.00    -0.222 NA
ATOM     35  C   UNL     1     -14.641   0.236  29.162  0.00  0.00    +0.225 A 
ATOM     36  C   UNL     1     -14.874   0.777  31.165  0.00  0.00    +0.245 A 
ENDBRANCH  34  12
ENDBRANCH   3  29
ENDBRANCH  24   3
ENDBRANCH  18   8
BRANCH  17   7
ATOM      4  O   UNL     1     -11.391   7.581  19.384  0.00  0.00    -0.276 OA
ATOM      7  N   UNL     1     -13.628   7.336  19.953  0.00  0.00    -0.308 N 
ATOM     21  C   UNL     1     -12.585   7.642  19.096  0.00  0.00    +0.214 C 
ATOM     37  H   UNL     1     -14.582   7.364  19.603  0.00  0.00    +0.149 HD
BRANCH  21  22
ATOM     22  C   UNL     1     -13.053   8.070  17.714  0.00  0.00    +0.102 C 
BRANCH  22  23
ATOM     23  C   UNL     1     -12.585   9.482  17.276  0.00  0.00    -0.017 C 
ATOM     26  C   UNL     1     -12.797  10.442  18.466  0.00  0.00    +0.012 C 
ATOM     27  C   UNL     1     -13.450   9.997  16.107  0.00  0.00    +0.012 C 
BRANCH  23  25
ATOM     25  C   UNL     1     -11.105   9.512  16.825  0.00  0.00    +0.127 C 
BRANCH  25  28
ATOM      6  O   UNL     1     -10.833   8.374  14.704  0.00  0.00    -0.251 OA
ATOM     28  C   UNL     1     -10.694   8.370  15.921  0.00  0.00    +0.305 C 
BRANCH  28   5
ATOM      5  O   UNL     1     -10.155   7.327  16.600  0.00  0.00    -0.481 OA
ATOM     38  H   UNL     1      -9.365   6.963  16.147  0.00  0.00    +0.295 HD
ENDBRANCH  28   5
ENDBRANCH  25  28
ENDBRANCH  23  25
ENDBRANCH  22  23
ENDBRANCH  21  22
ENDBRANCH  17   7
TORSDOF 10
ENDMDL
MODEL 6
REMARK VINA RESULT:      -6.0     24.423     27.193
REMARK  Name = 11886323
REMARK  12 active torsions:
REMARK  status: ('A' for Active; 'I' for Inactive)
REMARK    1  A    between atoms: O_3  and  C_24
REMARK    2  A    between atoms: O_3  and  C_29
REMARK    3  A    between atoms: O_5  and  C_28
REMARK    4  A    between atoms: N_7  and  C_17
REMARK    5  A    between atoms: N_8  and  C_18
REMARK    6  A    between atoms: N_12  and  C_34
REMARK    7  A    between atoms: C_21  and  C_22
REMARK    8  A    between atoms: C_22  and  C_23
REMARK    9  A    between atoms: C_23  and  C_25
REMARK   10  A    between atoms: C_23  and  C_26
REMARK   11  A    between atoms: C_23  and  C_27
REMARK   12  A    between atoms: C_25  and  C_28
REMARK                            x       y       z     vdW  Elec       q    Type
REMARK                         _______ _______ _______ _____ _____    ______ ____
ROOT
ATOM      1  O   UNL     1      -6.853 -12.030  16.488  0.00  0.00    -0.370 OA
ATOM      2  O   UNL     1      -4.907 -11.110  18.782  0.00  0.00    -0.370 OA
ATOM     15  C   UNL     1      -5.747 -10.419  17.844  0.00  0.00    +0.171 C 
ATOM     16  C   UNL     1      -5.694 -11.177  16.533  0.00  0.00    +0.176 C 
ATOM     17  C   UNL     1      -7.195 -10.509  18.270  0.00  0.00    +0.130 C 
ATOM     18  C   UNL     1      -4.437 -12.020  16.625  0.00  0.00    +0.171 C 
ATOM     19  C   UNL     1      -7.623 -11.841  17.684  0.00  0.00    +0.185 C 
ATOM     20  C   UNL     1      -4.263 -12.211  18.127  0.00  0.00    +0.190 C 
ENDROOT
BRANCH  18   8
ATOM      8  N   UNL     1      -3.296 -11.406  15.941  0.00  0.00    -0.187 N 
ATOM      9  N   UNL     1      -2.398 -10.672  16.613  0.00  0.00    -0.041 NA
ATOM     10  N   UNL     1      -1.859 -10.761  14.451  0.00  0.00    -0.071 NA
ATOM     11  N   UNL     1      -1.520 -10.281  15.696  0.00  0.00    -0.020 NA
ATOM     24  C   UNL     1      -2.959 -11.455  14.626  0.00  0.00    +0.342 A 
BRANCH  24   3
ATOM      3  O   UNL     1      -3.643 -12.098  13.697  0.00  0.00    -0.423 OA
BRANCH   3  29
ATOM     29  C   UNL     1      -4.281 -11.444  12.652  0.00  0.00    +0.132 A 
ATOM     30  C   UNL     1      -5.377 -10.619  12.911  0.00  0.00    +0.048 A 
ATOM     31  C   UNL     1      -3.829 -11.614  11.344  0.00  0.00    +0.048 A 
ATOM     32  C   UNL     1      -6.018  -9.964  11.861  0.00  0.00    +0.031 A 
ATOM     33  C   UNL     1      -4.471 -10.957  10.293  0.00  0.00    +0.031 A 
ATOM     34  C   UNL     1      -5.566 -10.133  10.552  0.00  0.00    +0.067 A 
BRANCH  34  12
ATOM     12  N   UNL     1      -6.203  -9.482   9.511  0.00  0.00    -0.220 N 
ATOM     13  N   UNL     1      -6.038  -9.862   8.235  0.00  0.00    -0.154 NA
ATOM     14  N   UNL     1      -7.458  -8.077   8.404  0.00  0.00    -0.222 NA
ATOM     35  C   UNL     1      -7.049  -8.421   9.603  0.00  0.00    +0.225 A 
ATOM     36  C   UNL     1      -6.817  -8.980   7.605  0.00  0.00    +0.245 A 
ENDBRANCH  34  12
ENDBRANCH   3  29
ENDBRANCH  24   3
ENDBRANCH  18   8
BRANCH  17   7
ATOM      4  O   UNL     1      -9.961  -9.921  18.804  0.00  0.00    -0.276 OA
ATOM      7  N   UNL     1      -7.970  -9.422  17.721  0.00  0.00    -0.308 N 
ATOM     21  C   UNL     1      -9.302  -9.220  18.039  0.00  0.00    +0.214 C 
ATOM     37  H   UNL     1      -7.496  -8.754  17.120  0.00  0.00    +0.149 HD
BRANCH  21  22
ATOM     22  C   UNL     1      -9.905  -8.010  17.343  0.00  0.00    +0.102 C 
BRANCH  22  23
ATOM     23  C   UNL     1     -10.873  -8.344  16.178  0.00  0.00    -0.017 C 
ATOM     26  C   UNL     1     -10.887  -7.140  15.213  0.00  0.00    +0.012 C 
ATOM     27  C   UNL     1     -12.310  -8.528  16.708  0.00  0.00    +0.012 C 
BRANCH  23  25
ATOM     25  C   UNL     1     -10.475  -9.632  15.418  0.00  0.00    +0.127 C 
BRANCH  25  28
ATOM      6  O   UNL     1      -9.792  -9.457  13.101  0.00  0.00    -0.251 OA
ATOM     28  C   UNL     1      -9.491  -9.424  14.287  0.00  0.00    +0.305 C 
BRANCH  28   5
ATOM      5  O   UNL     1      -8.226  -9.203  14.723  0.00  0.00    -0.481 OA
ATOM     38  H   UNL     1      -7.955  -8.268  14.604  0.00  0.00    +0.295 HD
ENDBRANCH  28   5
ENDBRANCH  25  28
ENDBRANCH  23  25
ENDBRANCH  22  23
ENDBRANCH  21  22
ENDBRANCH  17   7
TORSDOF 10
ENDMDL
MODEL 7
REMARK VINA RESULT:      -6.0     23.370     25.905
REMARK  Name = 11886323
REMARK  12 active torsions:
REMARK  status: ('A' for Active; 'I' for Inactive)
REMARK    1  A    between atoms: O_3  and  C_24
REMARK    2  A    between atoms: O_3  and  C_29
REMARK    3  A    between atoms: O_5  and  C_28
REMARK    4  A    between atoms: N_7  and  C_17
REMARK    5  A    between atoms: N_8  and  C_18
REMARK    6  A    between atoms: N_12  and  C_34
REMARK    7  A    between atoms: C_21  and  C_22
REMARK    8  A    between atoms: C_22  and  C_23
REMARK    9  A    between atoms: C_23  and  C_25
REMARK   10  A    between atoms: C_23  and  C_26
REMARK   11  A    between atoms: C_23  and  C_27
REMARK   12  A    between atoms: C_25  and  C_28
REMARK                            x       y       z     vdW  Elec       q    Type
REMARK                         _______ _______ _______ _____ _____    ______ ____
ROOT
ATOM      1  O   UNL     1      -4.772 -12.508  14.229  0.00  0.00    -0.370 OA
ATOM      2  O   UNL     1      -1.897 -11.509  15.023  0.00  0.00    -0.370 OA
ATOM     15  C   UNL     1      -3.214 -10.942  15.111  0.00  0.00    +0.171 C 
ATOM     16  C   UNL     1      -3.979 -11.361  13.871  0.00  0.00    +0.176 C 
ATOM     17  C   UNL     1      -3.980 -11.570  16.254  0.00  0.00    +0.130 C 
ATOM     18  C   UNL     1      -2.909 -11.764  12.875  0.00  0.00    +0.171 C 
ATOM     19  C   UNL     1      -4.552 -12.820  15.611  0.00  0.00    +0.185 C 
ATOM     20  C   UNL     1      -1.752 -12.191  13.770  0.00  0.00    +0.190 C 
ENDROOT
BRANCH  18   8
ATOM      8  N   UNL     1      -2.595 -10.694  11.924  0.00  0.00    -0.187 N 
ATOM      9  N   UNL     1      -1.424 -10.043  11.974  0.00  0.00    -0.041 NA
ATOM     10  N   UNL     1      -2.679  -9.247  10.311  0.00  0.00    -0.071 NA
ATOM     11  N   UNL     1      -1.481  -9.159  10.984  0.00  0.00    -0.020 NA
ATOM     24  C   UNL     1      -3.352 -10.203  10.908  0.00  0.00    +0.342 A 
BRANCH  24   3
ATOM      3  O   UNL     1      -4.561 -10.631  10.595  0.00  0.00    -0.423 OA
BRANCH   3  29
ATOM     29  C   UNL     1      -5.298 -10.090   9.550  0.00  0.00    +0.132 A 
ATOM     30  C   UNL     1      -6.211  -9.065   9.799  0.00  0.00    +0.048 A 
ATOM     31  C   UNL     1      -5.127 -10.573   8.254  0.00  0.00    +0.048 A 
ATOM     32  C   UNL     1      -6.952  -8.523   8.749  0.00  0.00    +0.031 A 
ATOM     33  C   UNL     1      -5.868 -10.030   7.204  0.00  0.00    +0.031 A 
ATOM     34  C   UNL     1      -6.781  -9.006   7.452  0.00  0.00    +0.067 A 
BRANCH  34  12
ATOM     12  N   UNL     1      -7.517  -8.468   6.411  0.00  0.00    -0.220 N 
ATOM     13  N   UNL     1      -8.643  -7.772   6.629  0.00  0.00    -0.154 NA
ATOM     14  N   UNL     1      -8.161  -7.917   4.398  0.00  0.00    -0.222 NA
ATOM     35  C   UNL     1      -7.237  -8.549   5.083  0.00  0.00    +0.225 A 
ATOM     36  C   UNL     1      -8.994  -7.461   5.379  0.00  0.00    +0.245 A 
ENDBRANCH  34  12
ENDBRANCH   3  29
ENDBRANCH  24   3
ENDBRANCH  18   8
BRANCH  17   7
ATOM      4  O   UNL     1      -5.775 -12.054  18.450  0.00  0.00    -0.276 OA
ATOM      7  N   UNL     1      -5.029 -10.696  16.722  0.00  0.00    -0.308 N 
ATOM     21  C   UNL     1      -5.846 -11.018  17.793  0.00  0.00    +0.214 C 
ATOM     37  H   UNL     1      -5.129  -9.789  16.276  0.00  0.00    +0.149 HD
BRANCH  21  22
ATOM     22  C   UNL     1      -6.873  -9.941  18.105  0.00  0.00    +0.102 C 
BRANCH  22  23
ATOM     23  C   UNL     1      -8.269 -10.169  17.471  0.00  0.00    -0.017 C 
ATOM     26  C   UNL     1      -8.967  -8.798  17.353  0.00  0.00    +0.012 C 
ATOM     27  C   UNL     1      -9.139 -11.053  18.387  0.00  0.00    +0.012 C 
BRANCH  23  25
ATOM     25  C   UNL     1      -8.194 -10.849  16.082  0.00  0.00    +0.127 C 
BRANCH  25  28
ATOM      6  O   UNL     1      -9.047  -9.567  14.213  0.00  0.00    -0.251 OA
ATOM     28  C   UNL     1      -8.097  -9.895  14.912  0.00  0.00    +0.305 C 
BRANCH  28   5
ATOM      5  O   UNL     1      -6.836  -9.439  14.706  0.00  0.00    -0.481 OA
ATOM     38  H   UNL     1      -6.557  -8.805  15.400  0.00  0.00    +0.295 HD
ENDBRANCH  28   5
ENDBRANCH  25  28
ENDBRANCH  23  25
ENDBRANCH  22  23
ENDBRANCH  21  22
ENDBRANCH  17   7
TORSDOF 10
ENDMDL
MODEL 8
REMARK VINA RESULT:      -6.0     33.623     36.636
REMARK  Name = 11886323
REMARK  12 active torsions:
REMARK  status: ('A' for Active; 'I' for Inactive)
REMARK    1  A    between atoms: O_3  and  C_24
REMARK    2  A    between atoms: O_3  and  C_29
REMARK    3  A    between atoms: O_5  and  C_28
REMARK    4  A    between atoms: N_7  and  C_17
REMARK    5  A    between atoms: N_8  and  C_18
REMARK    6  A    between atoms: N_12  and  C_34
REMARK    7  A    between atoms: C_21  and  C_22
REMARK    8  A    between atoms: C_22  and  C_23
REMARK    9  A    between atoms: C_23  and  C_25
REMARK   10  A    between atoms: C_23  and  C_26
REMARK   11  A    between atoms: C_23  and  C_27
REMARK   12  A    between atoms: C_25  and  C_28
REMARK                            x       y       z     vdW  Elec       q    Type
REMARK                         _______ _______ _______ _____ _____    ______ ____
ROOT
ATOM      1  O   UNL     1     -15.858   5.147  31.466  0.00  0.00    -0.370 OA
ATOM      2  O   UNL     1     -14.417   3.347  33.605  0.00  0.00    -0.370 OA
ATOM     15  C   UNL     1     -13.961   4.238  32.575  0.00  0.00    +0.171 C 
ATOM     16  C   UNL     1     -14.891   4.084  31.388  0.00  0.00    +0.176 C 
ATOM     17  C   UNL     1     -14.140   5.676  33.007  0.00  0.00    +0.130 C 
ATOM     18  C   UNL     1     -15.575   2.748  31.605  0.00  0.00    +0.171 C 
ATOM     19  C   UNL     1     -15.580   5.953  32.620  0.00  0.00    +0.185 C 
ATOM     20  C   UNL     1     -15.527   2.580  33.118  0.00  0.00    +0.190 C 
ENDROOT
BRANCH  18   8
ATOM      8  N   UNL     1     -14.949   1.666  30.840  0.00  0.00    -0.187 N 
ATOM      9  N   UNL     1     -13.769   1.148  31.209  0.00  0.00    -0.041 NA
ATOM     10  N   UNL     1     -14.518   0.128  29.373  0.00  0.00    -0.071 NA
ATOM     11  N   UNL     1     -13.510   0.208  30.308  0.00  0.00    -0.020 NA
ATOM     24  C   UNL     1     -15.398   1.038  29.722  0.00  0.00    +0.342 A 
BRANCH  24   3
ATOM      3  O   UNL     1     -16.531   1.316  29.105  0.00  0.00    -0.423 OA
BRANCH   3  29
ATOM     29  C   UNL     1     -16.575   1.863  27.830  0.00  0.00    +0.132 A 
ATOM     30  C   UNL     1     -16.884   1.054  26.735  0.00  0.00    +0.048 A 
ATOM     31  C   UNL     1     -16.307   3.218  27.643  0.00  0.00    +0.048 A 
ATOM     32  C   UNL     1     -16.927   1.604  25.455  0.00  0.00    +0.031 A 
ATOM     33  C   UNL     1     -16.350   3.767  26.361  0.00  0.00    +0.031 A 
ATOM     34  C   UNL     1     -16.660   2.960  25.267  0.00  0.00    +0.067 A 
BRANCH  34  12
ATOM     12  N   UNL     1     -16.701   3.504  23.996  0.00  0.00    -0.220 N 
ATOM     13  N   UNL     1     -16.032   4.623  23.685  0.00  0.00    -0.154 NA
ATOM     14  N   UNL     1     -17.183   3.805  21.886  0.00  0.00    -0.222 NA
ATOM     35  C   UNL     1     -17.383   3.023  22.921  0.00  0.00    +0.225 A 
ATOM     36  C   UNL     1     -16.356   4.764  22.398  0.00  0.00    +0.245 A 
ENDBRANCH  34  12
ENDBRANCH   3  29
ENDBRANCH  24   3
ENDBRANCH  18   8
BRANCH  17   7
ATOM      4  O   UNL     1     -13.071   8.174  33.954  0.00  0.00    -0.276 OA
ATOM      7  N   UNL     1     -13.232   6.550  32.304  0.00  0.00    -0.308 N 
ATOM     21  C   UNL     1     -12.771   7.738  32.844  0.00  0.00    +0.214 C 
ATOM     37  H   UNL     1     -12.882   6.247  31.400  0.00  0.00    +0.149 HD
BRANCH  21  22
ATOM     22  C   UNL     1     -11.821   8.485  31.921  0.00  0.00    +0.102 C 
BRANCH  22  23
ATOM     23  C   UNL     1     -12.405   9.777  31.294  0.00  0.00    -0.017 C 
ATOM     26  C   UNL     1     -11.688  10.018  29.949  0.00  0.00    +0.012 C 
ATOM     27  C   UNL     1     -12.114  10.994  32.197  0.00  0.00    +0.012 C 
BRANCH  23  25
ATOM     25  C   UNL     1     -13.936   9.700  31.076  0.00  0.00    +0.127 C 
BRANCH  25  28
ATOM      6  O   UNL     1     -14.566  11.870  30.202  0.00  0.00    -0.251 OA
ATOM     28  C   UNL     1     -14.478  10.660  30.038  0.00  0.00    +0.305 C 
BRANCH  28   5
ATOM      5  O   UNL     1     -14.870  10.037  28.899  0.00  0.00    -0.481 OA
ATOM     38  H   UNL     1     -15.152   9.113  29.064  0.00  0.00    +0.295 HD
ENDBRANCH  28   5
ENDBRANCH  25  28
ENDBRANCH  23  25
ENDBRANCH  22  23
ENDBRANCH  21  22
ENDBRANCH  17   7
TORSDOF 10
ENDMDL
MODEL 9
REMARK VINA RESULT:      -5.9     24.050     26.609
REMARK  Name = 11886323
REMARK  12 active torsions:
REMARK  status: ('A' for Active; 'I' for Inactive)
REMARK    1  A    between atoms: O_3  and  C_24
REMARK    2  A    between atoms: O_3  and  C_29
REMARK    3  A    between atoms: O_5  and  C_28
REMARK    4  A    between atoms: N_7  and  C_17
REMARK    5  A    between atoms: N_8  and  C_18
REMARK    6  A    between atoms: N_12  and  C_34
REMARK    7  A    between atoms: C_21  and  C_22
REMARK    8  A    between atoms: C_22  and  C_23
REMARK    9  A    between atoms: C_23  and  C_25
REMARK   10  A    between atoms: C_23  and  C_26
REMARK   11  A    between atoms: C_23  and  C_27
REMARK   12  A    between atoms: C_25  and  C_28
REMARK                            x       y       z     vdW  Elec       q    Type
REMARK                         _______ _______ _______ _____ _____    ______ ____
ROOT
ATOM      1  O   UNL     1      -7.023 -11.573  15.197  0.00  0.00    -0.370 OA
ATOM      2  O   UNL     1      -4.767 -10.255  16.948  0.00  0.00    -0.370 OA
ATOM     15  C   UNL     1      -5.790  -9.741  16.080  0.00  0.00    +0.171 C 
ATOM     16  C   UNL     1      -5.921 -10.693  14.908  0.00  0.00    +0.176 C 
ATOM     17  C   UNL     1      -7.137  -9.801  16.764  0.00  0.00    +0.130 C 
ATOM     18  C   UNL     1      -4.623 -11.478  14.902  0.00  0.00    +0.171 C 
ATOM     19  C   UNL     1      -7.587 -11.219  16.469  0.00  0.00    +0.185 C 
ATOM     20  C   UNL     1      -4.185 -11.427  16.361  0.00  0.00    +0.190 C 
ENDROOT
BRANCH  18   8
ATOM      8  N   UNL     1      -3.650 -10.948  13.943  0.00  0.00    -0.187 N 
ATOM      9  N   UNL     1      -2.498 -10.402  14.355  0.00  0.00    -0.041 NA
ATOM     10  N   UNL     1      -2.626 -10.348  12.129  0.00  0.00    -0.071 NA
ATOM     11  N   UNL     1      -1.874 -10.037  13.240  0.00  0.00    -0.020 NA
ATOM     24  C   UNL     1      -3.719 -10.911  12.587  0.00  0.00    +0.342 A 
BRANCH  24   3
ATOM      3  O   UNL     1      -4.729 -11.370  11.871  0.00  0.00    -0.423 OA
BRANCH   3  29
ATOM     29  C   UNL     1      -5.381 -10.599  10.918  0.00  0.00    +0.132 A 
ATOM     30  C   UNL     1      -5.124 -10.804   9.562  0.00  0.00    +0.048 A 
ATOM     31  C   UNL     1      -6.290  -9.620  11.316  0.00  0.00    +0.048 A 
ATOM     32  C   UNL     1      -5.779 -10.029   8.605  0.00  0.00    +0.031 A 
ATOM     33  C   UNL     1      -6.945  -8.845  10.358  0.00  0.00    +0.031 A 
ATOM     34  C   UNL     1      -6.689  -9.050   9.003  0.00  0.00    +0.067 A 
BRANCH  34  12
ATOM     12  N   UNL     1      -7.337  -8.281   8.053  0.00  0.00    -0.220 N 
ATOM     13  N   UNL     1      -7.408  -8.659   6.768  0.00  0.00    -0.154 NA
ATOM     14  N   UNL     1      -8.467  -6.662   7.117  0.00  0.00    -0.222 NA
ATOM     35  C   UNL     1      -7.969  -7.094   8.252  0.00  0.00    +0.225 A 
ATOM     36  C   UNL     1      -8.102  -7.646   6.244  0.00  0.00    +0.245 A 
ENDBRANCH  34  12
ENDBRANCH   3  29
ENDBRANCH  24   3
ENDBRANCH  18   8
BRANCH  17   7
ATOM      4  O   UNL     1      -9.625  -8.916  17.908  0.00  0.00    -0.276 OA
ATOM      7  N   UNL     1      -8.051  -8.835  16.205  0.00  0.00    -0.308 N 
ATOM     21  C   UNL     1      -9.230  -8.472  16.832  0.00  0.00    +0.214 C 
ATOM     37  H   UNL     1      -7.784  -8.369  15.342  0.00  0.00    +0.149 HD
BRANCH  21  22
ATOM     22  C   UNL     1     -10.026  -7.434  16.056  0.00  0.00    +0.102 C 
BRANCH  22  23
ATOM     23  C   UNL     1     -11.321  -7.969  15.393  0.00  0.00    -0.017 C 
ATOM     26  C   UNL     1     -11.741  -6.968  14.296  0.00  0.00    +0.012 C 
ATOM     27  C   UNL     1     -12.467  -8.031  16.424  0.00  0.00    +0.012 C 
BRANCH  23  25
ATOM     25  C   UNL     1     -11.147  -9.382  14.787  0.00  0.00    +0.127 C 
BRANCH  25  28
ATOM      6  O   UNL     1     -10.953  -9.286  12.375  0.00  0.00    -0.251 OA
ATOM     28  C   UNL     1     -10.411  -9.420  13.465  0.00  0.00    +0.305 C 
BRANCH  28   5
ATOM      5  O   UNL     1      -9.079  -9.627  13.609  0.00  0.00    -0.481 OA
ATOM     38  H   UNL     1      -8.874 -10.157  14.409  0.00  0.00    +0.295 HD
ENDBRANCH  28   5
ENDBRANCH  25  28
ENDBRANCH  23  25
ENDBRANCH  22  23
ENDBRANCH  21  22
ENDBRANCH  17   7
TORSDOF 10
ENDMDL
MODEL 10
REMARK VINA RESULT:      -5.9      2.911      6.016
REMARK  Name = 11886323
REMARK  12 active torsions:
REMARK  status: ('A' for Active; 'I' for Inactive)
REMARK    1  A    between atoms: O_3  and  C_24
REMARK    2  A    between atoms: O_3  and  C_29
REMARK    3  A    between atoms: O_5  and  C_28
REMARK    4  A    between atoms: N_7  and  C_17
REMARK    5  A    between atoms: N_8  and  C_18
REMARK    6  A    between atoms: N_12  and  C_34
REMARK    7  A    between atoms: C_21  and  C_22
REMARK    8  A    between atoms: C_22  and  C_23
REMARK    9  A    between atoms: C_23  and  C_25
REMARK   10  A    between atoms: C_23  and  C_26
REMARK   11  A    between atoms: C_23  and  C_27
REMARK   12  A    between atoms: C_25  and  C_28
REMARK                            x       y       z     vdW  Elec       q    Type
REMARK                         _______ _______ _______ _____ _____    ______ ____
ROOT
ATOM      1  O   UNL     1      11.241   5.658   4.860  0.00  0.00    -0.370 OA
ATOM      2  O   UNL     1       8.515   6.956   3.980  0.00  0.00    -0.370 OA
ATOM     15  C   UNL     1       9.828   6.894   3.400  0.00  0.00    +0.171 C 
ATOM     16  C   UNL     1      10.835   6.998   4.529  0.00  0.00    +0.176 C 
ATOM     17  C   UNL     1      10.074   5.527   2.804  0.00  0.00    +0.130 C 
ATOM     18  C   UNL     1      10.058   7.602   5.683  0.00  0.00    +0.171 C 
ATOM     19  C   UNL     1      10.557   4.733   4.003  0.00  0.00    +0.185 C 
ATOM     20  C   UNL     1       8.625   7.175   5.393  0.00  0.00    +0.190 C 
ENDROOT
BRANCH  18   8
ATOM      8  N   UNL     1      10.263   9.048   5.803  0.00  0.00    -0.187 N 
ATOM      9  N   UNL     1       9.365   9.918   5.320  0.00  0.00    -0.041 NA
ATOM     10  N   UNL     1      11.070  11.009   6.254  0.00  0.00    -0.071 NA
ATOM     11  N   UNL     1       9.864  11.117   5.599  0.00  0.00    -0.020 NA
ATOM     24  C   UNL     1      11.297   9.722   6.371  0.00  0.00    +0.342 A 
BRANCH  24   3
ATOM      3  O   UNL     1      12.346   9.154   6.936  0.00  0.00    -0.423 OA
BRANCH   3  29
ATOM     29  C   UNL     1      13.549   8.971   6.267  0.00  0.00    +0.132 A 
ATOM     30  C   UNL     1      14.367   7.886   6.588  0.00  0.00    +0.048 A 
ATOM     31  C   UNL     1      13.939   9.871   5.277  0.00  0.00    +0.048 A 
ATOM     32  C   UNL     1      15.575   7.703   5.917  0.00  0.00    +0.031 A 
ATOM     33  C   UNL     1      15.149   9.687   4.605  0.00  0.00    +0.031 A 
ATOM     34  C   UNL     1      15.966   8.603   4.926  0.00  0.00    +0.067 A 
BRANCH  34  12
ATOM     12  N   UNL     1      17.165   8.421   4.260  0.00  0.00    -0.220 N 
ATOM     13  N   UNL     1      18.309   8.182   4.919  0.00  0.00    -0.154 NA
ATOM     14  N   UNL     1      18.638   8.236   2.657  0.00  0.00    -0.222 NA
ATOM     35  C   UNL     1      17.369   8.452   2.916  0.00  0.00    +0.225 A 
ATOM     36  C   UNL     1      19.169   8.077   3.905  0.00  0.00    +0.245 A 
ENDBRANCH  34  12
ENDBRANCH   3  29
ENDBRANCH  24   3
ENDBRANCH  18   8
BRANCH  17   7
ATOM      4  O   UNL     1       9.953   4.287   0.210  0.00  0.00    -0.276 OA
ATOM      7  N   UNL     1      11.081   5.580   1.772  0.00  0.00    -0.308 N 
ATOM     21  C   UNL     1      10.932   4.948   0.550  0.00  0.00    +0.214 C 
ATOM     37  H   UNL     1      11.906   6.150   1.939  0.00  0.00    +0.149 HD
BRANCH  21  22
ATOM     22  C   UNL     1      12.122   5.149  -0.376  0.00  0.00    +0.102 C 
BRANCH  22  23
ATOM     23  C   UNL     1      13.052   3.918  -0.519  0.00  0.00    -0.017 C 
ATOM     26  C   UNL     1      14.367   4.390  -1.176  0.00  0.00    +0.012 C 
ATOM     27  C   UNL     1      12.418   2.869  -1.455  0.00  0.00    +0.012 C 
BRANCH  23  25
ATOM     25  C   UNL     1      13.351   3.231   0.836  0.00  0.00    +0.127 C 
BRANCH  25  28
ATOM      6  O   UNL     1      14.204   5.120   2.089  0.00  0.00    -0.251 OA
ATOM     28  C   UNL     1      14.343   3.963   1.714  0.00  0.00    +0.305 C 
BRANCH  28   5
ATOM      5  O   UNL     1      15.418   3.203   2.042  0.00  0.00    -0.481 OA
ATOM     38  H   UNL     1      16.227   3.745   2.160  0.00  0.00    +0.295 HD
ENDBRANCH  28   5
ENDBRANCH  25  28
ENDBRANCH  23  25
ENDBRANCH  22  23
ENDBRANCH  21  22
ENDBRANCH  17   7
TORSDOF 10
ENDMDL
