MODEL 1
REMARK VINA RESULT:      -7.7      0.000      0.000
REMARK  Name = 45783788
REMARK  8 active torsions:
REMARK  status: ('A' for Active; 'I' for Inactive)
REMARK    1  A    between atoms: N_3  and  C_13
REMARK    2  A    between atoms: N_6  and  C_21
REMARK    3  A    between atoms: N_8  and  C_26
REMARK    4  A    between atoms: N_8  and  C_29
REMARK    5  A    between atoms: C_9  and  C_14
REMARK    6  A    between atoms: C_13  and  C_15
REMARK    7  A    between atoms: C_18  and  C_22
REMARK    8  A    between atoms: C_27  and  C_28
REMARK                            x       y       z     vdW  Elec       q    Type
REMARK                         _______ _______ _______ _____ _____    ______ ____
ROOT
ATOM      3  N   UNL     1      12.848   8.368  18.855  0.00  0.00    -0.287 NA
ATOM      9  C   UNL     1      13.919   7.432  18.457  0.00  0.00    +0.146 C 
ATOM     10  C   UNL     1      14.189   7.754  16.976  0.00  0.00    +0.030 C 
ATOM     11  C   UNL     1      13.183   8.837  16.614  0.00  0.00    +0.017 C 
ATOM     12  C   UNL     1      12.084   8.660  17.641  0.00  0.00    +0.085 C 
ENDROOT
BRANCH   9  14
ATOM      1  O   UNL     1      15.234   8.675  20.101  0.00  0.00    -0.336 OA
ATOM      4  N   UNL     1      16.184   6.762  19.428  0.00  0.00    -0.190 NA
ATOM      5  N   UNL     1      16.447   8.578  20.794  0.00  0.00    -0.056 NA
ATOM     14  C   UNL     1      15.158   7.565  19.320  0.00  0.00    +0.245 A 
ATOM     18  C   UNL     1      16.949   7.424  20.343  0.00  0.00    +0.204 A 
BRANCH  18  22
ATOM      7  N   UNL     1      20.062   7.028  22.338  0.00  0.00    -0.240 NA
ATOM     22  C   UNL     1      18.210   6.906  20.789  0.00  0.00    +0.041 A 
ATOM     23  C   UNL     1      18.806   5.825  20.149  0.00  0.00    +0.016 A 
ATOM     24  C   UNL     1      18.873   7.467  21.868  0.00  0.00    +0.124 A 
ATOM     25  C   UNL     1      20.030   5.344  20.604  0.00  0.00    +0.044 A 
ATOM     26  C   UNL     1      20.611   5.975  21.692  0.00  0.00    +0.118 A 
BRANCH  26   8
ATOM      8  N   UNL     1      21.857   5.473  22.143  0.00  0.00    -0.332 N 
ATOM     29  C   UNL     1      22.325   4.167  21.815  0.00  0.00    +0.127 C 
ATOM     31  H   UNL     1      22.313   5.978  22.896  0.00  0.00    +0.147 HD
ENDBRANCH  26   8
ENDBRANCH  18  22
ENDBRANCH   9  14
BRANCH   3  13
ATOM     13  C   UNL     1      12.003   7.854  19.924  0.00  0.00    +0.120 C 
BRANCH  13  15
ATOM     15  C   UNL     1      11.636   8.928  20.914  0.00  0.00    -0.033 A 
ATOM     16  C   UNL     1      12.082  10.236  20.721  0.00  0.00    +0.007 A 
ATOM     17  C   UNL     1      10.851   8.615  22.023  0.00  0.00    +0.007 A 
ATOM     19  C   UNL     1      11.742  11.230  21.637  0.00  0.00    +0.023 A 
ATOM     20  C   UNL     1      10.511   9.610  22.940  0.00  0.00    +0.023 A 
ATOM     21  C   UNL     1      10.957  10.917  22.747  0.00  0.00    +0.033 A 
BRANCH  21   6
ATOM      2  O   UNL     1      12.197  11.642  25.393  0.00  0.00    -0.276 OA
ATOM      6  N   UNL     1      10.617  11.913  23.664  0.00  0.00    -0.286 N 
ATOM     27  C   UNL     1      11.232  12.207  24.889  0.00  0.00    +0.214 C 
ATOM     28  C   UNL     1      10.562  13.364  25.586  0.00  0.00    +0.109 C 
ATOM     30  H   UNL     1       9.823  12.492  23.402  0.00  0.00    +0.155 HD
ENDBRANCH  21   6
ENDBRANCH  13  15
ENDBRANCH   3  13
TORSDOF 6
ENDMDL
MODEL 2
REMARK VINA RESULT:      -7.1     27.615     30.716
REMARK  Name = 45783788
REMARK  8 active torsions:
REMARK  status: ('A' for Active; 'I' for Inactive)
REMARK    1  A    between atoms: N_3  and  C_13
REMARK    2  A    between atoms: N_6  and  C_21
REMARK    3  A    between atoms: N_8  and  C_26
REMARK    4  A    between atoms: N_8  and  C_29
REMARK    5  A    between atoms: C_9  and  C_14
REMARK    6  A    between atoms: C_13  and  C_15
REMARK    7  A    between atoms: C_18  and  C_22
REMARK    8  A    between atoms: C_27  and  C_28
REMARK                            x       y       z     vdW  Elec       q    Type
REMARK                         _______ _______ _______ _____ _____    ______ ____
ROOT
ATOM      3  N   UNL     1     -13.855   6.729  33.358  0.00  0.00    -0.287 NA
ATOM      9  C   UNL     1     -13.814   8.205  33.367  0.00  0.00    +0.146 C 
ATOM     10  C   UNL     1     -13.207   8.570  34.734  0.00  0.00    +0.030 C 
ATOM     11  C   UNL     1     -12.999   7.240  35.446  0.00  0.00    +0.017 C 
ATOM     12  C   UNL     1     -13.975   6.309  34.755  0.00  0.00    +0.085 C 
ENDROOT
BRANCH   9  14
ATOM      1  O   UNL     1     -11.670   8.659  32.284  0.00  0.00    -0.336 OA
ATOM      4  N   UNL     1     -13.449   9.367  31.123  0.00  0.00    -0.190 NA
ATOM      5  N   UNL     1     -11.165   9.246  31.117  0.00  0.00    -0.056 NA
ATOM     14  C   UNL     1     -13.022   8.772  32.207  0.00  0.00    +0.245 A 
ATOM     18  C   UNL     1     -12.275   9.639  30.485  0.00  0.00    +0.204 A 
BRANCH  18  22
ATOM      7  N   UNL     1     -13.165  11.983  27.739  0.00  0.00    -0.240 NA
ATOM     22  C   UNL     1     -12.243  10.306  29.215  0.00  0.00    +0.041 A 
ATOM     23  C   UNL     1     -11.309   9.956  28.246  0.00  0.00    +0.016 A 
ATOM     24  C   UNL     1     -13.141  11.317  28.914  0.00  0.00    +0.124 A 
ATOM     25  C   UNL     1     -11.301  10.620  27.024  0.00  0.00    +0.044 A 
ATOM     26  C   UNL     1     -12.242  11.617  26.821  0.00  0.00    +0.118 A 
BRANCH  26   8
ATOM      8  N   UNL     1     -12.222  12.284  25.572  0.00  0.00    -0.332 N 
ATOM     29  C   UNL     1     -11.902  11.621  24.350  0.00  0.00    +0.127 C 
ATOM     31  H   UNL     1     -12.217  13.298  25.590  0.00  0.00    +0.147 HD
ENDBRANCH  26   8
ENDBRANCH  18  22
ENDBRANCH   9  14
BRANCH   3  13
ATOM     13  C   UNL     1     -14.926   6.189  32.530  0.00  0.00    +0.120 C 
BRANCH  13  15
ATOM     15  C   UNL     1     -14.518   4.909  31.851  0.00  0.00    -0.033 A 
ATOM     16  C   UNL     1     -15.232   4.449  30.743  0.00  0.00    +0.007 A 
ATOM     17  C   UNL     1     -13.428   4.181  32.328  0.00  0.00    +0.007 A 
ATOM     19  C   UNL     1     -14.855   3.263  30.115  0.00  0.00    +0.023 A 
ATOM     20  C   UNL     1     -13.052   2.995  31.699  0.00  0.00    +0.023 A 
ATOM     21  C   UNL     1     -13.765   2.536  30.592  0.00  0.00    +0.033 A 
BRANCH  21   6
ATOM      2  O   UNL     1     -14.764  -0.279  30.970  0.00  0.00    -0.276 OA
ATOM      6  N   UNL     1     -13.388   1.349  29.963  0.00  0.00    -0.286 N 
ATOM     27  C   UNL     1     -13.889   0.058  30.180  0.00  0.00    +0.214 C 
ATOM     28  C   UNL     1     -13.216  -0.958  29.292  0.00  0.00    +0.109 C 
ATOM     30  H   UNL     1     -12.659   1.443  29.260  0.00  0.00    +0.155 HD
ENDBRANCH  21   6
ENDBRANCH  13  15
ENDBRANCH   3  13
TORSDOF 6
ENDMDL
MODEL 3
REMARK VINA RESULT:      -7.0     26.470     29.614
REMARK  Name = 45783788
REMARK  8 active torsions:
REMARK  status: ('A' for Active; 'I' for Inactive)
REMARK    1  A    between atoms: N_3  and  C_13
REMARK    2  A    between atoms: N_6  and  C_21
REMARK    3  A    between atoms: N_8  and  C_26
REMARK    4  A    between atoms: N_8  and  C_29
REMARK    5  A    between atoms: C_9  and  C_14
REMARK    6  A    between atoms: C_13  and  C_15
REMARK    7  A    between atoms: C_18  and  C_22
REMARK    8  A    between atoms: C_27  and  C_28
REMARK                            x       y       z     vdW  Elec       q    Type
REMARK                         _______ _______ _______ _____ _____    ______ ____
ROOT
ATOM      3  N   UNL     1      -2.914 -10.447  13.821  0.00  0.00    -0.287 NA
ATOM      9  C   UNL     1      -3.222 -11.263  15.013  0.00  0.00    +0.146 C 
ATOM     10  C   UNL     1      -2.187 -10.826  16.065  0.00  0.00    +0.030 C 
ATOM     11  C   UNL     1      -1.304  -9.808  15.356  0.00  0.00    +0.017 C 
ATOM     12  C   UNL     1      -1.484 -10.141  13.888  0.00  0.00    +0.085 C 
ENDROOT
BRANCH   9  14
ATOM      1  O   UNL     1      -5.196 -12.126  16.167  0.00  0.00    -0.336 OA
ATOM      4  N   UNL     1      -5.451 -10.061  15.339  0.00  0.00    -0.190 NA
ATOM      5  N   UNL     1      -6.499 -11.733  16.497  0.00  0.00    -0.056 NA
ATOM     14  C   UNL     1      -4.649 -11.084  15.488  0.00  0.00    +0.245 A 
ATOM     18  C   UNL     1      -6.574 -10.505  15.974  0.00  0.00    +0.204 A 
BRANCH  18  22
ATOM      7  N   UNL     1      -9.239  -8.362  17.435  0.00  0.00    -0.240 NA
ATOM     22  C   UNL     1      -7.756  -9.697  16.071  0.00  0.00    +0.041 A 
ATOM     23  C   UNL     1      -8.551  -9.457  14.957  0.00  0.00    +0.016 A 
ATOM     24  C   UNL     1      -8.139  -9.131  17.276  0.00  0.00    +0.124 A 
ATOM     25  C   UNL     1      -9.691  -8.669  15.080  0.00  0.00    +0.044 A 
ATOM     26  C   UNL     1      -9.988  -8.150  16.330  0.00  0.00    +0.118 A 
BRANCH  26   8
ATOM      8  N   UNL     1     -11.152  -7.349  16.440  0.00  0.00    -0.332 N 
ATOM     29  C   UNL     1     -11.244  -6.042  15.877  0.00  0.00    +0.127 C 
ATOM     31  H   UNL     1     -11.844  -7.631  17.126  0.00  0.00    +0.147 HD
ENDBRANCH  26   8
ENDBRANCH  18  22
ENDBRANCH   9  14
BRANCH   3  13
ATOM     13  C   UNL     1      -3.277 -11.097  12.570  0.00  0.00    +0.120 C 
BRANCH  13  15
ATOM     15  C   UNL     1      -4.053 -10.177  11.664  0.00  0.00    -0.033 A 
ATOM     16  C   UNL     1      -3.499  -9.762  10.452  0.00  0.00    +0.007 A 
ATOM     17  C   UNL     1      -5.323  -9.739  12.037  0.00  0.00    +0.007 A 
ATOM     19  C   UNL     1      -4.217  -8.910   9.614  0.00  0.00    +0.023 A 
ATOM     20  C   UNL     1      -6.041  -8.887  11.198  0.00  0.00    +0.023 A 
ATOM     21  C   UNL     1      -5.487  -8.472   9.987  0.00  0.00    +0.033 A 
BRANCH  21   6
ATOM      2  O   UNL     1      -8.109  -8.882   8.564  0.00  0.00    -0.276 OA
ATOM      6  N   UNL     1      -6.205  -7.619   9.148  0.00  0.00    -0.286 N 
ATOM     27  C   UNL     1      -7.428  -7.864   8.507  0.00  0.00    +0.214 C 
ATOM     28  C   UNL     1      -7.874  -6.681   7.685  0.00  0.00    +0.109 C 
ATOM     30  H   UNL     1      -5.781  -6.709   8.987  0.00  0.00    +0.155 HD
ENDBRANCH  21   6
ENDBRANCH  13  15
ENDBRANCH   3  13
TORSDOF 6
ENDMDL
MODEL 4
REMARK VINA RESULT:      -6.9     31.029     32.994
REMARK  Name = 45783788
REMARK  8 active torsions:
REMARK  status: ('A' for Active; 'I' for Inactive)
REMARK    1  A    between atoms: N_3  and  C_13
REMARK    2  A    between atoms: N_6  and  C_21
REMARK    3  A    between atoms: N_8  and  C_26
REMARK    4  A    between atoms: N_8  and  C_29
REMARK    5  A    between atoms: C_9  and  C_14
REMARK    6  A    between atoms: C_13  and  C_15
REMARK    7  A    between atoms: C_18  and  C_22
REMARK    8  A    between atoms: C_27  and  C_28
REMARK                            x       y       z     vdW  Elec       q    Type
REMARK                         _______ _______ _______ _____ _____    ______ ____
ROOT
ATOM      3  N   UNL     1     -15.293   6.166  32.833  0.00  0.00    -0.287 NA
ATOM      9  C   UNL     1     -16.612   6.645  32.372  0.00  0.00    +0.146 C 
ATOM     10  C   UNL     1     -16.460   8.173  32.273  0.00  0.00    +0.030 C 
ATOM     11  C   UNL     1     -15.046   8.466  32.756  0.00  0.00    +0.017 C 
ATOM     12  C   UNL     1     -14.704   7.259  33.608  0.00  0.00    +0.085 C 
ENDROOT
BRANCH   9  14
ATOM      1  O   UNL     1     -18.371   5.881  30.857  0.00  0.00    -0.336 OA
ATOM      4  N   UNL     1     -16.295   5.566  30.080  0.00  0.00    -0.190 NA
ATOM      5  N   UNL     1     -18.513   5.282  29.599  0.00  0.00    -0.056 NA
ATOM     14  C   UNL     1     -17.034   6.013  31.061  0.00  0.00    +0.245 A 
ATOM     18  C   UNL     1     -17.245   5.127  29.205  0.00  0.00    +0.204 A 
BRANCH  18  22
ATOM      7  N   UNL     1     -16.975   4.630  25.530  0.00  0.00    -0.240 NA
ATOM     22  C   UNL     1     -16.896   4.538  27.944  0.00  0.00    +0.041 A 
ATOM     23  C   UNL     1     -16.171   3.354  27.883  0.00  0.00    +0.016 A 
ATOM     24  C   UNL     1     -17.271   5.132  26.750  0.00  0.00    +0.124 A 
ATOM     25  C   UNL     1     -15.847   2.807  26.646  0.00  0.00    +0.044 A 
ATOM     26  C   UNL     1     -16.269   3.478  25.509  0.00  0.00    +0.118 A 
BRANCH  26   8
ATOM      8  N   UNL     1     -15.931   2.909  24.257  0.00  0.00    -0.332 N 
ATOM     29  C   UNL     1     -16.784   2.991  23.118  0.00  0.00    +0.127 C 
ATOM     31  H   UNL     1     -15.168   2.240  24.244  0.00  0.00    +0.147 HD
ENDBRANCH  26   8
ENDBRANCH  18  22
ENDBRANCH   9  14
BRANCH   3  13
ATOM     13  C   UNL     1     -15.367   4.930  33.600  0.00  0.00    +0.120 C 
BRANCH  13  15
ATOM     15  C   UNL     1     -14.826   3.757  32.826  0.00  0.00    -0.033 A 
ATOM     16  C   UNL     1     -13.932   3.968  31.774  0.00  0.00    +0.007 A 
ATOM     17  C   UNL     1     -15.218   2.460  33.158  0.00  0.00    +0.007 A 
ATOM     19  C   UNL     1     -13.432   2.882  31.057  0.00  0.00    +0.023 A 
ATOM     20  C   UNL     1     -14.717   1.375  32.440  0.00  0.00    +0.023 A 
ATOM     21  C   UNL     1     -13.824   1.586  31.389  0.00  0.00    +0.033 A 
BRANCH  21   6
ATOM      2  O   UNL     1     -15.059  -0.022  29.163  0.00  0.00    -0.276 OA
ATOM      6  N   UNL     1     -13.323   0.500  30.671  0.00  0.00    -0.286 N 
ATOM     27  C   UNL     1     -13.945  -0.216  29.639  0.00  0.00    +0.214 C 
ATOM     28  C   UNL     1     -13.065  -1.325  29.119  0.00  0.00    +0.109 C 
ATOM     30  H   UNL     1     -12.388   0.197  30.936  0.00  0.00    +0.155 HD
ENDBRANCH  21   6
ENDBRANCH  13  15
ENDBRANCH   3  13
TORSDOF 6
ENDMDL
MODEL 5
REMARK VINA RESULT:      -6.9     26.656     29.618
REMARK  Name = 45783788
REMARK  8 active torsions:
REMARK  status: ('A' for Active; 'I' for Inactive)
REMARK    1  A    between atoms: N_3  and  C_13
REMARK    2  A    between atoms: N_6  and  C_21
REMARK    3  A    between atoms: N_8  and  C_26
REMARK    4  A    between atoms: N_8  and  C_29
REMARK    5  A    between atoms: C_9  and  C_14
REMARK    6  A    between atoms: C_13  and  C_15
REMARK    7  A    between atoms: C_18  and  C_22
REMARK    8  A    between atoms: C_27  and  C_28
REMARK                            x       y       z     vdW  Elec       q    Type
REMARK                         _______ _______ _______ _____ _____    ______ ____
ROOT
ATOM      3  N   UNL     1      -2.718 -10.583  13.797  0.00  0.00    -0.287 NA
ATOM      9  C   UNL     1      -2.667 -11.564  14.901  0.00  0.00    +0.146 C 
ATOM     10  C   UNL     1      -1.659 -10.973  15.902  0.00  0.00    +0.030 C 
ATOM     11  C   UNL     1      -1.151  -9.695  15.249  0.00  0.00    +0.017 C 
ATOM     12  C   UNL     1      -1.414  -9.920  13.774  0.00  0.00    +0.085 C 
ENDROOT
BRANCH   9  14
ATOM      1  O   UNL     1      -4.687 -12.926  15.101  0.00  0.00    -0.336 OA
ATOM      4  N   UNL     1      -4.677 -11.109  16.409  0.00  0.00    -0.190 NA
ATOM      5  N   UNL     1      -5.900 -12.943  15.800  0.00  0.00    -0.056 NA
ATOM     14  C   UNL     1      -4.027 -11.814  15.519  0.00  0.00    +0.245 A 
ATOM     18  C   UNL     1      -5.820 -11.840  16.551  0.00  0.00    +0.204 A 
BRANCH  18  22
ATOM      7  N   UNL     1      -7.713 -11.343  19.712  0.00  0.00    -0.240 NA
ATOM     22  C   UNL     1      -6.863 -11.443  17.451  0.00  0.00    +0.041 A 
ATOM     23  C   UNL     1      -8.003 -10.797  16.986  0.00  0.00    +0.016 A 
ATOM     24  C   UNL     1      -6.768 -11.691  18.811  0.00  0.00    +0.124 A 
ATOM     25  C   UNL     1      -8.998 -10.423  17.883  0.00  0.00    +0.044 A 
ATOM     26  C   UNL     1      -8.807 -10.717  19.223  0.00  0.00    +0.118 A 
BRANCH  26   8
ATOM      8  N   UNL     1      -9.829 -10.330  20.124  0.00  0.00    -0.332 N 
ATOM     29  C   UNL     1     -11.211 -10.337  19.771  0.00  0.00    +0.127 C 
ATOM     31  H   UNL     1      -9.544  -9.826  20.958  0.00  0.00    +0.147 HD
ENDBRANCH  26   8
ENDBRANCH  18  22
ENDBRANCH   9  14
BRANCH   3  13
ATOM     13  C   UNL     1      -3.051 -11.182  12.511  0.00  0.00    +0.120 C 
BRANCH  13  15
ATOM     15  C   UNL     1      -3.854 -10.245  11.648  0.00  0.00    -0.033 A 
ATOM     16  C   UNL     1      -5.076  -9.751  12.105  0.00  0.00    +0.007 A 
ATOM     17  C   UNL     1      -3.377  -9.872  10.392  0.00  0.00    +0.007 A 
ATOM     19  C   UNL     1      -5.820  -8.884  11.306  0.00  0.00    +0.023 A 
ATOM     20  C   UNL     1      -4.122  -9.005   9.593  0.00  0.00    +0.023 A 
ATOM     21  C   UNL     1      -5.344  -8.511  10.049  0.00  0.00    +0.033 A 
BRANCH  21   6
ATOM      2  O   UNL     1      -8.034  -8.877   8.749  0.00  0.00    -0.276 OA
ATOM      6  N   UNL     1      -6.088  -7.644   9.250  0.00  0.00    -0.286 N 
ATOM     27  C   UNL     1      -7.343  -7.868   8.666  0.00  0.00    +0.214 C 
ATOM     28  C   UNL     1      -7.810  -6.674   7.872  0.00  0.00    +0.109 C 
ATOM     30  H   UNL     1      -5.659  -6.738   9.074  0.00  0.00    +0.155 HD
ENDBRANCH  21   6
ENDBRANCH  13  15
ENDBRANCH   3  13
TORSDOF 6
ENDMDL
MODEL 6
REMARK VINA RESULT:      -6.8     28.086     30.358
REMARK  Name = 45783788
REMARK  8 active torsions:
REMARK  status: ('A' for Active; 'I' for Inactive)
REMARK    1  A    between atoms: N_3  and  C_13
REMARK    2  A    between atoms: N_6  and  C_21
REMARK    3  A    between atoms: N_8  and  C_26
REMARK    4  A    between atoms: N_8  and  C_29
REMARK    5  A    between atoms: C_9  and  C_14
REMARK    6  A    between atoms: C_13  and  C_15
REMARK    7  A    between atoms: C_18  and  C_22
REMARK    8  A    between atoms: C_27  and  C_28
REMARK                            x       y       z     vdW  Elec       q    Type
REMARK                         _______ _______ _______ _____ _____    ______ ____
ROOT
ATOM      3  N   UNL     1     -11.153 -10.649  17.554  0.00  0.00    -0.287 NA
ATOM      9  C   UNL     1     -10.537 -11.594  18.508  0.00  0.00    +0.146 C 
ATOM     10  C   UNL     1     -10.818 -12.986  17.915  0.00  0.00    +0.030 C 
ATOM     11  C   UNL     1     -11.648 -12.727  16.665  0.00  0.00    +0.017 C 
ATOM     12  C   UNL     1     -12.261 -11.365  16.920  0.00  0.00    +0.085 C 
ENDROOT
BRANCH   9  14
ATOM      1  O   UNL     1      -8.684 -10.919  19.951  0.00  0.00    -0.336 OA
ATOM      4  N   UNL     1      -8.071 -11.447  17.863  0.00  0.00    -0.190 NA
ATOM      5  N   UNL     1      -7.295 -10.745  19.897  0.00  0.00    -0.056 NA
ATOM     14  C   UNL     1      -9.059 -11.334  18.712  0.00  0.00    +0.245 A 
ATOM     18  C   UNL     1      -7.008 -11.076  18.634  0.00  0.00    +0.204 A 
BRANCH  18  22
ATOM      7  N   UNL     1      -3.356 -11.706  18.332  0.00  0.00    -0.240 NA
ATOM     22  C   UNL     1      -5.672 -11.047  18.114  0.00  0.00    +0.041 A 
ATOM     23  C   UNL     1      -5.376 -10.367  16.938  0.00  0.00    +0.016 A 
ATOM     24  C   UNL     1      -4.636 -11.694  18.767  0.00  0.00    +0.124 A 
ATOM     25  C   UNL     1      -4.071 -10.356  16.458  0.00  0.00    +0.044 A 
ATOM     26  C   UNL     1      -3.106 -11.035  17.185  0.00  0.00    +0.118 A 
BRANCH  26   8
ATOM      8  N   UNL     1      -1.782 -11.015  16.683  0.00  0.00    -0.332 N 
ATOM     29  C   UNL     1      -1.476 -11.235  15.307  0.00  0.00    +0.127 C 
ATOM     31  H   UNL     1      -1.029 -11.067  17.361  0.00  0.00    +0.147 HD
ENDBRANCH  26   8
ENDBRANCH  18  22
ENDBRANCH   9  14
BRANCH   3  13
ATOM     13  C   UNL     1     -11.589  -9.407  18.177  0.00  0.00    +0.120 C 
BRANCH  13  15
ATOM     15  C   UNL     1     -11.664  -8.278  17.183  0.00  0.00    -0.033 A 
ATOM     16  C   UNL     1     -12.887  -7.941  16.602  0.00  0.00    +0.007 A 
ATOM     17  C   UNL     1     -10.512  -7.569  16.843  0.00  0.00    +0.007 A 
ATOM     19  C   UNL     1     -12.957  -6.896  15.681  0.00  0.00    +0.023 A 
ATOM     20  C   UNL     1     -10.582  -6.525  15.922  0.00  0.00    +0.023 A 
ATOM     21  C   UNL     1     -11.805  -6.188  15.341  0.00  0.00    +0.033 A 
BRANCH  21   6
ATOM      2  O   UNL     1     -12.687  -6.176  12.463  0.00  0.00    -0.276 OA
ATOM      6  N   UNL     1     -11.875  -5.142  14.420  0.00  0.00    -0.286 N 
ATOM     27  C   UNL     1     -12.295  -5.194  13.083  0.00  0.00    +0.214 C 
ATOM     28  C   UNL     1     -12.224  -3.840  12.424  0.00  0.00    +0.109 C 
ATOM     30  H   UNL     1     -11.583  -4.233  14.771  0.00  0.00    +0.155 HD
ENDBRANCH  21   6
ENDBRANCH  13  15
ENDBRANCH   3  13
TORSDOF 6
ENDMDL
MODEL 7
REMARK VINA RESULT:      -6.7     14.492     17.472
REMARK  Name = 45783788
REMARK  8 active torsions:
REMARK  status: ('A' for Active; 'I' for Inactive)
REMARK    1  A    between atoms: N_3  and  C_13
REMARK    2  A    between atoms: N_6  and  C_21
REMARK    3  A    between atoms: N_8  and  C_26
REMARK    4  A    between atoms: N_8  and  C_29
REMARK    5  A    between atoms: C_9  and  C_14
REMARK    6  A    between atoms: C_13  and  C_15
REMARK    7  A    between atoms: C_18  and  C_22
REMARK    8  A    between atoms: C_27  and  C_28
REMARK                            x       y       z     vdW  Elec       q    Type
REMARK                         _______ _______ _______ _____ _____    ______ ____
ROOT
ATOM      3  N   UNL     1      10.167   5.264   6.295  0.00  0.00    -0.287 NA
ATOM      9  C   UNL     1       9.917   6.399   7.206  0.00  0.00    +0.146 C 
ATOM     10  C   UNL     1       9.805   5.762   8.602  0.00  0.00    +0.030 C 
ATOM     11  C   UNL     1       9.944   4.264   8.369  0.00  0.00    +0.017 C 
ATOM     12  C   UNL     1       9.550   4.092   6.916  0.00  0.00    +0.085 C 
ENDROOT
BRANCH   9  14
ATOM      1  O   UNL     1      10.641   8.717   7.485  0.00  0.00    -0.336 OA
ATOM      4  N   UNL     1      12.252   7.336   6.767  0.00  0.00    -0.190 NA
ATOM      5  N   UNL     1      11.790   9.504   7.335  0.00  0.00    -0.056 NA
ATOM     14  C   UNL     1      11.001   7.455   7.130  0.00  0.00    +0.245 A 
ATOM     18  C   UNL     1      12.696   8.618   6.910  0.00  0.00    +0.204 A 
BRANCH  18  22
ATOM      7  N   UNL     1      15.725  10.715   6.405  0.00  0.00    -0.240 NA
ATOM     22  C   UNL     1      14.053   8.983   6.619  0.00  0.00    +0.041 A 
ATOM     23  C   UNL     1      14.996   8.020   6.280  0.00  0.00    +0.016 A 
ATOM     24  C   UNL     1      14.464  10.305   6.667  0.00  0.00    +0.124 A 
ATOM     25  C   UNL     1      16.304   8.403   6.003  0.00  0.00    +0.044 A 
ATOM     26  C   UNL     1      16.615   9.751   6.079  0.00  0.00    +0.118 A 
BRANCH  26   8
ATOM      8  N   UNL     1      17.951  10.126   5.795  0.00  0.00    -0.332 N 
ATOM     29  C   UNL     1      18.946   9.186   5.393  0.00  0.00    +0.127 C 
ATOM     31  H   UNL     1      18.249  11.045   6.104  0.00  0.00    +0.147 HD
ENDBRANCH  26   8
ENDBRANCH  18  22
ENDBRANCH   9  14
BRANCH   3  13
ATOM     13  C   UNL     1       9.673   5.492   4.943  0.00  0.00    +0.120 C 
BRANCH  13  15
ATOM     15  C   UNL     1      10.757   5.315   3.913  0.00  0.00    -0.033 A 
ATOM     16  C   UNL     1      10.869   4.109   3.219  0.00  0.00    +0.007 A 
ATOM     17  C   UNL     1      11.649   6.355   3.652  0.00  0.00    +0.007 A 
ATOM     19  C   UNL     1      11.873   3.945   2.266  0.00  0.00    +0.023 A 
ATOM     20  C   UNL     1      12.652   6.190   2.698  0.00  0.00    +0.023 A 
ATOM     21  C   UNL     1      12.765   4.985   2.005  0.00  0.00    +0.033 A 
BRANCH  21   6
ATOM      2  O   UNL     1      15.151   3.150   1.976  0.00  0.00    -0.276 OA
ATOM      6  N   UNL     1      13.769   4.820   1.050  0.00  0.00    -0.286 N 
ATOM     27  C   UNL     1      14.864   3.946   1.089  0.00  0.00    +0.214 C 
ATOM     28  C   UNL     1      15.722   4.072  -0.145  0.00  0.00    +0.109 C 
ATOM     30  H   UNL     1      13.687   5.412   0.227  0.00  0.00    +0.155 HD
ENDBRANCH  21   6
ENDBRANCH  13  15
ENDBRANCH   3  13
TORSDOF 6
ENDMDL
MODEL 8
REMARK VINA RESULT:      -6.6     27.313     29.291
REMARK  Name = 45783788
REMARK  8 active torsions:
REMARK  status: ('A' for Active; 'I' for Inactive)
REMARK    1  A    between atoms: N_3  and  C_13
REMARK    2  A    between atoms: N_6  and  C_21
REMARK    3  A    between atoms: N_8  and  C_26
REMARK    4  A    between atoms: N_8  and  C_29
REMARK    5  A    between atoms: C_9  and  C_14
REMARK    6  A    between atoms: C_13  and  C_15
REMARK    7  A    between atoms: C_18  and  C_22
REMARK    8  A    between atoms: C_27  and  C_28
REMARK                            x       y       z     vdW  Elec       q    Type
REMARK                         _______ _______ _______ _____ _____    ______ ____
ROOT
ATOM      3  N   UNL     1      -3.359 -11.728  14.544  0.00  0.00    -0.287 NA
ATOM      9  C   UNL     1      -2.317 -11.714  13.497  0.00  0.00    +0.146 C 
ATOM     10  C   UNL     1      -2.095 -13.196  13.147  0.00  0.00    +0.030 C 
ATOM     11  C   UNL     1      -3.009 -13.969  14.088  0.00  0.00    +0.017 C 
ATOM     12  C   UNL     1      -3.229 -13.009  15.239  0.00  0.00    +0.085 C 
ENDROOT
BRANCH   9  14
ATOM      1  O   UNL     1      -1.755 -10.060  11.786  0.00  0.00    -0.336 OA
ATOM      4  N   UNL     1      -3.854 -10.830  11.659  0.00  0.00    -0.190 NA
ATOM      5  N   UNL     1      -2.345  -9.405  10.699  0.00  0.00    -0.056 NA
ATOM     14  C   UNL     1      -2.712 -10.882  12.294  0.00  0.00    +0.245 A 
ATOM     18  C   UNL     1      -3.582  -9.911  10.688  0.00  0.00    +0.204 A 
BRANCH  18  22
ATOM      7  N   UNL     1      -6.437  -8.107   9.134  0.00  0.00    -0.240 NA
ATOM     22  C   UNL     1      -4.567  -9.521   9.721  0.00  0.00    +0.041 A 
ATOM     23  C   UNL     1      -4.629 -10.134   8.476  0.00  0.00    +0.016 A 
ATOM     24  C   UNL     1      -5.485  -8.521   9.999  0.00  0.00    +0.124 A 
ATOM     25  C   UNL     1      -5.595  -9.735   7.557  0.00  0.00    +0.044 A 
ATOM     26  C   UNL     1      -6.468  -8.726   7.932  0.00  0.00    +0.118 A 
BRANCH  26   8
ATOM      8  N   UNL     1      -7.445  -8.329   6.987  0.00  0.00    -0.332 N 
ATOM     29  C   UNL     1      -8.173  -7.108   7.097  0.00  0.00    +0.127 C 
ATOM     31  H   UNL     1      -7.785  -9.040   6.347  0.00  0.00    +0.147 HD
ENDBRANCH  26   8
ENDBRANCH  18  22
ENDBRANCH   9  14
BRANCH   3  13
ATOM     13  C   UNL     1      -3.271 -10.597  15.457  0.00  0.00    +0.120 C 
BRANCH  13  15
ATOM     15  C   UNL     1      -4.503 -10.469  16.313  0.00  0.00    -0.033 A 
ATOM     16  C   UNL     1      -5.683  -9.963  15.765  0.00  0.00    +0.007 A 
ATOM     17  C   UNL     1      -4.467 -10.856  17.652  0.00  0.00    +0.007 A 
ATOM     19  C   UNL     1      -6.824  -9.845  16.557  0.00  0.00    +0.023 A 
ATOM     20  C   UNL     1      -5.608 -10.737  18.444  0.00  0.00    +0.023 A 
ATOM     21  C   UNL     1      -6.787 -10.231  17.897  0.00  0.00    +0.033 A 
BRANCH  21   6
ATOM      2  O   UNL     1      -8.828 -12.292  18.703  0.00  0.00    -0.276 OA
ATOM      6  N   UNL     1      -7.930 -10.113  18.689  0.00  0.00    -0.286 N 
ATOM     27  C   UNL     1      -8.851 -11.112  19.033  0.00  0.00    +0.214 C 
ATOM     28  C   UNL     1      -9.953 -10.576  19.912  0.00  0.00    +0.109 C 
ATOM     30  H   UNL     1      -8.108  -9.182  19.058  0.00  0.00    +0.155 HD
ENDBRANCH  21   6
ENDBRANCH  13  15
ENDBRANCH   3  13
TORSDOF 6
ENDMDL
MODEL 9
REMARK VINA RESULT:      -6.6     26.119     28.872
REMARK  Name = 45783788
REMARK  8 active torsions:
REMARK  status: ('A' for Active; 'I' for Inactive)
REMARK    1  A    between atoms: N_3  and  C_13
REMARK    2  A    between atoms: N_6  and  C_21
REMARK    3  A    between atoms: N_8  and  C_26
REMARK    4  A    between atoms: N_8  and  C_29
REMARK    5  A    between atoms: C_9  and  C_14
REMARK    6  A    between atoms: C_13  and  C_15
REMARK    7  A    between atoms: C_18  and  C_22
REMARK    8  A    between atoms: C_27  and  C_28
REMARK                            x       y       z     vdW  Elec       q    Type
REMARK                         _______ _______ _______ _____ _____    ______ ____
ROOT
ATOM      3  N   UNL     1     -11.903   9.856  20.531  0.00  0.00    -0.287 NA
ATOM      9  C   UNL     1     -12.470   8.749  19.734  0.00  0.00    +0.146 C 
ATOM     10  C   UNL     1     -11.391   8.433  18.683  0.00  0.00    +0.030 C 
ATOM     11  C   UNL     1     -10.286   9.451  18.927  0.00  0.00    +0.017 C 
ATOM     12  C   UNL     1     -10.995  10.583  19.643  0.00  0.00    +0.085 C 
ENDROOT
BRANCH   9  14
ATOM      1  O   UNL     1     -11.812   6.700  20.893  0.00  0.00    -0.336 OA
ATOM      4  N   UNL     1     -13.990   7.191  21.068  0.00  0.00    -0.190 NA
ATOM      5  N   UNL     1     -12.380   5.682  21.669  0.00  0.00    -0.056 NA
ATOM     14  C   UNL     1     -12.829   7.547  20.582  0.00  0.00    +0.245 A 
ATOM     18  C   UNL     1     -13.665   6.042  21.728  0.00  0.00    +0.204 A 
BRANCH  18  22
ATOM      7  N   UNL     1     -15.228   3.938  24.367  0.00  0.00    -0.240 NA
ATOM     22  C   UNL     1     -14.649   5.276  22.438  0.00  0.00    +0.041 A 
ATOM     23  C   UNL     1     -15.933   5.115  21.931  0.00  0.00    +0.016 A 
ATOM     24  C   UNL     1     -14.349   4.673  23.648  0.00  0.00    +0.124 A 
ATOM     25  C   UNL     1     -16.866   4.367  22.642  0.00  0.00    +0.044 A 
ATOM     26  C   UNL     1     -16.467   3.804  23.843  0.00  0.00    +0.118 A 
BRANCH  26   8
ATOM      8  N   UNL     1     -17.428   3.045  24.556  0.00  0.00    -0.332 N 
ATOM     29  C   UNL     1     -17.224   2.608  25.897  0.00  0.00    +0.127 C 
ATOM     31  H   UNL     1     -18.175   2.621  24.015  0.00  0.00    +0.147 HD
ENDBRANCH  26   8
ENDBRANCH  18  22
ENDBRANCH   9  14
BRANCH   3  13
ATOM     13  C   UNL     1     -12.919  10.727  21.108  0.00  0.00    +0.120 C 
BRANCH  13  15
ATOM     15  C   UNL     1     -12.864  10.732  22.613  0.00  0.00    -0.033 A 
ATOM     16  C   UNL     1     -11.822  11.389  23.270  0.00  0.00    +0.007 A 
ATOM     17  C   UNL     1     -13.853  10.081  23.350  0.00  0.00    +0.007 A 
ATOM     19  C   UNL     1     -11.771  11.393  24.663  0.00  0.00    +0.023 A 
ATOM     20  C   UNL     1     -13.801  10.086  24.743  0.00  0.00    +0.023 A 
ATOM     21  C   UNL     1     -12.759  10.741  25.400  0.00  0.00    +0.033 A 
BRANCH  21   6
ATOM      2  O   UNL     1     -10.866   9.360  27.290  0.00  0.00    -0.276 OA
ATOM      6  N   UNL     1     -12.708  10.746  26.794  0.00  0.00    -0.286 N 
ATOM     27  C   UNL     1     -11.799  10.080  27.628  0.00  0.00    +0.214 C 
ATOM     28  C   UNL     1     -12.083  10.343  29.086  0.00  0.00    +0.109 C 
ATOM     30  H   UNL     1     -13.422  11.306  27.254  0.00  0.00    +0.155 HD
ENDBRANCH  21   6
ENDBRANCH  13  15
ENDBRANCH   3  13
TORSDOF 6
ENDMDL
MODEL 10
REMARK VINA RESULT:      -6.3     15.113     18.581
REMARK  Name = 45783788
REMARK  8 active torsions:
REMARK  status: ('A' for Active; 'I' for Inactive)
REMARK    1  A    between atoms: N_3  and  C_13
REMARK    2  A    between atoms: N_6  and  C_21
REMARK    3  A    between atoms: N_8  and  C_26
REMARK    4  A    between atoms: N_8  and  C_29
REMARK    5  A    between atoms: C_9  and  C_14
REMARK    6  A    between atoms: C_13  and  C_15
REMARK    7  A    between atoms: C_18  and  C_22
REMARK    8  A    between atoms: C_27  and  C_28
REMARK                            x       y       z     vdW  Elec       q    Type
REMARK                         _______ _______ _______ _____ _____    ______ ____
ROOT
ATOM      3  N   UNL     1      10.071   8.154   6.070  0.00  0.00    -0.287 NA
ATOM      9  C   UNL     1       9.113   7.076   5.752  0.00  0.00    +0.146 C 
ATOM     10  C   UNL     1       7.923   7.794   5.091  0.00  0.00    +0.030 C 
ATOM     11  C   UNL     1       8.274   9.274   5.138  0.00  0.00    +0.017 C 
ATOM     12  C   UNL     1       9.277   9.367   6.270  0.00  0.00    +0.085 C 
ENDROOT
BRANCH   9  14
ATOM      1  O   UNL     1       9.931   4.793   5.441  0.00  0.00    -0.336 OA
ATOM      4  N   UNL     1      10.070   6.072   3.608  0.00  0.00    -0.190 NA
ATOM      5  N   UNL     1      10.485   3.983   4.442  0.00  0.00    -0.056 NA
ATOM     14  C   UNL     1       9.716   6.006   4.865  0.00  0.00    +0.245 A 
ATOM     18  C   UNL     1      10.535   4.808   3.392  0.00  0.00    +0.204 A 
BRANCH  18  22
ATOM      7  N   UNL     1      10.689   4.137  -0.263  0.00  0.00    -0.240 NA
ATOM     22  C   UNL     1      11.044   4.399   2.114  0.00  0.00    +0.041 A 
ATOM     23  C   UNL     1      12.329   3.885   1.987  0.00  0.00    +0.016 A 
ATOM     24  C   UNL     1      10.271   4.504   0.969  0.00  0.00    +0.124 A 
ATOM     25  C   UNL     1      12.796   3.497   0.735  0.00  0.00    +0.044 A 
ATOM     26  C   UNL     1      11.944   3.642  -0.348  0.00  0.00    +0.118 A 
BRANCH  26   8
ATOM      8  N   UNL     1      12.434   3.243  -1.616  0.00  0.00    -0.332 N 
ATOM     29  C   UNL     1      11.795   2.244  -2.409  0.00  0.00    +0.127 C 
ATOM     31  H   UNL     1      13.381   3.518  -1.854  0.00  0.00    +0.147 HD
ENDBRANCH  26   8
ENDBRANCH  18  22
ENDBRANCH   9  14
BRANCH   3  13
ATOM     13  C   UNL     1      10.913   7.854   7.221  0.00  0.00    +0.120 C 
BRANCH  13  15
ATOM     15  C   UNL     1      12.375   8.025   6.906  0.00  0.00    -0.033 A 
ATOM     16  C   UNL     1      12.885   9.294   6.627  0.00  0.00    +0.007 A 
ATOM     17  C   UNL     1      13.221   6.916   6.893  0.00  0.00    +0.007 A 
ATOM     19  C   UNL     1      14.238   9.452   6.334  0.00  0.00    +0.023 A 
ATOM     20  C   UNL     1      14.575   7.075   6.600  0.00  0.00    +0.023 A 
ATOM     21  C   UNL     1      15.084   8.343   6.321  0.00  0.00    +0.033 A 
BRANCH  21   6
ATOM      2  O   UNL     1      16.584   7.960   3.739  0.00  0.00    -0.276 OA
ATOM      6  N   UNL     1      16.439   8.502   6.029  0.00  0.00    -0.286 N 
ATOM     27  C   UNL     1      17.088   8.308   4.801  0.00  0.00    +0.214 C 
ATOM     28  C   UNL     1      18.566   8.587   4.901  0.00  0.00    +0.109 C 
ATOM     30  H   UNL     1      17.021   8.796   6.810  0.00  0.00    +0.155 HD
ENDBRANCH  21   6
ENDBRANCH  13  15
ENDBRANCH   3  13
TORSDOF 6
ENDMDL
