MODEL 1
REMARK VINA RESULT:      -7.7      0.000      0.000
REMARK  Name = 11884447
REMARK  6 active torsions:
REMARK  status: ('A' for Active; 'I' for Inactive)
REMARK    1  A    between atoms: S_2  and  N_8
REMARK    2  A    between atoms: S_2  and  C_22
REMARK    3  A    between atoms: O_7  and  C_34
REMARK    4  A    between atoms: O_7  and  C_35
REMARK    5  A    between atoms: N_10  and  C_20
REMARK    6  A    between atoms: C_27  and  C_29
REMARK                            x       y       z     vdW  Elec       q    Type
REMARK                         _______ _______ _______ _____ _____    ______ ____
ROOT
ATOM      5  O   UNL     1     -10.337  -9.215  13.776  0.00  0.00    -0.266 OA
ATOM      8  N   UNL     1     -13.022  -5.262  12.366  0.00  0.00    -0.176 NA
ATOM      9  N   UNL     1     -12.074  -7.695  14.147  0.00  0.00    -0.310 N 
ATOM     11  C   UNL     1     -14.103  -7.501  12.597  0.00  0.00    +0.025 C 
ATOM     12  C   UNL     1     -13.919  -6.029  14.555  0.00  0.00    +0.052 C 
ATOM     13  C   UNL     1     -14.833  -7.026  13.846  0.00  0.00    +0.017 C 
ATOM     14  C   UNL     1     -13.805  -6.318  11.661  0.00  0.00    +0.114 C 
ATOM     15  C   UNL     1     -13.668  -4.819  13.638  0.00  0.00    +0.119 C 
ATOM     16  C   UNL     1     -12.832  -8.250  13.018  0.00  0.00    +0.130 C 
ATOM     17  C   UNL     1     -12.605  -6.678  14.947  0.00  0.00    +0.026 A 
ATOM     18  C   UNL     1     -11.945  -6.265  16.042  0.00  0.00    +0.024 A 
ATOM     19  C   UNL     1     -10.837  -8.306  14.442  0.00  0.00    +0.273 A 
ATOM     20  C   UNL     1     -10.122  -7.801  15.656  0.00  0.00    +0.099 A 
ATOM     21  C   UNL     1     -10.678  -6.838  16.400  0.00  0.00    +0.030 A 
ENDROOT
BRANCH  20  10
ATOM      6  O   UNL     1      -9.604  -9.603  17.807  0.00  0.00    -0.270 OA
ATOM     10  N   UNL     1      -8.917  -8.357  15.968  0.00  0.00    -0.277 N 
ATOM     27  C   UNL     1      -8.728  -9.229  17.030  0.00  0.00    +0.248 C 
ATOM     36  H   UNL     1      -8.124  -7.977  15.462  0.00  0.00    +0.155 HD
BRANCH  27  29
ATOM     29  C   UNL     1      -7.347  -9.751  17.198  0.00  0.00    +0.037 A 
ATOM     30  C   UNL     1      -6.451  -9.608  16.159  0.00  0.00    +0.016 A 
ATOM     31  C   UNL     1      -7.005 -10.363  18.386  0.00  0.00    +0.016 A 
ATOM     32  C   UNL     1      -5.154 -10.098  16.316  0.00  0.00    +0.046 A 
ATOM     33  C   UNL     1      -5.709 -10.852  18.543  0.00  0.00    +0.046 A 
ATOM     34  C   UNL     1      -4.783 -10.720  17.508  0.00  0.00    +0.120 A 
BRANCH  34   7
ATOM      7  O   UNL     1      -3.517 -11.196  17.662  0.00  0.00    -0.495 OA
ATOM     35  C   UNL     1      -2.630 -11.053  16.554  0.00  0.00    +0.277 C 
ENDBRANCH  34   7
ENDBRANCH  27  29
ENDBRANCH  20  10
BRANCH   8   2
ATOM      2  S   UNL     1     -12.408  -4.011  11.374  0.00  0.00    +0.061 S 
ATOM      3  O   UNL     1     -11.510  -4.582  10.392  0.00  0.00    -0.153 OA
ATOM      4  O   UNL     1     -11.989  -2.907  12.212  0.00  0.00    -0.153 OA
BRANCH   2  22
ATOM      1 CL   UNL     1     -17.640  -2.295   8.403  0.00  0.00    -0.084 Cl
ATOM     22  C   UNL     1     -13.884  -3.526  10.535  0.00  0.00    +0.106 A 
ATOM     23  C   UNL     1     -14.893  -2.897  11.247  0.00  0.00    +0.030 A 
ATOM     24  C   UNL     1     -14.010  -3.785   9.180  0.00  0.00    +0.030 A 
ATOM     25  C   UNL     1     -16.059  -2.514  10.584  0.00  0.00    +0.022 A 
ATOM     26  C   UNL     1     -15.177  -3.402   8.518  0.00  0.00    +0.022 A 
ATOM     28  C   UNL     1     -16.201  -2.767   9.220  0.00  0.00    +0.041 A 
ENDBRANCH   2  22
ENDBRANCH   8   2
TORSDOF 5
ENDMDL
MODEL 2
REMARK VINA RESULT:      -7.5     27.834     30.104
REMARK  Name = 11884447
REMARK  6 active torsions:
REMARK  status: ('A' for Active; 'I' for Inactive)
REMARK    1  A    between atoms: S_2  and  N_8
REMARK    2  A    between atoms: S_2  and  C_22
REMARK    3  A    between atoms: O_7  and  C_34
REMARK    4  A    between atoms: O_7  and  C_35
REMARK    5  A    between atoms: N_10  and  C_20
REMARK    6  A    between atoms: C_27  and  C_29
REMARK                            x       y       z     vdW  Elec       q    Type
REMARK                         _______ _______ _______ _____ _____    ______ ____
ROOT
ATOM      5  O   UNL     1      12.504   3.258   1.851  0.00  0.00    -0.266 OA
ATOM      8  N   UNL     1      13.341   5.610  -2.460  0.00  0.00    -0.176 NA
ATOM      9  N   UNL     1      11.798   3.929  -0.273  0.00  0.00    -0.310 N 
ATOM     11  C   UNL     1      12.941   3.146  -2.427  0.00  0.00    +0.025 C 
ATOM     12  C   UNL     1      11.034   4.689  -2.550  0.00  0.00    +0.052 C 
ATOM     13  C   UNL     1      11.573   3.354  -3.061  0.00  0.00    +0.017 C 
ATOM     14  C   UNL     1      13.901   4.278  -2.828  0.00  0.00    +0.114 C 
ATOM     15  C   UNL     1      11.966   5.827  -3.001  0.00  0.00    +0.119 C 
ATOM     16  C   UNL     1      12.774   3.031  -0.907  0.00  0.00    +0.130 C 
ATOM     17  C   UNL     1      10.901   4.681  -1.039  0.00  0.00    +0.026 A 
ATOM     18  C   UNL     1       9.943   5.406  -0.439  0.00  0.00    +0.024 A 
ATOM     19  C   UNL     1      11.746   3.916   1.136  0.00  0.00    +0.273 A 
ATOM     20  C   UNL     1      10.680   4.756   1.767  0.00  0.00    +0.099 A 
ATOM     21  C   UNL     1       9.834   5.444   0.993  0.00  0.00    +0.030 A 
ENDROOT
BRANCH  20  10
ATOM      6  O   UNL     1      11.497   6.902   3.462  0.00  0.00    -0.270 OA
ATOM     10  N   UNL     1      10.605   4.780   3.128  0.00  0.00    -0.277 N 
ATOM     27  C   UNL     1      11.020   5.857   3.899  0.00  0.00    +0.248 C 
ATOM     36  H   UNL     1      10.361   3.896   3.562  0.00  0.00    +0.155 HD
BRANCH  27  29
ATOM     29  C   UNL     1      10.837   5.708   5.366  0.00  0.00    +0.037 A 
ATOM     30  C   UNL     1      11.611   6.472   6.214  0.00  0.00    +0.016 A 
ATOM     31  C   UNL     1       9.901   4.809   5.834  0.00  0.00    +0.016 A 
ATOM     32  C   UNL     1      11.440   6.333   7.592  0.00  0.00    +0.046 A 
ATOM     33  C   UNL     1       9.730   4.670   7.210  0.00  0.00    +0.046 A 
ATOM     34  C   UNL     1      10.498   5.431   8.090  0.00  0.00    +0.120 A 
BRANCH  34   7
ATOM      7  O   UNL     1      10.330   5.297   9.433  0.00  0.00    -0.495 OA
ATOM     35  C   UNL     1       9.096   4.737   9.880  0.00  0.00    +0.277 C 
ENDBRANCH  34   7
ENDBRANCH  27  29
ENDBRANCH  20  10
BRANCH   8   2
ATOM      2  S   UNL     1      14.415   6.933  -2.618  0.00  0.00    +0.061 S 
ATOM      3  O   UNL     1      13.664   8.111  -3.000  0.00  0.00    -0.153 OA
ATOM      4  O   UNL     1      15.574   6.512  -3.376  0.00  0.00    -0.153 OA
BRANCH   2  22
ATOM      1 CL   UNL     1      16.172   7.642   3.345  0.00  0.00    -0.084 Cl
ATOM     22  C   UNL     1      14.911   7.134  -0.935  0.00  0.00    +0.106 A 
ATOM     23  C   UNL     1      16.234   7.427  -0.648  0.00  0.00    +0.030 A 
ATOM     24  C   UNL     1      13.968   6.993   0.070  0.00  0.00    +0.030 A 
ATOM     25  C   UNL     1      16.625   7.585   0.681  0.00  0.00    +0.022 A 
ATOM     26  C   UNL     1      14.360   7.151   1.400  0.00  0.00    +0.022 A 
ATOM     28  C   UNL     1      15.688   7.447   1.705  0.00  0.00    +0.041 A 
ENDBRANCH   2  22
ENDBRANCH   8   2
TORSDOF 5
ENDMDL
MODEL 3
REMARK VINA RESULT:      -7.5      2.334      2.787
REMARK  Name = 11884447
REMARK  6 active torsions:
REMARK  status: ('A' for Active; 'I' for Inactive)
REMARK    1  A    between atoms: S_2  and  N_8
REMARK    2  A    between atoms: S_2  and  C_22
REMARK    3  A    between atoms: O_7  and  C_34
REMARK    4  A    between atoms: O_7  and  C_35
REMARK    5  A    between atoms: N_10  and  C_20
REMARK    6  A    between atoms: C_27  and  C_29
REMARK                            x       y       z     vdW  Elec       q    Type
REMARK                         _______ _______ _______ _____ _____    ______ ____
ROOT
ATOM      5  O   UNL     1     -10.427  -9.147  13.492  0.00  0.00    -0.266 OA
ATOM      8  N   UNL     1     -13.362  -5.260  12.445  0.00  0.00    -0.176 NA
ATOM      9  N   UNL     1     -12.235  -7.762  14.014  0.00  0.00    -0.310 N 
ATOM     11  C   UNL     1     -14.310  -7.568  12.525  0.00  0.00    +0.025 C 
ATOM     12  C   UNL     1     -14.160  -6.240  14.586  0.00  0.00    +0.052 C 
ATOM     13  C   UNL     1     -15.034  -7.231  13.822  0.00  0.00    +0.017 C 
ATOM     14  C   UNL     1     -14.102  -6.303  11.677  0.00  0.00    +0.114 C 
ATOM     15  C   UNL     1     -13.999  -4.951  13.760  0.00  0.00    +0.119 C 
ATOM     16  C   UNL     1     -12.989  -8.272  12.862  0.00  0.00    +0.130 C 
ATOM     17  C   UNL     1     -12.803  -6.839  14.900  0.00  0.00    +0.026 A 
ATOM     18  C   UNL     1     -12.140  -6.473  16.010  0.00  0.00    +0.024 A 
ATOM     19  C   UNL     1     -10.960  -8.321  14.236  0.00  0.00    +0.273 A 
ATOM     20  C   UNL     1     -10.244  -7.868  15.470  0.00  0.00    +0.099 A 
ATOM     21  C   UNL     1     -10.834  -6.998  16.297  0.00  0.00    +0.030 A 
ENDROOT
BRANCH  20  10
ATOM      6  O   UNL     1      -9.537  -9.650  17.585  0.00  0.00    -0.270 OA
ATOM     10  N   UNL     1      -9.002  -8.376  15.714  0.00  0.00    -0.277 N 
ATOM     27  C   UNL     1      -8.721  -9.241  16.762  0.00  0.00    +0.248 C 
ATOM     36  H   UNL     1      -8.254  -7.965  15.165  0.00  0.00    +0.155 HD
BRANCH  27  29
ATOM     29  C   UNL     1      -7.313  -9.708  16.852  0.00  0.00    +0.037 A 
ATOM     30  C   UNL     1      -6.530  -9.681  15.717  0.00  0.00    +0.016 A 
ATOM     31  C   UNL     1      -6.835 -10.154  18.066  0.00  0.00    +0.016 A 
ATOM     32  C   UNL     1      -5.207 -10.119  15.801  0.00  0.00    +0.046 A 
ATOM     33  C   UNL     1      -5.513 -10.591  18.150  0.00  0.00    +0.046 A 
ATOM     34  C   UNL     1      -4.699 -10.574  17.018  0.00  0.00    +0.120 A 
BRANCH  34   7
ATOM      7  O   UNL     1      -3.410 -10.999  17.101  0.00  0.00    -0.495 OA
ATOM     35  C   UNL     1      -2.551 -10.688  16.004  0.00  0.00    +0.277 C 
ENDBRANCH  34   7
ENDBRANCH  27  29
ENDBRANCH  20  10
BRANCH   8   2
ATOM      2  S   UNL     1     -12.843  -3.904  11.539  0.00  0.00    +0.061 S 
ATOM      3  O   UNL     1     -12.059  -3.036  12.392  0.00  0.00    -0.153 OA
ATOM      4  O   UNL     1     -13.962  -3.388  10.779  0.00  0.00    -0.153 OA
BRANCH   2  22
ATOM      1 CL   UNL     1      -8.923  -6.692   7.538  0.00  0.00    -0.084 Cl
ATOM     22  C   UNL     1     -11.737  -4.691  10.409  0.00  0.00    +0.106 A 
ATOM     23  C   UNL     1     -11.702  -6.075  10.346  0.00  0.00    +0.030 A 
ATOM     24  C   UNL     1     -10.921  -3.911   9.607  0.00  0.00    +0.030 A 
ATOM     25  C   UNL     1     -10.829  -6.695   9.455  0.00  0.00    +0.022 A 
ATOM     26  C   UNL     1     -10.046  -4.533   8.714  0.00  0.00    +0.022 A 
ATOM     28  C   UNL     1     -10.001  -5.925   8.638  0.00  0.00    +0.041 A 
ENDBRANCH   2  22
ENDBRANCH   8   2
TORSDOF 5
ENDMDL
MODEL 4
REMARK VINA RESULT:      -7.5      4.251     10.299
REMARK  Name = 11884447
REMARK  6 active torsions:
REMARK  status: ('A' for Active; 'I' for Inactive)
REMARK    1  A    between atoms: S_2  and  N_8
REMARK    2  A    between atoms: S_2  and  C_22
REMARK    3  A    between atoms: O_7  and  C_34
REMARK    4  A    between atoms: O_7  and  C_35
REMARK    5  A    between atoms: N_10  and  C_20
REMARK    6  A    between atoms: C_27  and  C_29
REMARK                            x       y       z     vdW  Elec       q    Type
REMARK                         _______ _______ _______ _____ _____    ______ ____
ROOT
ATOM      5  O   UNL     1      -7.384  -8.797  16.977  0.00  0.00    -0.266 OA
ATOM      8  N   UNL     1      -3.443 -11.634  15.866  0.00  0.00    -0.176 NA
ATOM      9  N   UNL     1      -6.391 -10.898  16.737  0.00  0.00    -0.310 N 
ATOM     11  C   UNL     1      -4.411 -11.669  18.167  0.00  0.00    +0.025 C 
ATOM     12  C   UNL     1      -5.320 -13.160  16.440  0.00  0.00    +0.052 C 
ATOM     13  C   UNL     1      -4.960 -13.067  17.920  0.00  0.00    +0.017 C 
ATOM     14  C   UNL     1      -3.156 -11.422  17.314  0.00  0.00    +0.114 C 
ATOM     15  C   UNL     1      -4.053 -12.969  15.589  0.00  0.00    +0.119 C 
ATOM     16  C   UNL     1      -5.518 -10.644  17.891  0.00  0.00    +0.130 C 
ATOM     17  C   UNL     1      -6.367 -12.127  16.068  0.00  0.00    +0.026 A 
ATOM     18  C   UNL     1      -7.253 -12.380  15.090  0.00  0.00    +0.024 A 
ATOM     19  C   UNL     1      -7.316  -9.887  16.407  0.00  0.00    +0.273 A 
ATOM     20  C   UNL     1      -8.269 -10.199  15.295  0.00  0.00    +0.099 A 
ATOM     21  C   UNL     1      -8.220 -11.394  14.697  0.00  0.00    +0.030 A 
ENDROOT
BRANCH  20  10
ATOM      6  O   UNL     1     -10.884  -9.854  16.387  0.00  0.00    -0.270 OA
ATOM     10  N   UNL     1      -9.172  -9.242  14.937  0.00  0.00    -0.277 N 
ATOM     27  C   UNL     1     -10.432  -9.126  15.506  0.00  0.00    +0.248 C 
ATOM     36  H   UNL     1      -8.922  -8.702  14.115  0.00  0.00    +0.155 HD
BRANCH  27  29
ATOM     29  C   UNL     1     -11.266  -8.004  15.002  0.00  0.00    +0.037 A 
ATOM     30  C   UNL     1     -11.926  -8.154  13.801  0.00  0.00    +0.016 A 
ATOM     31  C   UNL     1     -11.352  -6.848  15.750  0.00  0.00    +0.016 A 
ATOM     32  C   UNL     1     -12.710  -7.102  13.326  0.00  0.00    +0.046 A 
ATOM     33  C   UNL     1     -12.136  -5.797  15.276  0.00  0.00    +0.046 A 
ATOM     34  C   UNL     1     -12.814  -5.922  14.065  0.00  0.00    +0.120 A 
BRANCH  34   7
ATOM      7  O   UNL     1     -13.580  -4.897  13.604  0.00  0.00    -0.495 OA
ATOM     35  C   UNL     1     -12.935  -3.922  12.786  0.00  0.00    +0.277 C 
ENDBRANCH  34   7
ENDBRANCH  27  29
ENDBRANCH  20  10
BRANCH   8   2
ATOM      2  S   UNL     1      -2.206 -11.147  14.788  0.00  0.00    +0.061 S 
ATOM      3  O   UNL     1      -1.457 -12.313  14.369  0.00  0.00    -0.153 OA
ATOM      4  O   UNL     1      -1.534  -9.987  15.335  0.00  0.00    -0.153 OA
BRANCH   2  22
ATOM      1 CL   UNL     1      -5.663  -9.256   9.929  0.00  0.00    -0.084 Cl
ATOM     22  C   UNL     1      -3.181 -10.613  13.417  0.00  0.00    +0.106 A 
ATOM     23  C   UNL     1      -4.520 -10.314  13.612  0.00  0.00    +0.030 A 
ATOM     24  C   UNL     1      -2.592 -10.504  12.168  0.00  0.00    +0.030 A 
ATOM     25  C   UNL     1      -5.290  -9.893  12.529  0.00  0.00    +0.022 A 
ATOM     26  C   UNL     1      -3.364 -10.082  11.084  0.00  0.00    +0.022 A 
ATOM     28  C   UNL     1      -4.712  -9.776  11.265  0.00  0.00    +0.041 A 
ENDBRANCH   2  22
ENDBRANCH   8   2
TORSDOF 5
ENDMDL
MODEL 5
REMARK VINA RESULT:      -7.3      7.543     11.358
REMARK  Name = 11884447
REMARK  6 active torsions:
REMARK  status: ('A' for Active; 'I' for Inactive)
REMARK    1  A    between atoms: S_2  and  N_8
REMARK    2  A    between atoms: S_2  and  C_22
REMARK    3  A    between atoms: O_7  and  C_34
REMARK    4  A    between atoms: O_7  and  C_35
REMARK    5  A    between atoms: N_10  and  C_20
REMARK    6  A    between atoms: C_27  and  C_29
REMARK                            x       y       z     vdW  Elec       q    Type
REMARK                         _______ _______ _______ _____ _____    ______ ____
ROOT
ATOM      5  O   UNL     1      -6.736 -10.249  14.163  0.00  0.00    -0.266 OA
ATOM      8  N   UNL     1      -2.707 -13.061  13.338  0.00  0.00    -0.176 NA
ATOM      9  N   UNL     1      -4.419 -10.551  14.211  0.00  0.00    -0.310 N 
ATOM     11  C   UNL     1      -3.024 -10.919  12.095  0.00  0.00    +0.025 C 
ATOM     12  C   UNL     1      -1.925 -10.902  14.292  0.00  0.00    +0.052 C 
ATOM     13  C   UNL     1      -1.898 -10.281  12.898  0.00  0.00    +0.017 C 
ATOM     14  C   UNL     1      -2.817 -12.439  11.987  0.00  0.00    +0.114 C 
ATOM     15  C   UNL     1      -1.662 -12.414  14.187  0.00  0.00    +0.119 C 
ATOM     16  C   UNL     1      -4.366 -10.555  12.743  0.00  0.00    +0.130 C 
ATOM     17  C   UNL     1      -3.253 -10.643  14.979  0.00  0.00    +0.026 A 
ATOM     18  C   UNL     1      -3.314 -10.522  16.315  0.00  0.00    +0.024 A 
ATOM     19  C   UNL     1      -5.685 -10.351  14.799  0.00  0.00    +0.273 A 
ATOM     20  C   UNL     1      -5.713 -10.246  16.292  0.00  0.00    +0.099 A 
ATOM     21  C   UNL     1      -4.570 -10.322  16.982  0.00  0.00    +0.030 A 
ENDROOT
BRANCH  20  10
ATOM      6  O   UNL     1      -7.042 -12.116  17.989  0.00  0.00    -0.270 OA
ATOM     10  N   UNL     1      -6.920 -10.065  16.900  0.00  0.00    -0.277 N 
ATOM     27  C   UNL     1      -7.516 -11.015  17.716  0.00  0.00    +0.248 C 
ATOM     36  H   UNL     1      -7.434  -9.243  16.599  0.00  0.00    +0.155 HD
BRANCH  27  29
ATOM     29  C   UNL     1      -8.822 -10.627  18.309  0.00  0.00    +0.037 A 
ATOM     30  C   UNL     1      -9.625  -9.738  17.625  0.00  0.00    +0.016 A 
ATOM     31  C   UNL     1      -9.190 -11.166  19.525  0.00  0.00    +0.016 A 
ATOM     32  C   UNL     1     -10.852  -9.373  18.181  0.00  0.00    +0.046 A 
ATOM     33  C   UNL     1     -10.415 -10.802  20.080  0.00  0.00    +0.046 A 
ATOM     34  C   UNL     1     -11.247  -9.905  19.409  0.00  0.00    +0.120 A 
BRANCH  34   7
ATOM      7  O   UNL     1     -12.444  -9.551  19.951  0.00  0.00    -0.495 OA
ATOM     35  C   UNL     1     -13.068 -10.494  20.820  0.00  0.00    +0.277 C 
ENDBRANCH  34   7
ENDBRANCH  27  29
ENDBRANCH  20  10
BRANCH   8   2
ATOM      2  S   UNL     1      -2.730 -14.772  13.368  0.00  0.00    +0.061 S 
ATOM      3  O   UNL     1      -1.565 -15.249  14.083  0.00  0.00    -0.153 OA
ATOM      4  O   UNL     1      -3.043 -15.262  12.043  0.00  0.00    -0.153 OA
BRANCH   2  22
ATOM      1 CL   UNL     1      -7.728 -15.741  17.004  0.00  0.00    -0.084 Cl
ATOM     22  C   UNL     1      -4.140 -15.045  14.395  0.00  0.00    +0.106 A 
ATOM     23  C   UNL     1      -4.355 -16.304  14.932  0.00  0.00    +0.030 A 
ATOM     24  C   UNL     1      -5.010 -13.996  14.645  0.00  0.00    +0.030 A 
ATOM     25  C   UNL     1      -5.469 -16.520  15.742  0.00  0.00    +0.022 A 
ATOM     26  C   UNL     1      -6.125 -14.213  15.455  0.00  0.00    +0.022 A 
ATOM     28  C   UNL     1      -6.354 -15.474  16.004  0.00  0.00    +0.041 A 
ENDBRANCH   2  22
ENDBRANCH   8   2
TORSDOF 5
ENDMDL
MODEL 6
REMARK VINA RESULT:      -7.3      8.037      9.357
REMARK  Name = 11884447
REMARK  6 active torsions:
REMARK  status: ('A' for Active; 'I' for Inactive)
REMARK    1  A    between atoms: S_2  and  N_8
REMARK    2  A    between atoms: S_2  and  C_22
REMARK    3  A    between atoms: O_7  and  C_34
REMARK    4  A    between atoms: O_7  and  C_35
REMARK    5  A    between atoms: N_10  and  C_20
REMARK    6  A    between atoms: C_27  and  C_29
REMARK                            x       y       z     vdW  Elec       q    Type
REMARK                         _______ _______ _______ _____ _____    ______ ____
ROOT
ATOM      5  O   UNL     1      -8.339 -10.570   9.352  0.00  0.00    -0.266 OA
ATOM      8  N   UNL     1      -9.390  -8.986   4.747  0.00  0.00    -0.176 NA
ATOM      9  N   UNL     1      -9.154  -8.932   7.899  0.00  0.00    -0.310 N 
ATOM     11  C   UNL     1     -11.216  -9.288   6.423  0.00  0.00    +0.025 C 
ATOM     12  C   UNL     1      -9.997  -7.158   6.320  0.00  0.00    +0.052 C 
ATOM     13  C   UNL     1     -11.377  -7.777   6.528  0.00  0.00    +0.017 C 
ATOM     14  C   UNL     1     -10.678  -9.679   5.037  0.00  0.00    +0.114 C 
ATOM     15  C   UNL     1      -9.484  -7.504   4.911  0.00  0.00    +0.119 C 
ATOM     16  C   UNL     1     -10.311  -9.772   7.562  0.00  0.00    +0.130 C 
ATOM     17  C   UNL     1      -9.018  -7.643   7.373  0.00  0.00    +0.026 A 
ATOM     18  C   UNL     1      -8.015  -6.848   7.783  0.00  0.00    +0.024 A 
ATOM     19  C   UNL     1      -8.250  -9.448   8.850  0.00  0.00    +0.273 A 
ATOM     20  C   UNL     1      -7.133  -8.541   9.263  0.00  0.00    +0.099 A 
ATOM     21  C   UNL     1      -7.054  -7.310   8.745  0.00  0.00    +0.030 A 
ENDROOT
BRANCH  20  10
ATOM      6  O   UNL     1      -4.372  -9.072   8.775  0.00  0.00    -0.270 OA
ATOM     10  N   UNL     1      -6.230  -9.008  10.171  0.00  0.00    -0.277 N 
ATOM     27  C   UNL     1      -4.897  -9.247   9.872  0.00  0.00    +0.248 C 
ATOM     36  H   UNL     1      -6.627  -9.316  11.053  0.00  0.00    +0.155 HD
BRANCH  27  29
ATOM     29  C   UNL     1      -4.060  -9.733  11.000  0.00  0.00    +0.037 A 
ATOM     30  C   UNL     1      -4.681 -10.121  12.169  0.00  0.00    +0.016 A 
ATOM     31  C   UNL     1      -2.690  -9.779  10.843  0.00  0.00    +0.016 A 
ATOM     32  C   UNL     1      -3.896 -10.578  13.229  0.00  0.00    +0.046 A 
ATOM     33  C   UNL     1      -1.906 -10.236  11.902  0.00  0.00    +0.046 A 
ATOM     34  C   UNL     1      -2.508 -10.635  13.095  0.00  0.00    +0.120 A 
BRANCH  34   7
ATOM      7  O   UNL     1      -1.743 -11.081  14.127  0.00  0.00    -0.495 OA
ATOM     35  C   UNL     1      -1.411 -10.139  15.146  0.00  0.00    +0.277 C 
ENDBRANCH  34   7
ENDBRANCH  27  29
ENDBRANCH  20  10
BRANCH   8   2
ATOM      2  S   UNL     1      -8.558  -9.524   3.353  0.00  0.00    +0.061 S 
ATOM      3  O   UNL     1      -8.029  -8.378   2.644  0.00  0.00    -0.153 OA
ATOM      4  O   UNL     1      -9.369 -10.511   2.671  0.00  0.00    -0.153 OA
BRANCH   2  22
ATOM      1 CL   UNL     1      -3.748 -12.502   6.025  0.00  0.00    -0.084 Cl
ATOM     22  C   UNL     1      -7.200 -10.364   4.107  0.00  0.00    +0.106 A 
ATOM     23  C   UNL     1      -6.606 -11.426   3.443  0.00  0.00    +0.030 A 
ATOM     24  C   UNL     1      -6.752  -9.948   5.350  0.00  0.00    +0.030 A 
ATOM     25  C   UNL     1      -5.534 -12.089   4.040  0.00  0.00    +0.022 A 
ATOM     26  C   UNL     1      -5.679 -10.613   5.946  0.00  0.00    +0.022 A 
ATOM     28  C   UNL     1      -5.071 -11.683   5.290  0.00  0.00    +0.041 A 
ENDBRANCH   2  22
ENDBRANCH   8   2
TORSDOF 5
ENDMDL
MODEL 7
REMARK VINA RESULT:      -7.3      6.484     11.428
REMARK  Name = 11884447
REMARK  6 active torsions:
REMARK  status: ('A' for Active; 'I' for Inactive)
REMARK    1  A    between atoms: S_2  and  N_8
REMARK    2  A    between atoms: S_2  and  C_22
REMARK    3  A    between atoms: O_7  and  C_34
REMARK    4  A    between atoms: O_7  and  C_35
REMARK    5  A    between atoms: N_10  and  C_20
REMARK    6  A    between atoms: C_27  and  C_29
REMARK                            x       y       z     vdW  Elec       q    Type
REMARK                         _______ _______ _______ _____ _____    ______ ____
ROOT
ATOM      5  O   UNL     1      -5.464 -12.376  10.340  0.00  0.00    -0.266 OA
ATOM      8  N   UNL     1      -3.545 -12.149  14.932  0.00  0.00    -0.176 NA
ATOM      9  N   UNL     1      -3.622 -12.269  11.774  0.00  0.00    -0.310 N 
ATOM     11  C   UNL     1      -3.070 -14.112  13.464  0.00  0.00    +0.025 C 
ATOM     12  C   UNL     1      -1.645 -12.115  13.329  0.00  0.00    +0.052 C 
ATOM     13  C   UNL     1      -1.631 -13.642  13.292  0.00  0.00    +0.017 C 
ATOM     14  C   UNL     1      -3.639 -13.633  14.809  0.00  0.00    +0.114 C 
ATOM     15  C   UNL     1      -2.162 -11.637  14.697  0.00  0.00    +0.119 C 
ATOM     16  C   UNL     1      -3.899 -13.624  12.270  0.00  0.00    +0.130 C 
ATOM     17  C   UNL     1      -2.504 -11.551  12.212  0.00  0.00    +0.026 A 
ATOM     18  C   UNL     1      -2.206 -10.362  11.663  0.00  0.00    +0.024 A 
ATOM     19  C   UNL     1      -4.477 -11.774  10.768  0.00  0.00    +0.273 A 
ATOM     20  C   UNL     1      -4.125 -10.435  10.198  0.00  0.00    +0.099 A 
ATOM     21  C   UNL     1      -3.036  -9.795  10.637  0.00  0.00    +0.030 A 
ENDROOT
BRANCH  20  10
ATOM      6  O   UNL     1      -6.380  -8.739  10.622  0.00  0.00    -0.270 OA
ATOM     10  N   UNL     1      -4.935  -9.917   9.232  0.00  0.00    -0.277 N 
ATOM     27  C   UNL     1      -6.020  -9.095   9.502  0.00  0.00    +0.248 C 
ATOM     36  H   UNL     1      -4.786 -10.289   8.300  0.00  0.00    +0.155 HD
BRANCH  27  29
ATOM     29  C   UNL     1      -6.770  -8.608   8.316  0.00  0.00    +0.037 A 
ATOM     30  C   UNL     1      -6.672  -9.309   7.132  0.00  0.00    +0.016 A 
ATOM     31  C   UNL     1      -7.540  -7.469   8.435  0.00  0.00    +0.016 A 
ATOM     32  C   UNL     1      -7.376  -8.852   6.018  0.00  0.00    +0.046 A 
ATOM     33  C   UNL     1      -8.244  -7.012   7.322  0.00  0.00    +0.046 A 
ATOM     34  C   UNL     1      -8.163  -7.703   6.113  0.00  0.00    +0.120 A 
BRANCH  34   7
ATOM      7  O   UNL     1      -8.851  -7.258   5.027  0.00  0.00    -0.495 OA
ATOM     35  C   UNL     1     -10.274  -7.225   5.129  0.00  0.00    +0.277 C 
ENDBRANCH  34   7
ENDBRANCH  27  29
ENDBRANCH  20  10
BRANCH   8   2
ATOM      2  S   UNL     1      -4.371 -11.464  16.265  0.00  0.00    +0.061 S 
ATOM      3  O   UNL     1      -3.658 -10.285  16.709  0.00  0.00    -0.153 OA
ATOM      4  O   UNL     1      -4.720 -12.517  17.195  0.00  0.00    -0.153 OA
BRANCH   2  22
ATOM      1 CL   UNL     1      -9.624  -9.566  13.448  0.00  0.00    -0.084 Cl
ATOM     22  C   UNL     1      -5.854 -10.929  15.470  0.00  0.00    +0.106 A 
ATOM     23  C   UNL     1      -5.885 -10.830  14.088  0.00  0.00    +0.030 A 
ATOM     24  C   UNL     1      -6.960 -10.614  16.241  0.00  0.00    +0.030 A 
ATOM     25  C   UNL     1      -7.056 -10.407  13.461  0.00  0.00    +0.022 A 
ATOM     26  C   UNL     1      -8.132 -10.190  15.612  0.00  0.00    +0.022 A 
ATOM     28  C   UNL     1      -8.180 -10.088  14.222  0.00  0.00    +0.041 A 
ENDBRANCH   2  22
ENDBRANCH   8   2
TORSDOF 5
ENDMDL
MODEL 8
REMARK VINA RESULT:      -7.2     31.339     37.166
REMARK  Name = 11884447
REMARK  6 active torsions:
REMARK  status: ('A' for Active; 'I' for Inactive)
REMARK    1  A    between atoms: S_2  and  N_8
REMARK    2  A    between atoms: S_2  and  C_22
REMARK    3  A    between atoms: O_7  and  C_34
REMARK    4  A    between atoms: O_7  and  C_35
REMARK    5  A    between atoms: N_10  and  C_20
REMARK    6  A    between atoms: C_27  and  C_29
REMARK                            x       y       z     vdW  Elec       q    Type
REMARK                         _______ _______ _______ _____ _____    ______ ____
ROOT
ATOM      5  O   UNL     1      21.142   3.107  20.854  0.00  0.00    -0.266 OA
ATOM      8  N   UNL     1      25.152   3.260  23.807  0.00  0.00    -0.176 NA
ATOM      9  N   UNL     1      23.421   3.509  21.173  0.00  0.00    -0.310 N 
ATOM     11  C   UNL     1      25.068   1.679  21.877  0.00  0.00    +0.025 C 
ATOM     12  C   UNL     1      25.871   3.975  21.536  0.00  0.00    +0.052 C 
ATOM     13  C   UNL     1      26.100   2.520  21.136  0.00  0.00    +0.017 C 
ATOM     14  C   UNL     1      25.239   1.829  23.397  0.00  0.00    +0.114 C 
ATOM     15  C   UNL     1      26.097   4.135  23.050  0.00  0.00    +0.119 C 
ATOM     16  C   UNL     1      23.666   2.079  21.402  0.00  0.00    +0.130 C 
ATOM     17  C   UNL     1      24.474   4.431  21.159  0.00  0.00    +0.026 A 
ATOM     18  C   UNL     1      24.243   5.714  20.835  0.00  0.00    +0.024 A 
ATOM     19  C   UNL     1      22.097   3.886  20.870  0.00  0.00    +0.273 A 
ATOM     20  C   UNL     1      21.878   5.329  20.538  0.00  0.00    +0.099 A 
ATOM     21  C   UNL     1      22.918   6.170  20.521  0.00  0.00    +0.030 A 
ENDROOT
BRANCH  20  10
ATOM      6  O   UNL     1      19.972   6.342  22.404  0.00  0.00    -0.270 OA
ATOM     10  N   UNL     1      20.609   5.735  20.252  0.00  0.00    -0.277 N 
ATOM     27  C   UNL     1      19.726   6.220  21.206  0.00  0.00    +0.248 C 
ATOM     36  H   UNL     1      20.290   5.523  19.312  0.00  0.00    +0.155 HD
BRANCH  27  29
ATOM     29  C   UNL     1      18.393   6.637  20.699  0.00  0.00    +0.037 A 
ATOM     30  C   UNL     1      17.837   5.946  19.643  0.00  0.00    +0.016 A 
ATOM     31  C   UNL     1      17.755   7.702  21.300  0.00  0.00    +0.016 A 
ATOM     32  C   UNL     1      16.586   6.337  19.166  0.00  0.00    +0.046 A 
ATOM     33  C   UNL     1      16.504   8.093  20.823  0.00  0.00    +0.046 A 
ATOM     34  C   UNL     1      15.918   7.411  19.757  0.00  0.00    +0.120 A 
BRANCH  34   7
ATOM      7  O   UNL     1      14.697   7.791  19.294  0.00  0.00    -0.495 OA
ATOM     35  C   UNL     1      13.569   7.044  19.746  0.00  0.00    +0.277 C 
ENDBRANCH  34   7
ENDBRANCH  27  29
ENDBRANCH  20  10
BRANCH   8   2
ATOM      2  S   UNL     1      25.071   3.544  25.492  0.00  0.00    +0.061 S 
ATOM      3  O   UNL     1      26.265   4.244  25.913  0.00  0.00    -0.153 OA
ATOM      4  O   UNL     1      24.648   2.328  26.154  0.00  0.00    -0.153 OA
BRANCH   2  22
ATOM      1 CL   UNL     1      20.309   7.597  25.696  0.00  0.00    -0.084 Cl
ATOM     22  C   UNL     1      23.727   4.688  25.550  0.00  0.00    +0.106 A 
ATOM     23  C   UNL     1      22.886   4.692  26.651  0.00  0.00    +0.030 A 
ATOM     24  C   UNL     1      23.535   5.561  24.492  0.00  0.00    +0.030 A 
ATOM     25  C   UNL     1      21.825   5.595  26.696  0.00  0.00    +0.022 A 
ATOM     26  C   UNL     1      22.473   6.465  24.538  0.00  0.00    +0.022 A 
ATOM     28  C   UNL     1      21.619   6.482  25.640  0.00  0.00    +0.041 A 
ENDBRANCH   2  22
ENDBRANCH   8   2
TORSDOF 5
ENDMDL
MODEL 9
REMARK VINA RESULT:      -7.2     24.077     27.668
REMARK  Name = 11884447
REMARK  6 active torsions:
REMARK  status: ('A' for Active; 'I' for Inactive)
REMARK    1  A    between atoms: S_2  and  N_8
REMARK    2  A    between atoms: S_2  and  C_22
REMARK    3  A    between atoms: O_7  and  C_34
REMARK    4  A    between atoms: O_7  and  C_35
REMARK    5  A    between atoms: N_10  and  C_20
REMARK    6  A    between atoms: C_27  and  C_29
REMARK                            x       y       z     vdW  Elec       q    Type
REMARK                         _______ _______ _______ _____ _____    ______ ____
ROOT
ATOM      5  O   UNL     1       9.703  -9.344  32.092  0.00  0.00    -0.266 OA
ATOM      8  N   UNL     1       8.125  -7.029  36.212  0.00  0.00    -0.176 NA
ATOM      9  N   UNL     1       8.720  -7.503  33.143  0.00  0.00    -0.310 N 
ATOM     11  C   UNL     1       9.966  -6.046  34.842  0.00  0.00    +0.025 C 
ATOM     12  C   UNL     1       7.628  -5.539  34.284  0.00  0.00    +0.052 C 
ATOM     13  C   UNL     1       9.031  -4.942  34.367  0.00  0.00    +0.017 C 
ATOM     14  C   UNL     1       9.540  -6.558  36.227  0.00  0.00    +0.114 C 
ATOM     15  C   UNL     1       7.181  -6.000  35.682  0.00  0.00    +0.119 C 
ATOM     16  C   UNL     1       9.995  -7.160  33.788  0.00  0.00    +0.130 C 
ATOM     17  C   UNL     1       7.587  -6.699  33.306  0.00  0.00    +0.026 A 
ATOM     18  C   UNL     1       6.465  -6.966  32.618  0.00  0.00    +0.024 A 
ATOM     19  C   UNL     1       8.726  -8.617  32.279  0.00  0.00    +0.273 A 
ATOM     20  C   UNL     1       7.449  -8.894  31.548  0.00  0.00    +0.099 A 
ATOM     21  C   UNL     1       6.397  -8.087  31.723  0.00  0.00    +0.030 A 
ENDROOT
BRANCH  20  10
ATOM      6  O   UNL     1       6.461 -11.493  32.192  0.00  0.00    -0.270 OA
ATOM     10  N   UNL     1       7.410  -9.970  30.712  0.00  0.00    -0.277 N 
ATOM     27  C   UNL     1       6.916 -11.212  31.085  0.00  0.00    +0.248 C 
ATOM     36  H   UNL     1       7.904  -9.852  29.834  0.00  0.00    +0.155 HD
BRANCH  27  29
ATOM     29  C   UNL     1       6.934 -12.257  30.029  0.00  0.00    +0.037 A 
ATOM     30  C   UNL     1       7.918 -12.210  29.064  0.00  0.00    +0.016 A 
ATOM     31  C   UNL     1       5.965 -13.239  30.045  0.00  0.00    +0.016 A 
ATOM     32  C   UNL     1       7.935 -13.191  28.071  0.00  0.00    +0.046 A 
ATOM     33  C   UNL     1       5.982 -14.219  29.053  0.00  0.00    +0.046 A 
ATOM     34  C   UNL     1       6.967 -14.196  28.066  0.00  0.00    +0.120 A 
BRANCH  34   7
ATOM      7  O   UNL     1       6.984 -15.153  27.100  0.00  0.00    -0.495 OA
ATOM     35  C   UNL     1       5.730 -15.523  26.528  0.00  0.00    +0.277 C 
ENDBRANCH  34   7
ENDBRANCH  27  29
ENDBRANCH  20  10
BRANCH   8   2
ATOM      2  S   UNL     1       7.605  -7.856  37.617  0.00  0.00    +0.061 S 
ATOM      3  O   UNL     1       7.336  -6.892  38.662  0.00  0.00    -0.153 OA
ATOM      4  O   UNL     1       8.483  -8.983  37.851  0.00  0.00    -0.153 OA
BRANCH   2  22
ATOM      1 CL   UNL     1       2.112 -10.083  35.614  0.00  0.00    -0.084 Cl
ATOM     22  C   UNL     1       6.055  -8.484  37.051  0.00  0.00    +0.106 A 
ATOM     23  C   UNL     1       4.947  -8.401  37.879  0.00  0.00    +0.030 A 
ATOM     24  C   UNL     1       5.973  -9.052  35.790  0.00  0.00    +0.030 A 
ATOM     25  C   UNL     1       3.722  -8.897  37.432  0.00  0.00    +0.022 A 
ATOM     26  C   UNL     1       4.747  -9.548  35.344  0.00  0.00    +0.022 A 
ATOM     28  C   UNL     1       3.623  -9.470  36.165  0.00  0.00    +0.041 A 
ENDBRANCH   2  22
ENDBRANCH   8   2
TORSDOF 5
ENDMDL
MODEL 10
REMARK VINA RESULT:      -7.2     28.327     31.838
REMARK  Name = 11884447
REMARK  6 active torsions:
REMARK  status: ('A' for Active; 'I' for Inactive)
REMARK    1  A    between atoms: S_2  and  N_8
REMARK    2  A    between atoms: S_2  and  C_22
REMARK    3  A    between atoms: O_7  and  C_34
REMARK    4  A    between atoms: O_7  and  C_35
REMARK    5  A    between atoms: N_10  and  C_20
REMARK    6  A    between atoms: C_27  and  C_29
REMARK                            x       y       z     vdW  Elec       q    Type
REMARK                         _______ _______ _______ _____ _____    ______ ____
ROOT
ATOM      5  O   UNL     1      15.993   6.482  21.683  0.00  0.00    -0.266 OA
ATOM      8  N   UNL     1      12.123   8.643  19.408  0.00  0.00    -0.176 NA
ATOM      9  N   UNL     1      14.562   8.306  21.390  0.00  0.00    -0.310 N 
ATOM     11  C   UNL     1      12.048   8.188  21.862  0.00  0.00    +0.025 C 
ATOM     12  C   UNL     1      13.037  10.281  21.040  0.00  0.00    +0.052 C 
ATOM     13  C   UNL     1      12.176   9.679  22.147  0.00  0.00    +0.017 C 
ATOM     14  C   UNL     1      11.375   7.954  20.500  0.00  0.00    +0.114 C 
ATOM     15  C   UNL     1      12.335  10.095  19.683  0.00  0.00    +0.119 C 
ATOM     16  C   UNL     1      13.437   7.544  21.948  0.00  0.00    +0.130 C 
ATOM     17  C   UNL     1      14.414   9.646  21.014  0.00  0.00    +0.026 A 
ATOM     18  C   UNL     1      15.482  10.357  20.614  0.00  0.00    +0.024 A 
ATOM     19  C   UNL     1      15.812   7.654  21.348  0.00  0.00    +0.273 A 
ATOM     20  C   UNL     1      16.971   8.474  20.874  0.00  0.00    +0.099 A 
ATOM     21  C   UNL     1      16.784   9.756  20.541  0.00  0.00    +0.030 A 
ENDROOT
BRANCH  20  10
ATOM      6  O   UNL     1      19.113   8.804  22.730  0.00  0.00    -0.270 OA
ATOM     10  N   UNL     1      18.194   7.875  20.806  0.00  0.00    -0.277 N 
ATOM     27  C   UNL     1      19.198   8.077  21.743  0.00  0.00    +0.248 C 
ATOM     36  H   UNL     1      18.384   7.381  19.941  0.00  0.00    +0.155 HD
BRANCH  27  29
ATOM     29  C   UNL     1      20.455   7.319  21.514  0.00  0.00    +0.037 A 
ATOM     30  C   UNL     1      21.400   7.842  20.657  0.00  0.00    +0.016 A 
ATOM     31  C   UNL     1      20.636   6.116  22.164  0.00  0.00    +0.016 A 
ATOM     32  C   UNL     1      22.581   7.131  20.441  0.00  0.00    +0.046 A 
ATOM     33  C   UNL     1      21.816   5.405  21.948  0.00  0.00    +0.046 A 
ATOM     34  C   UNL     1      22.789   5.912  21.087  0.00  0.00    +0.120 A 
BRANCH  34   7
ATOM      7  O   UNL     1      23.941   5.219  20.879  0.00  0.00    -0.495 OA
ATOM     35  C   UNL     1      23.817   3.840  20.535  0.00  0.00    +0.277 C 
ENDBRANCH  34   7
ENDBRANCH  27  29
ENDBRANCH  20  10
BRANCH   8   2
ATOM      2  S   UNL     1      11.630   8.256  17.816  0.00  0.00    +0.061 S 
ATOM      3  O   UNL     1      10.282   8.742  17.606  0.00  0.00    -0.153 OA
ATOM      4  O   UNL     1      11.976   6.878  17.537  0.00  0.00    -0.153 OA
BRANCH   2  22
ATOM      1 CL   UNL     1      15.509  11.916  14.545  0.00  0.00    -0.084 Cl
ATOM     22  C   UNL     1      12.725   9.288  16.893  0.00  0.00    +0.106 A 
ATOM     23  C   UNL     1      13.992   9.549  17.389  0.00  0.00    +0.030 A 
ATOM     24  C   UNL     1      12.298   9.822  15.688  0.00  0.00    +0.030 A 
ATOM     25  C   UNL     1      14.856  10.365  16.660  0.00  0.00    +0.022 A 
ATOM     26  C   UNL     1      13.163  10.639  14.958  0.00  0.00    +0.022 A 
ATOM     28  C   UNL     1      14.442  10.909  15.445  0.00  0.00    +0.041 A 
ENDBRANCH   2  22
ENDBRANCH   8   2
TORSDOF 5
ENDMDL
