REMARK  Name = 75537127
REMARK  3 active torsions:
REMARK  status: ('A' for Active; 'I' for Inactive)
REMARK    1  A    between atoms: N_2  and  C_7
REMARK    2  A    between atoms: N_4  and  C_18
REMARK    3  A    between atoms: C_18  and  C_19
REMARK                            x       y       z     vdW  Elec       q    Type
REMARK                         _______ _______ _______ _____ _____    ______ ____
ROOT
ATOM      1  O   UNL     1       2.731   2.711  -0.091  0.00  0.00    -0.252 OA
ATOM      2  N   UNL     1       2.440   0.371  -0.177  0.00  0.00    -0.281 N 
ATOM      3  N   UNL     1       0.623   1.688  -0.268  0.00  0.00    -0.278 N 
ATOM      4  N   UNL     1      -2.098   1.179   0.231  0.00  0.00    -0.295 NA
ATOM      6  C   UNL     1       0.111   0.348  -0.468  0.00  0.00    +0.109 C 
ATOM      8  C   UNL     1       1.314  -0.547  -0.175  0.00  0.00    +0.133 C 
ATOM      9  C   UNL     1      -1.103   0.104   0.427  0.00  0.00    +0.109 C 
ATOM     12  C   UNL     1       2.021   1.717  -0.173  0.00  0.00    +0.305 C 
ATOM     13  C   UNL     1      -0.294   2.808  -0.291  0.00  0.00    +0.125 C 
ATOM     14  C   UNL     1      -1.522   2.496   0.569  0.00  0.00    +0.104 C 
ENDROOT
BRANCH   2   7
ATOM      7  C   UNL     1       3.802  -0.088  -0.044  0.00  0.00    +0.078 C 
ATOM     10  C   UNL     1       4.236  -0.849  -1.299  0.00  0.00    +0.022 C 
ATOM     11  C   UNL     1       3.963  -0.948   1.212  0.00  0.00    +0.022 C 
ATOM     15  C   UNL     1       5.656  -1.392  -1.164  0.00  0.00    +0.002 C 
ATOM     16  C   UNL     1       5.384  -1.490   1.344  0.00  0.00    +0.002 C 
ATOM     17  C   UNL     1       5.816  -2.246   0.091  0.00  0.00    +0.000 C 
ENDBRANCH   2   7
BRANCH   4  18
ATOM     18  C   UNL     1      -3.290   0.922   1.038  0.00  0.00    +0.121 C 
BRANCH  18  19
ATOM      5  N   UNL     1      -4.955  -2.422   0.421  0.00  0.00    -0.263 NA
ATOM     19  C   UNL     1      -4.167  -0.136   0.423  0.00  0.00    -0.015 A 
ATOM     20  C   UNL     1      -4.976   0.151  -0.671  0.00  0.00    +0.008 A 
ATOM     21  C   UNL     1      -4.192  -1.426   0.927  0.00  0.00    +0.115 A 
ATOM     22  C   UNL     1      -5.774  -0.847  -1.220  0.00  0.00    +0.020 A 
ATOM     23  C   UNL     1      -5.728  -2.105  -0.641  0.00  0.00    +0.111 A 
ENDBRANCH  18  19
ENDBRANCH   4  18
TORSDOF 3
