MODEL 1
REMARK VINA RESULT:      -7.2      0.000      0.000
REMARK  Name = 95790522
REMARK  11 active torsions:
REMARK  status: ('A' for Active; 'I' for Inactive)
REMARK    1  A    between atoms: N_5  and  C_24
REMARK    2  A    between atoms: N_7  and  C_29
REMARK    3  A    between atoms: N_7  and  C_31
REMARK    4  A    between atoms: N_7  and  C_33
REMARK    5  A    between atoms: N_9  and  C_34
REMARK    6  A    between atoms: N_9  and  C_38
REMARK    7  A    between atoms: N_9  and  C_39
REMARK    8  A    between atoms: C_11  and  C_16
REMARK    9  A    between atoms: C_16  and  C_19
REMARK   10  A    between atoms: C_24  and  C_28
REMARK   11  A    between atoms: C_31  and  C_34
REMARK                            x       y       z     vdW  Elec       q    Type
REMARK                         _______ _______ _______ _____ _____    ______ ____
ROOT
ATOM      1  O   UNL     1     -15.206   9.552  30.746  0.00  0.00    -0.492 OA
ATOM      2  O   UNL     1     -12.761  12.177  31.292  0.00  0.00    -0.274 OA
ATOM      4  N   UNL     1     -11.856  11.533  29.260  0.00  0.00    -0.300 N 
ATOM      6  N   UNL     1     -11.992   9.151  31.328  0.00  0.00    -0.304 NA
ATOM     10  C   UNL     1     -13.502  11.580  27.416  0.00  0.00    +0.010 C 
ATOM     11  C   UNL     1     -12.414  11.014  26.461  0.00  0.00    +0.004 C 
ATOM     12  C   UNL     1     -11.399  10.152  27.232  0.00  0.00    +0.023 C 
ATOM     13  C   UNL     1     -12.773  12.392  28.505  0.00  0.00    +0.111 C 
ATOM     14  C   UNL     1     -14.396  10.468  28.016  0.00  0.00    +0.008 C 
ATOM     15  C   UNL     1     -10.820  10.884  28.445  0.00  0.00    +0.108 C 
ATOM     17  C   UNL     1     -15.579  10.963  28.861  0.00  0.00    +0.041 C 
ATOM     18  C   UNL     1     -11.992  11.455  30.647  0.00  0.00    +0.229 C 
ATOM     20  C   UNL     1     -16.144   9.810  29.698  0.00  0.00    +0.229 C 
ATOM     21  C   UNL     1     -11.210  10.387  31.391  0.00  0.00    +0.178 C 
ATOM     22  C   UNL     1     -12.993   9.083  32.398  0.00  0.00    +0.120 C 
ATOM     23  C   UNL     1     -15.163   8.301  31.301  0.00  0.00    +0.125 A 
ATOM     25  C   UNL     1     -14.049   8.032  32.126  0.00  0.00    +0.010 A 
ATOM     26  C   UNL     1     -13.917   6.762  32.706  0.00  0.00    +0.031 A 
ATOM     27  C   UNL     1     -16.143   7.320  31.118  0.00  0.00    +0.048 A 
ATOM     29  C   UNL     1     -14.887   5.783  32.499  0.00  0.00    +0.030 A 
ATOM     30  C   UNL     1     -16.000   6.065  31.712  0.00  0.00    +0.027 A 
ATOM     41  H   UNL     1     -11.364   8.352  31.424  0.00  0.00    +0.123 HD
ENDROOT
BRANCH  29   7
ATOM      7  N   UNL     1     -14.737   4.506  33.077  0.00  0.00    -0.332 N 
ATOM     33  C   UNL     1     -14.380   4.371  34.475  0.00  0.00    +0.129 C 
BRANCH   7  31
ATOM     31  C   UNL     1     -14.945   3.312  32.282  0.00  0.00    +0.120 C 
BRANCH  31  34
ATOM     34  C   UNL     1     -13.598   2.717  31.891  0.00  0.00    +0.102 C 
BRANCH  34   9
ATOM      9  N   UNL     1     -13.573   2.415  30.465  0.00  0.00    -0.307 NA
ATOM     38  C   UNL     1     -13.744   0.978  30.238  0.00  0.00    +0.104 C 
ATOM     39  C   UNL     1     -14.614   3.167  29.761  0.00  0.00    +0.104 C 
ENDBRANCH  34   9
ENDBRANCH  31  34
ENDBRANCH   7  31
ENDBRANCH  29   7
BRANCH  11  16
ATOM     16  C   UNL     1     -12.987  10.242  25.273  0.00  0.00    +0.099 C 
BRANCH  16  19
ATOM      3  O   UNL     1     -11.757  11.758  23.844  0.00  0.00    -0.276 OA
ATOM      5  N   UNL     1     -13.112  10.133  22.884  0.00  0.00    -0.310 N 
ATOM     19  C   UNL     1     -12.534  10.813  23.946  0.00  0.00    +0.214 C 
ATOM     40  H   UNL     1     -13.757   9.369  23.064  0.00  0.00    +0.149 HD
BRANCH   5  24
ATOM     24  C   UNL     1     -12.858  10.466  21.501  0.00  0.00    +0.159 C 
BRANCH  24  28
ATOM      8  N   UNL     1     -11.743   9.555  19.544  0.00  0.00    -0.258 NA
ATOM     28  C   UNL     1     -12.347   9.287  20.725  0.00  0.00    +0.058 A 
ATOM     32  C   UNL     1     -12.512   8.012  21.240  0.00  0.00    +0.025 A 
ATOM     35  C   UNL     1     -12.027   6.942  20.496  0.00  0.00    +0.003 A 
ATOM     36  C   UNL     1     -11.284   8.489  18.851  0.00  0.00    +0.111 A 
ATOM     37  C   UNL     1     -11.400   7.176  19.278  0.00  0.00    +0.020 A 
ENDBRANCH  24  28
ENDBRANCH   5  24
ENDBRANCH  16  19
ENDBRANCH  11  16
TORSDOF 8
ENDMDL
MODEL 2
REMARK VINA RESULT:      -7.1     28.652     31.469
REMARK  Name = 95790522
REMARK  11 active torsions:
REMARK  status: ('A' for Active; 'I' for Inactive)
REMARK    1  A    between atoms: N_5  and  C_24
REMARK    2  A    between atoms: N_7  and  C_29
REMARK    3  A    between atoms: N_7  and  C_31
REMARK    4  A    between atoms: N_7  and  C_33
REMARK    5  A    between atoms: N_9  and  C_34
REMARK    6  A    between atoms: N_9  and  C_38
REMARK    7  A    between atoms: N_9  and  C_39
REMARK    8  A    between atoms: C_11  and  C_16
REMARK    9  A    between atoms: C_16  and  C_19
REMARK   10  A    between atoms: C_24  and  C_28
REMARK   11  A    between atoms: C_31  and  C_34
REMARK                            x       y       z     vdW  Elec       q    Type
REMARK                         _______ _______ _______ _____ _____    ______ ____
ROOT
ATOM      1  O   UNL     1      15.655   7.674  20.202  0.00  0.00    -0.492 OA
ATOM      2  O   UNL     1      14.248  10.752  21.510  0.00  0.00    -0.274 OA
ATOM      4  N   UNL     1      14.574  11.613  19.385  0.00  0.00    -0.300 N 
ATOM      6  N   UNL     1      17.245  10.517  20.664  0.00  0.00    -0.304 NA
ATOM     10  C   UNL     1      13.479  10.266  17.624  0.00  0.00    +0.010 C 
ATOM     11  C   UNL     1      14.090  11.213  16.553  0.00  0.00    +0.004 C 
ATOM     12  C   UNL     1      15.417  11.818  17.046  0.00  0.00    +0.023 C 
ATOM     13  C   UNL     1      13.286  11.098  18.909  0.00  0.00    +0.111 C 
ATOM     14  C   UNL     1      14.350   9.010  17.866  0.00  0.00    +0.008 C 
ATOM     15  C   UNL     1      15.281  12.470  18.423  0.00  0.00    +0.108 C 
ATOM     17  C   UNL     1      13.742   7.963  18.811  0.00  0.00    +0.041 C 
ATOM     18  C   UNL     1      14.979  11.316  20.688  0.00  0.00    +0.229 C 
ATOM     20  C   UNL     1      14.823   6.979  19.270  0.00  0.00    +0.229 C 
ATOM     21  C   UNL     1      16.406  11.639  21.092  0.00  0.00    +0.178 C 
ATOM     22  C   UNL     1      17.266   9.441  21.660  0.00  0.00    +0.120 C 
ATOM     23  C   UNL     1      16.950   7.261  20.367  0.00  0.00    +0.125 A 
ATOM     25  C   UNL     1      17.789   8.141  21.085  0.00  0.00    +0.010 A 
ATOM     26  C   UNL     1      19.138   7.804  21.269  0.00  0.00    +0.031 A 
ATOM     27  C   UNL     1      17.460   6.046  19.898  0.00  0.00    +0.048 A 
ATOM     29  C   UNL     1      19.642   6.602  20.777  0.00  0.00    +0.030 A 
ATOM     30  C   UNL     1      18.802   5.722  20.100  0.00  0.00    +0.027 A 
ATOM     41  H   UNL     1      18.201  10.847  20.526  0.00  0.00    +0.123 HD
ENDROOT
BRANCH  29   7
ATOM      7  N   UNL     1      21.004   6.280  20.957  0.00  0.00    -0.332 N 
ATOM     33  C   UNL     1      22.038   7.171  20.470  0.00  0.00    +0.129 C 
BRANCH   7  31
ATOM     31  C   UNL     1      21.385   5.059  21.637  0.00  0.00    +0.120 C 
BRANCH  31  34
ATOM     34  C   UNL     1      22.443   4.327  20.821  0.00  0.00    +0.102 C 
BRANCH  34   9
ATOM      9  N   UNL     1      23.224   3.445  21.678  0.00  0.00    -0.307 NA
ATOM     38  C   UNL     1      22.480   3.115  22.895  0.00  0.00    +0.104 C 
ATOM     39  C   UNL     1      23.591   2.222  20.960  0.00  0.00    +0.104 C 
ENDBRANCH  34   9
ENDBRANCH  31  34
ENDBRANCH   7  31
ENDBRANCH  29   7
BRANCH  11  16
ATOM     16  C   UNL     1      14.271  10.552  15.187  0.00  0.00    +0.099 C 
BRANCH  16  19
ATOM      3  O   UNL     1      14.930  11.753  13.194  0.00  0.00    -0.276 OA
ATOM      5  N   UNL     1      12.825  12.124  14.104  0.00  0.00    -0.310 N 
ATOM     19  C   UNL     1      14.077  11.529  14.047  0.00  0.00    +0.214 C 
ATOM     40  H   UNL     1      12.187  11.887  14.858  0.00  0.00    +0.149 HD
BRANCH   5  24
ATOM     24  C   UNL     1      12.371  13.101  13.142  0.00  0.00    +0.159 C 
BRANCH  24  28
ATOM      8  N   UNL     1      12.310  12.103  10.927  0.00  0.00    -0.258 NA
ATOM     28  C   UNL     1      11.601  12.467  12.020  0.00  0.00    +0.058 A 
ATOM     32  C   UNL     1      10.234  12.286  12.152  0.00  0.00    +0.025 A 
ATOM     35  C   UNL     1       9.550  11.694  11.096  0.00  0.00    +0.003 A 
ATOM     36  C   UNL     1      11.611  11.532   9.921  0.00  0.00    +0.111 A 
ATOM     37  C   UNL     1      10.245  11.308   9.956  0.00  0.00    +0.020 A 
ENDBRANCH  24  28
ENDBRANCH   5  24
ENDBRANCH  16  19
ENDBRANCH  11  16
TORSDOF 8
ENDMDL
MODEL 3
REMARK VINA RESULT:      -7.1     20.649     25.722
REMARK  Name = 95790522
REMARK  11 active torsions:
REMARK  status: ('A' for Active; 'I' for Inactive)
REMARK    1  A    between atoms: N_5  and  C_24
REMARK    2  A    between atoms: N_7  and  C_29
REMARK    3  A    between atoms: N_7  and  C_31
REMARK    4  A    between atoms: N_7  and  C_33
REMARK    5  A    between atoms: N_9  and  C_34
REMARK    6  A    between atoms: N_9  and  C_38
REMARK    7  A    between atoms: N_9  and  C_39
REMARK    8  A    between atoms: C_11  and  C_16
REMARK    9  A    between atoms: C_16  and  C_19
REMARK   10  A    between atoms: C_24  and  C_28
REMARK   11  A    between atoms: C_31  and  C_34
REMARK                            x       y       z     vdW  Elec       q    Type
REMARK                         _______ _______ _______ _____ _____    ______ ____
ROOT
ATOM      1  O   UNL     1      -7.428 -12.328  12.371  0.00  0.00    -0.492 OA
ATOM      2  O   UNL     1      -5.783 -11.079   9.388  0.00  0.00    -0.274 OA
ATOM      4  N   UNL     1      -3.927 -10.772  10.739  0.00  0.00    -0.300 N 
ATOM      6  N   UNL     1      -6.465  -9.232  11.812  0.00  0.00    -0.304 NA
ATOM     10  C   UNL     1      -3.231 -12.840  11.902  0.00  0.00    +0.010 C 
ATOM     11  C   UNL     1      -2.124 -12.029  12.633  0.00  0.00    +0.004 C 
ATOM     12  C   UNL     1      -2.542 -10.558  12.803  0.00  0.00    +0.023 C 
ATOM     13  C   UNL     1      -3.475 -12.153  10.542  0.00  0.00    +0.111 C 
ATOM     14  C   UNL     1      -4.527 -12.956  12.738  0.00  0.00    +0.008 C 
ATOM     15  C   UNL     1      -2.986  -9.924  11.483  0.00  0.00    +0.108 C 
ATOM     17  C   UNL     1      -5.616 -13.859  12.139  0.00  0.00    +0.041 C 
ATOM     18  C   UNL     1      -5.134 -10.370  10.166  0.00  0.00    +0.229 C 
ATOM     20  C   UNL     1      -6.956 -13.596  12.834  0.00  0.00    +0.229 C 
ATOM     21  C   UNL     1      -5.714  -9.026  10.572  0.00  0.00    +0.178 C 
ATOM     22  C   UNL     1      -7.837  -9.682  11.551  0.00  0.00    +0.120 C 
ATOM     23  C   UNL     1      -8.279 -11.610  13.167  0.00  0.00    +0.125 A 
ATOM     25  C   UNL     1      -8.491 -10.266  12.786  0.00  0.00    +0.010 A 
ATOM     26  C   UNL     1      -9.325  -9.455  13.569  0.00  0.00    +0.031 A 
ATOM     27  C   UNL     1      -8.944 -12.125  14.285  0.00  0.00    +0.048 A 
ATOM     29  C   UNL     1      -9.963  -9.971  14.694  0.00  0.00    +0.030 A 
ATOM     30  C   UNL     1      -9.778 -11.306  15.046  0.00  0.00    +0.027 A 
ATOM     41  H   UNL     1      -6.507  -8.352  12.328  0.00  0.00    +0.123 HD
ENDROOT
BRANCH  29   7
ATOM      7  N   UNL     1     -10.789  -9.142  15.482  0.00  0.00    -0.332 N 
ATOM     33  C   UNL     1     -10.810  -9.287  16.924  0.00  0.00    +0.129 C 
BRANCH   7  31
ATOM     31  C   UNL     1     -11.620  -8.131  14.860  0.00  0.00    +0.120 C 
BRANCH  31  34
ATOM     34  C   UNL     1     -11.135  -6.747  15.272  0.00  0.00    +0.102 C 
BRANCH  34   9
ATOM      9  N   UNL     1     -12.241  -5.797  15.257  0.00  0.00    -0.307 NA
ATOM     38  C   UNL     1     -12.337  -5.136  13.954  0.00  0.00    +0.104 C 
ATOM     39  C   UNL     1     -13.501  -6.470  15.578  0.00  0.00    +0.104 C 
ENDBRANCH  34   9
ENDBRANCH  31  34
ENDBRANCH   7  31
ENDBRANCH  29   7
BRANCH  11  16
ATOM     16  C   UNL     1      -1.711 -12.634  13.974  0.00  0.00    +0.099 C 
BRANCH  16  19
ATOM      3  O   UNL     1      -0.810 -10.805  15.276  0.00  0.00    -0.276 OA
ATOM      5  N   UNL     1      -2.867 -11.714  15.859  0.00  0.00    -0.310 N 
ATOM     19  C   UNL     1      -1.717 -11.612  15.090  0.00  0.00    +0.214 C 
ATOM     40  H   UNL     1      -3.560 -12.424  15.638  0.00  0.00    +0.149 HD
BRANCH   5  24
ATOM     24  C   UNL     1      -3.137 -10.863  16.994  0.00  0.00    +0.159 C 
BRANCH  24  28
ATOM      8  N   UNL     1      -5.205 -10.736  18.263  0.00  0.00    -0.258 NA
ATOM     28  C   UNL     1      -4.589 -10.492  17.084  0.00  0.00    +0.058 A 
ATOM     32  C   UNL     1      -5.215  -9.929  15.984  0.00  0.00    +0.025 A 
ATOM     35  C   UNL     1      -6.560  -9.596  16.101  0.00  0.00    +0.003 A 
ATOM     36  C   UNL     1      -6.512 -10.398  18.339  0.00  0.00    +0.111 A 
ATOM     37  C   UNL     1      -7.228  -9.832  17.297  0.00  0.00    +0.020 A 
ENDBRANCH  24  28
ENDBRANCH   5  24
ENDBRANCH  16  19
ENDBRANCH  11  16
TORSDOF 8
ENDMDL
MODEL 4
REMARK VINA RESULT:      -7.0     21.214     25.445
REMARK  Name = 95790522
REMARK  11 active torsions:
REMARK  status: ('A' for Active; 'I' for Inactive)
REMARK    1  A    between atoms: N_5  and  C_24
REMARK    2  A    between atoms: N_7  and  C_29
REMARK    3  A    between atoms: N_7  and  C_31
REMARK    4  A    between atoms: N_7  and  C_33
REMARK    5  A    between atoms: N_9  and  C_34
REMARK    6  A    between atoms: N_9  and  C_38
REMARK    7  A    between atoms: N_9  and  C_39
REMARK    8  A    between atoms: C_11  and  C_16
REMARK    9  A    between atoms: C_16  and  C_19
REMARK   10  A    between atoms: C_24  and  C_28
REMARK   11  A    between atoms: C_31  and  C_34
REMARK                            x       y       z     vdW  Elec       q    Type
REMARK                         _______ _______ _______ _____ _____    ______ ____
ROOT
ATOM      1  O   UNL     1      -3.385 -11.817  16.538  0.00  0.00    -0.492 OA
ATOM      2  O   UNL     1      -2.222 -14.672  14.623  0.00  0.00    -0.274 OA
ATOM      4  N   UNL     1      -3.060 -13.563  12.770  0.00  0.00    -0.300 N 
ATOM      6  N   UNL     1      -5.257 -14.035  14.988  0.00  0.00    -0.304 NA
ATOM     10  C   UNL     1      -2.128 -11.288  12.508  0.00  0.00    +0.010 C 
ATOM     11  C   UNL     1      -3.059 -11.073  11.282  0.00  0.00    +0.004 C 
ATOM     12  C   UNL     1      -4.344 -11.909  11.413  0.00  0.00    +0.023 C 
ATOM     13  C   UNL     1      -1.822 -12.798  12.588  0.00  0.00    +0.111 C 
ATOM     14  C   UNL     1      -2.745 -10.747  13.820  0.00  0.00    +0.008 C 
ATOM     15  C   UNL     1      -4.050 -13.383  11.700  0.00  0.00    +0.108 C 
ATOM     17  C   UNL     1      -1.826 -10.801  15.049  0.00  0.00    +0.041 C 
ATOM     18  C   UNL     1      -3.167 -14.420  13.867  0.00  0.00    +0.229 C 
ATOM     20  C   UNL     1      -2.648 -10.610  16.328  0.00  0.00    +0.229 C 
ATOM     21  C   UNL     1      -4.526 -15.018  14.186  0.00  0.00    +0.178 C 
ATOM     22  C   UNL     1      -4.936 -14.146  16.415  0.00  0.00    +0.120 C 
ATOM     23  C   UNL     1      -4.552 -11.764  17.252  0.00  0.00    +0.125 A 
ATOM     25  C   UNL     1      -5.362 -12.919  17.194  0.00  0.00    +0.010 A 
ATOM     26  C   UNL     1      -6.589 -12.930  17.872  0.00  0.00    +0.031 A 
ATOM     27  C   UNL     1      -4.958 -10.672  18.026  0.00  0.00    +0.048 A 
ATOM     29  C   UNL     1      -6.996 -11.828  18.621  0.00  0.00    +0.030 A 
ATOM     30  C   UNL     1      -6.178 -10.705  18.703  0.00  0.00    +0.027 A 
ATOM     41  H   UNL     1      -6.260 -14.186  14.871  0.00  0.00    +0.123 HD
ENDROOT
BRANCH  29   7
ATOM      7  N   UNL     1      -8.238 -11.846  19.288  0.00  0.00    -0.332 N 
ATOM     33  C   UNL     1      -8.625 -12.992  20.086  0.00  0.00    +0.129 C 
BRANCH   7  31
ATOM     31  C   UNL     1      -9.139 -10.716  19.191  0.00  0.00    +0.120 C 
BRANCH  31  34
ATOM     34  C   UNL     1     -10.347 -10.945  20.090  0.00  0.00    +0.102 C 
BRANCH  34   9
ATOM      9  N   UNL     1     -11.567 -10.510  19.421  0.00  0.00    -0.307 NA
ATOM     38  C   UNL     1     -12.504  -9.926  20.383  0.00  0.00    +0.104 C 
ATOM     39  C   UNL     1     -11.258  -9.546  18.363  0.00  0.00    +0.104 C 
ENDBRANCH  34   9
ENDBRANCH  31  34
ENDBRANCH   7  31
ENDBRANCH  29   7
BRANCH  11  16
ATOM     16  C   UNL     1      -3.392  -9.605  11.020  0.00  0.00    +0.099 C 
BRANCH  16  19
ATOM      3  O   UNL     1      -5.279  -9.283   9.541  0.00  0.00    -0.276 OA
ATOM      5  N   UNL     1      -5.630  -9.359  11.836  0.00  0.00    -0.310 N 
ATOM     19  C   UNL     1      -4.854  -9.399  10.687  0.00  0.00    +0.214 C 
ATOM     40  H   UNL     1      -5.188  -9.450  12.747  0.00  0.00    +0.149 HD
BRANCH   5  24
ATOM     24  C   UNL     1      -7.062  -9.172  11.816  0.00  0.00    +0.159 C 
BRANCH  24  28
ATOM      8  N   UNL     1      -9.053  -9.547  13.157  0.00  0.00    -0.258 NA
ATOM     28  C   UNL     1      -7.703  -9.611  13.100  0.00  0.00    +0.058 A 
ATOM     32  C   UNL     1      -6.903 -10.053  14.142  0.00  0.00    +0.025 A 
ATOM     35  C   UNL     1      -7.528 -10.454  15.318  0.00  0.00    +0.003 A 
ATOM     36  C   UNL     1      -9.624  -9.945  14.316  0.00  0.00    +0.111 A 
ATOM     37  C   UNL     1      -8.914 -10.402  15.414  0.00  0.00    +0.020 A 
ENDBRANCH  24  28
ENDBRANCH   5  24
ENDBRANCH  16  19
ENDBRANCH  11  16
TORSDOF 8
ENDMDL
MODEL 5
REMARK VINA RESULT:      -7.0     22.492     26.149
REMARK  Name = 95790522
REMARK  11 active torsions:
REMARK  status: ('A' for Active; 'I' for Inactive)
REMARK    1  A    between atoms: N_5  and  C_24
REMARK    2  A    between atoms: N_7  and  C_29
REMARK    3  A    between atoms: N_7  and  C_31
REMARK    4  A    between atoms: N_7  and  C_33
REMARK    5  A    between atoms: N_9  and  C_34
REMARK    6  A    between atoms: N_9  and  C_38
REMARK    7  A    between atoms: N_9  and  C_39
REMARK    8  A    between atoms: C_11  and  C_16
REMARK    9  A    between atoms: C_16  and  C_19
REMARK   10  A    between atoms: C_24  and  C_28
REMARK   11  A    between atoms: C_31  and  C_34
REMARK                            x       y       z     vdW  Elec       q    Type
REMARK                         _______ _______ _______ _____ _____    ______ ____
ROOT
ATOM      1  O   UNL     1      -2.904 -11.627  13.206  0.00  0.00    -0.492 OA
ATOM      2  O   UNL     1      -3.431 -14.189  10.691  0.00  0.00    -0.274 OA
ATOM      4  N   UNL     1      -5.195 -12.878   9.960  0.00  0.00    -0.300 N 
ATOM      6  N   UNL     1      -5.469 -13.679  13.002  0.00  0.00    -0.304 NA
ATOM     10  C   UNL     1      -4.512 -10.565   9.413  0.00  0.00    +0.010 C 
ATOM     11  C   UNL     1      -5.998 -10.221   9.116  0.00  0.00    +0.004 C 
ATOM     12  C   UNL     1      -6.945 -11.099   9.953  0.00  0.00    +0.023 C 
ATOM     13  C   UNL     1      -4.322 -12.065   9.107  0.00  0.00    +0.111 C 
ATOM     14  C   UNL     1      -4.103 -10.208  10.863  0.00  0.00    +0.008 C 
ATOM     15  C   UNL     1      -6.629 -12.590   9.815  0.00  0.00    +0.108 C 
ATOM     17  C   UNL     1      -2.614 -10.393  11.188  0.00  0.00    +0.041 C 
ATOM     18  C   UNL     1      -4.623 -13.868  10.761  0.00  0.00    +0.229 C 
ATOM     20  C   UNL     1      -2.403 -10.385  12.706  0.00  0.00    +0.229 C 
ATOM     21  C   UNL     1      -5.490 -14.535  11.814  0.00  0.00    +0.178 C 
ATOM     22  C   UNL     1      -4.310 -13.960  13.857  0.00  0.00    +0.120 C 
ATOM     23  C   UNL     1      -3.329 -11.693  14.506  0.00  0.00    +0.125 A 
ATOM     25  C   UNL     1      -4.056 -12.852  14.858  0.00  0.00    +0.010 A 
ATOM     26  C   UNL     1      -4.554 -12.979  16.162  0.00  0.00    +0.031 A 
ATOM     27  C   UNL     1      -3.072 -10.717  15.474  0.00  0.00    +0.048 A 
ATOM     29  C   UNL     1      -4.312 -11.990  17.113  0.00  0.00    +0.030 A 
ATOM     30  C   UNL     1      -3.566 -10.865  16.771  0.00  0.00    +0.027 A 
ATOM     41  H   UNL     1      -6.317 -13.839  13.546  0.00  0.00    +0.123 HD
ENDROOT
BRANCH  29   7
ATOM      7  N   UNL     1      -4.829 -12.122  18.419  0.00  0.00    -0.332 N 
ATOM     33  C   UNL     1      -3.935 -12.201  19.557  0.00  0.00    +0.129 C 
BRANCH   7  31
ATOM     31  C   UNL     1      -6.260 -12.173  18.639  0.00  0.00    +0.120 C 
BRANCH  31  34
ATOM     34  C   UNL     1      -6.791 -10.766  18.886  0.00  0.00    +0.102 C 
BRANCH  34   9
ATOM      9  N   UNL     1      -7.822 -10.435  17.911  0.00  0.00    -0.307 NA
ATOM     38  C   UNL     1      -7.373  -9.356  17.030  0.00  0.00    +0.104 C 
ATOM     39  C   UNL     1      -8.184 -11.616  17.124  0.00  0.00    +0.104 C 
ENDBRANCH  34   9
ENDBRANCH  31  34
ENDBRANCH   7  31
ENDBRANCH  29   7
BRANCH  11  16
ATOM     16  C   UNL     1      -6.330  -8.741   9.298  0.00  0.00    +0.099 C 
BRANCH  16  19
ATOM      3  O   UNL     1      -7.694  -8.907   7.307  0.00  0.00    -0.276 OA
ATOM      5  N   UNL     1      -7.782  -6.973   8.591  0.00  0.00    -0.310 N 
ATOM     19  C   UNL     1      -7.335  -8.249   8.279  0.00  0.00    +0.214 C 
ATOM     40  H   UNL     1      -7.418  -6.497   9.411  0.00  0.00    +0.149 HD
BRANCH   5  24
ATOM     24  C   UNL     1      -8.746  -6.256   7.789  0.00  0.00    +0.159 C 
BRANCH  24  28
ATOM      8  N   UNL     1     -10.680  -6.515   9.236  0.00  0.00    -0.258 NA
ATOM     28  C   UNL     1      -9.835  -5.652   8.627  0.00  0.00    +0.058 A 
ATOM     32  C   UNL     1      -9.923  -4.274   8.736  0.00  0.00    +0.025 A 
ATOM     35  C   UNL     1     -10.943  -3.746   9.521  0.00  0.00    +0.003 A 
ATOM     36  C   UNL     1     -11.658  -5.965   9.990  0.00  0.00    +0.111 A 
ATOM     37  C   UNL     1     -11.831  -4.601  10.163  0.00  0.00    +0.020 A 
ENDBRANCH  24  28
ENDBRANCH   5  24
ENDBRANCH  16  19
ENDBRANCH  11  16
TORSDOF 8
ENDMDL
MODEL 6
REMARK VINA RESULT:      -6.9     21.217     25.605
REMARK  Name = 95790522
REMARK  11 active torsions:
REMARK  status: ('A' for Active; 'I' for Inactive)
REMARK    1  A    between atoms: N_5  and  C_24
REMARK    2  A    between atoms: N_7  and  C_29
REMARK    3  A    between atoms: N_7  and  C_31
REMARK    4  A    between atoms: N_7  and  C_33
REMARK    5  A    between atoms: N_9  and  C_34
REMARK    6  A    between atoms: N_9  and  C_38
REMARK    7  A    between atoms: N_9  and  C_39
REMARK    8  A    between atoms: C_11  and  C_16
REMARK    9  A    between atoms: C_16  and  C_19
REMARK   10  A    between atoms: C_24  and  C_28
REMARK   11  A    between atoms: C_31  and  C_34
REMARK                            x       y       z     vdW  Elec       q    Type
REMARK                         _______ _______ _______ _____ _____    ______ ____
ROOT
ATOM      1  O   UNL     1      -7.588 -12.291  12.476  0.00  0.00    -0.492 OA
ATOM      2  O   UNL     1      -6.022 -10.986   9.474  0.00  0.00    -0.274 OA
ATOM      4  N   UNL     1      -4.117 -10.744  10.770  0.00  0.00    -0.300 N 
ATOM      6  N   UNL     1      -6.594  -9.195  11.968  0.00  0.00    -0.304 NA
ATOM     10  C   UNL     1      -3.417 -12.853  11.854  0.00  0.00    +0.010 C 
ATOM     11  C   UNL     1      -2.274 -12.079  12.569  0.00  0.00    +0.004 C 
ATOM     12  C   UNL     1      -2.663 -10.607  12.793  0.00  0.00    +0.023 C 
ATOM     13  C   UNL     1      -3.694 -12.126  10.522  0.00  0.00    +0.111 C 
ATOM     14  C   UNL     1      -4.687 -12.972  12.730  0.00  0.00    +0.008 C 
ATOM     15  C   UNL     1      -3.139  -9.931  11.506  0.00  0.00    +0.108 C 
ATOM     17  C   UNL     1      -5.809 -13.841  12.143  0.00  0.00    +0.041 C 
ATOM     18  C   UNL     1      -5.337 -10.308  10.249  0.00  0.00    +0.229 C 
ATOM     20  C   UNL     1      -7.122 -13.578  12.889  0.00  0.00    +0.229 C 
ATOM     21  C   UNL     1      -5.881  -8.967  10.710  0.00  0.00    +0.178 C 
ATOM     22  C   UNL     1      -7.981  -9.617  11.741  0.00  0.00    +0.120 C 
ATOM     23  C   UNL     1      -8.401 -11.581  13.319  0.00  0.00    +0.125 A 
ATOM     25  C   UNL     1      -8.603 -10.225  12.981  0.00  0.00    +0.010 A 
ATOM     26  C   UNL     1      -9.398  -9.422  13.813  0.00  0.00    +0.031 A 
ATOM     27  C   UNL     1      -9.036 -12.117  14.444  0.00  0.00    +0.048 A 
ATOM     29  C   UNL     1     -10.007  -9.960  14.944  0.00  0.00    +0.030 A 
ATOM     30  C   UNL     1      -9.832 -11.306  15.254  0.00  0.00    +0.027 A 
ATOM     41  H   UNL     1      -6.605  -8.330  12.509  0.00  0.00    +0.123 HD
ENDROOT
BRANCH  29   7
ATOM      7  N   UNL     1     -10.793  -9.140  15.781  0.00  0.00    -0.332 N 
ATOM     33  C   UNL     1     -10.812  -7.703  15.591  0.00  0.00    +0.129 C 
BRANCH   7  31
ATOM     31  C   UNL     1     -11.597  -9.724  16.835  0.00  0.00    +0.120 C 
BRANCH  31  34
ATOM     34  C   UNL     1     -11.014  -9.349  18.192  0.00  0.00    +0.102 C 
BRANCH  34   9
ATOM      9  N   UNL     1     -11.262 -10.410  19.161  0.00  0.00    -0.307 NA
ATOM     38  C   UNL     1     -10.030 -10.758  19.872  0.00  0.00    +0.104 C 
ATOM     39  C   UNL     1     -12.300 -10.005  20.111  0.00  0.00    +0.104 C 
ENDBRANCH  34   9
ENDBRANCH  31  34
ENDBRANCH   7  31
ENDBRANCH  29   7
BRANCH  11  16
ATOM     16  C   UNL     1      -1.827 -12.726  13.879  0.00  0.00    +0.099 C 
BRANCH  16  19
ATOM      3  O   UNL     1      -0.829 -10.971  15.211  0.00  0.00    -0.276 OA
ATOM      5  N   UNL     1      -2.913 -11.807  15.804  0.00  0.00    -0.310 N 
ATOM     19  C   UNL     1      -1.772 -11.733  15.020  0.00  0.00    +0.214 C 
ATOM     40  H   UNL     1      -3.639 -12.481  15.578  0.00  0.00    +0.149 HD
BRANCH   5  24
ATOM     24  C   UNL     1      -3.130 -10.974  16.965  0.00  0.00    +0.159 C 
BRANCH  24  28
ATOM      8  N   UNL     1      -5.139 -10.763  18.314  0.00  0.00    -0.258 NA
ATOM     28  C   UNL     1      -4.568 -10.567  17.103  0.00  0.00    +0.058 A 
ATOM     32  C   UNL     1      -5.227 -10.022  16.014  0.00  0.00    +0.025 A 
ATOM     35  C   UNL     1      -6.559  -9.654  16.175  0.00  0.00    +0.003 A 
ATOM     36  C   UNL     1      -6.434 -10.393  18.432  0.00  0.00    +0.111 A 
ATOM     37  C   UNL     1      -7.181  -9.841  17.404  0.00  0.00    +0.020 A 
ENDBRANCH  24  28
ENDBRANCH   5  24
ENDBRANCH  16  19
ENDBRANCH  11  16
TORSDOF 8
ENDMDL
MODEL 7
REMARK VINA RESULT:      -6.9      2.164      8.853
REMARK  Name = 95790522
REMARK  11 active torsions:
REMARK  status: ('A' for Active; 'I' for Inactive)
REMARK    1  A    between atoms: N_5  and  C_24
REMARK    2  A    between atoms: N_7  and  C_29
REMARK    3  A    between atoms: N_7  and  C_31
REMARK    4  A    between atoms: N_7  and  C_33
REMARK    5  A    between atoms: N_9  and  C_34
REMARK    6  A    between atoms: N_9  and  C_38
REMARK    7  A    between atoms: N_9  and  C_39
REMARK    8  A    between atoms: C_11  and  C_16
REMARK    9  A    between atoms: C_16  and  C_19
REMARK   10  A    between atoms: C_24  and  C_28
REMARK   11  A    between atoms: C_31  and  C_34
REMARK                            x       y       z     vdW  Elec       q    Type
REMARK                         _______ _______ _______ _____ _____    ______ ____
ROOT
ATOM      1  O   UNL     1     -12.587  10.090  30.475  0.00  0.00    -0.492 OA
ATOM      2  O   UNL     1     -15.533  10.616  32.527  0.00  0.00    -0.274 OA
ATOM      4  N   UNL     1     -15.785   8.314  32.467  0.00  0.00    -0.300 N 
ATOM      6  N   UNL     1     -15.714   9.593  29.581  0.00  0.00    -0.304 NA
ATOM     10  C   UNL     1     -13.780   7.107  33.264  0.00  0.00    +0.010 C 
ATOM     11  C   UNL     1     -14.481   5.763  32.919  0.00  0.00    +0.004 C 
ATOM     12  C   UNL     1     -15.475   5.942  31.758  0.00  0.00    +0.023 C 
ATOM     13  C   UNL     1     -14.888   8.122  33.611  0.00  0.00    +0.111 C 
ATOM     14  C   UNL     1     -12.868   7.607  32.118  0.00  0.00    +0.008 C 
ATOM     15  C   UNL     1     -16.455   7.091  32.006  0.00  0.00    +0.108 C 
ATOM     17  C   UNL     1     -12.037   8.858  32.440  0.00  0.00    +0.041 C 
ATOM     18  C   UNL     1     -15.977   9.604  31.970  0.00  0.00    +0.229 C 
ATOM     20  C   UNL     1     -11.487   9.470  31.146  0.00  0.00    +0.229 C 
ATOM     21  C   UNL     1     -16.704   9.769  30.647  0.00  0.00    +0.178 C 
ATOM     22  C   UNL     1     -15.006  10.843  29.283  0.00  0.00    +0.120 C 
ATOM     23  C   UNL     1     -12.530  10.243  29.116  0.00  0.00    +0.125 A 
ATOM     25  C   UNL     1     -13.740  10.607  28.486  0.00  0.00    +0.010 A 
ATOM     26  C   UNL     1     -13.771  10.750  27.091  0.00  0.00    +0.031 A 
ATOM     27  C   UNL     1     -11.371  10.085  28.349  0.00  0.00    +0.048 A 
ATOM     29  C   UNL     1     -12.617  10.568  26.334  0.00  0.00    +0.030 A 
ATOM     30  C   UNL     1     -11.418  10.243  26.963  0.00  0.00    +0.027 A 
ATOM     41  H   UNL     1     -16.188   9.281  28.733  0.00  0.00    +0.123 HD
ENDROOT
BRANCH  29   7
ATOM      7  N   UNL     1     -12.663  10.702  24.931  0.00  0.00    -0.332 N 
ATOM     33  C   UNL     1     -11.701  11.541  24.243  0.00  0.00    +0.129 C 
BRANCH   7  31
ATOM     31  C   UNL     1     -13.666   9.998  24.159  0.00  0.00    +0.120 C 
BRANCH  31  34
ATOM     34  C   UNL     1     -13.413  10.214  22.672  0.00  0.00    +0.102 C 
BRANCH  34   9
ATOM      9  N   UNL     1     -13.959   9.106  21.899  0.00  0.00    -0.307 NA
ATOM     38  C   UNL     1     -12.882   8.312  21.303  0.00  0.00    +0.104 C 
ATOM     39  C   UNL     1     -14.807   8.260  22.740  0.00  0.00    +0.104 C 
ENDBRANCH  34   9
ENDBRANCH  31  34
ENDBRANCH   7  31
ENDBRANCH  29   7
BRANCH  11  16
ATOM     16  C   UNL     1     -13.505   4.624  32.626  0.00  0.00    +0.099 C 
BRANCH  16  19
ATOM      3  O   UNL     1     -15.086   2.828  32.983  0.00  0.00    -0.276 OA
ATOM      5  N   UNL     1     -13.755   2.813  31.079  0.00  0.00    -0.310 N 
ATOM     19  C   UNL     1     -14.217   3.334  32.279  0.00  0.00    +0.214 C 
ATOM     40  H   UNL     1     -13.020   3.295  30.570  0.00  0.00    +0.149 HD
BRANCH   5  24
ATOM     24  C   UNL     1     -14.257   1.586  30.505  0.00  0.00    +0.159 C 
BRANCH  24  28
ATOM      8  N   UNL     1     -15.833   0.776  28.843  0.00  0.00    -0.258 NA
ATOM     28  C   UNL     1     -15.166   1.843  29.339  0.00  0.00    +0.058 A 
ATOM     32  C   UNL     1     -15.279   3.130  28.837  0.00  0.00    +0.025 A 
ATOM     35  C   UNL     1     -16.130   3.334  27.756  0.00  0.00    +0.003 A 
ATOM     36  C   UNL     1     -16.651   1.014  27.794  0.00  0.00    +0.111 A 
ATOM     37  C   UNL     1     -16.832   2.262  27.219  0.00  0.00    +0.020 A 
ENDBRANCH  24  28
ENDBRANCH   5  24
ENDBRANCH  16  19
ENDBRANCH  11  16
TORSDOF 8
ENDMDL
MODEL 8
REMARK VINA RESULT:      -6.7      7.161     11.624
REMARK  Name = 95790522
REMARK  11 active torsions:
REMARK  status: ('A' for Active; 'I' for Inactive)
REMARK    1  A    between atoms: N_5  and  C_24
REMARK    2  A    between atoms: N_7  and  C_29
REMARK    3  A    between atoms: N_7  and  C_31
REMARK    4  A    between atoms: N_7  and  C_33
REMARK    5  A    between atoms: N_9  and  C_34
REMARK    6  A    between atoms: N_9  and  C_38
REMARK    7  A    between atoms: N_9  and  C_39
REMARK    8  A    between atoms: C_11  and  C_16
REMARK    9  A    between atoms: C_16  and  C_19
REMARK   10  A    between atoms: C_24  and  C_28
REMARK   11  A    between atoms: C_31  and  C_34
REMARK                            x       y       z     vdW  Elec       q    Type
REMARK                         _______ _______ _______ _____ _____    ______ ____
ROOT
ATOM      1  O   UNL     1     -11.386  10.430  34.589  0.00  0.00    -0.492 OA
ATOM      2  O   UNL     1     -11.205  11.413  38.077  0.00  0.00    -0.274 OA
ATOM      4  N   UNL     1      -9.139  10.367  38.096  0.00  0.00    -0.300 N 
ATOM      6  N   UNL     1     -11.463   8.427  37.199  0.00  0.00    -0.304 NA
ATOM     10  C   UNL     1      -7.605  11.239  36.363  0.00  0.00    +0.010 C 
ATOM     11  C   UNL     1      -6.553  10.178  36.794  0.00  0.00    +0.004 C 
ATOM     12  C   UNL     1      -7.238   8.925  37.367  0.00  0.00    +0.023 C 
ATOM     13  C   UNL     1      -8.454  11.568  37.608  0.00  0.00    +0.111 C 
ATOM     14  C   UNL     1      -8.472  10.760  35.174  0.00  0.00    +0.008 C 
ATOM     15  C   UNL     1      -8.242   9.265  38.470  0.00  0.00    +0.108 C 
ATOM     17  C   UNL     1      -9.441  11.806  34.605  0.00  0.00    +0.041 C 
ATOM     18  C   UNL     1     -10.529  10.388  38.225  0.00  0.00    +0.229 C 
ATOM     20  C   UNL     1     -10.489  11.125  33.719  0.00  0.00    +0.229 C 
ATOM     21  C   UNL     1     -11.250   9.079  38.493  0.00  0.00    +0.178 C 
ATOM     22  C   UNL     1     -12.686   8.902  36.543  0.00  0.00    +0.120 C 
ATOM     23  C   UNL     1     -12.068   9.346  34.105  0.00  0.00    +0.125 A 
ATOM     25  C   UNL     1     -12.720   8.548  35.071  0.00  0.00    +0.010 A 
ATOM     26  C   UNL     1     -13.413   7.401  34.658  0.00  0.00    +0.031 A 
ATOM     27  C   UNL     1     -12.168   9.013  32.750  0.00  0.00    +0.048 A 
ATOM     29  C   UNL     1     -13.487   7.065  33.308  0.00  0.00    +0.030 A 
ATOM     30  C   UNL     1     -12.871   7.874  32.356  0.00  0.00    +0.027 A 
ATOM     41  H   UNL     1     -11.544   7.419  37.340  0.00  0.00    +0.123 HD
ENDROOT
BRANCH  29   7
ATOM      7  N   UNL     1     -14.176   5.902  32.905  0.00  0.00    -0.332 N 
ATOM     33  C   UNL     1     -15.394   6.004  32.126  0.00  0.00    +0.129 C 
BRANCH   7  31
ATOM     31  C   UNL     1     -13.671   4.591  33.258  0.00  0.00    +0.120 C 
BRANCH  31  34
ATOM     34  C   UNL     1     -13.474   3.761  31.996  0.00  0.00    +0.102 C 
BRANCH  34   9
ATOM      9  N   UNL     1     -13.732   2.353  32.270  0.00  0.00    -0.307 NA
ATOM     38  C   UNL     1     -14.966   2.195  33.043  0.00  0.00    +0.104 C 
ATOM     39  C   UNL     1     -13.815   1.592  31.021  0.00  0.00    +0.104 C 
ENDBRANCH  34   9
ENDBRANCH  31  34
ENDBRANCH   7  31
ENDBRANCH  29   7
BRANCH  11  16
ATOM     16  C   UNL     1      -5.576   9.802  35.681  0.00  0.00    +0.099 C 
BRANCH  16  19
ATOM      3  O   UNL     1      -3.605  11.147  36.075  0.00  0.00    -0.276 OA
ATOM      5  N   UNL     1      -3.511   8.855  36.437  0.00  0.00    -0.310 N 
ATOM     19  C   UNL     1      -4.135  10.040  36.079  0.00  0.00    +0.214 C 
ATOM     40  H   UNL     1      -4.026   7.980  36.397  0.00  0.00    +0.149 HD
BRANCH   5  24
ATOM     24  C   UNL     1      -2.131   8.785  36.859  0.00  0.00    +0.159 C 
BRANCH  24  28
ATOM      8  N   UNL     1      -0.792   7.099  37.986  0.00  0.00    -0.258 NA
ATOM     28  C   UNL     1      -1.938   7.817  37.991  0.00  0.00    +0.058 A 
ATOM     32  C   UNL     1      -2.918   7.708  38.964  0.00  0.00    +0.025 A 
ATOM     35  C   UNL     1      -2.708   6.804  40.000  0.00  0.00    +0.003 A 
ATOM     36  C   UNL     1      -0.624   6.231  39.009  0.00  0.00    +0.111 A 
ATOM     37  C   UNL     1      -1.543   6.048  40.029  0.00  0.00    +0.020 A 
ENDBRANCH  24  28
ENDBRANCH   5  24
ENDBRANCH  16  19
ENDBRANCH  11  16
TORSDOF 8
ENDMDL
MODEL 9
REMARK VINA RESULT:      -6.7     21.227     25.599
REMARK  Name = 95790522
REMARK  11 active torsions:
REMARK  status: ('A' for Active; 'I' for Inactive)
REMARK    1  A    between atoms: N_5  and  C_24
REMARK    2  A    between atoms: N_7  and  C_29
REMARK    3  A    between atoms: N_7  and  C_31
REMARK    4  A    between atoms: N_7  and  C_33
REMARK    5  A    between atoms: N_9  and  C_34
REMARK    6  A    between atoms: N_9  and  C_38
REMARK    7  A    between atoms: N_9  and  C_39
REMARK    8  A    between atoms: C_11  and  C_16
REMARK    9  A    between atoms: C_16  and  C_19
REMARK   10  A    between atoms: C_24  and  C_28
REMARK   11  A    between atoms: C_31  and  C_34
REMARK                            x       y       z     vdW  Elec       q    Type
REMARK                         _______ _______ _______ _____ _____    ______ ____
ROOT
ATOM      1  O   UNL     1      -3.833 -11.800  16.465  0.00  0.00    -0.492 OA
ATOM      2  O   UNL     1      -2.650 -14.566  14.436  0.00  0.00    -0.274 OA
ATOM      4  N   UNL     1      -3.737 -13.526  12.675  0.00  0.00    -0.300 N 
ATOM      6  N   UNL     1      -5.677 -14.152  15.086  0.00  0.00    -0.304 NA
ATOM     10  C   UNL     1      -3.002 -11.189  12.337  0.00  0.00    +0.010 C 
ATOM     11  C   UNL     1      -4.058 -11.046  11.205  0.00  0.00    +0.004 C 
ATOM     12  C   UNL     1      -5.260 -11.974  11.452  0.00  0.00    +0.023 C 
ATOM     13  C   UNL     1      -2.582 -12.673  12.381  0.00  0.00    +0.111 C 
ATOM     14  C   UNL     1      -3.532 -10.692  13.703  0.00  0.00    +0.008 C 
ATOM     15  C   UNL     1      -4.834 -13.421  11.703  0.00  0.00    +0.108 C 
ATOM     17  C   UNL     1      -2.500 -10.676  14.840  0.00  0.00    +0.041 C 
ATOM     18  C   UNL     1      -3.679 -14.386  13.773  0.00  0.00    +0.229 C 
ATOM     20  C   UNL     1      -3.210 -10.543  16.192  0.00  0.00    +0.229 C 
ATOM     21  C   UNL     1      -4.954 -15.081  14.215  0.00  0.00    +0.178 C 
ATOM     22  C   UNL     1      -5.215 -14.236  16.476  0.00  0.00    +0.120 C 
ATOM     23  C   UNL     1      -4.929 -11.830  17.285  0.00  0.00    +0.125 A 
ATOM     25  C   UNL     1      -5.654 -13.042  17.298  0.00  0.00    +0.010 A 
ATOM     26  C   UNL     1      -6.809 -13.141  18.088  0.00  0.00    +0.031 A 
ATOM     27  C   UNL     1      -5.339 -10.769  18.098  0.00  0.00    +0.048 A 
ATOM     29  C   UNL     1      -7.222 -12.070  18.877  0.00  0.00    +0.030 A 
ATOM     30  C   UNL     1      -6.484 -10.890  18.887  0.00  0.00    +0.027 A 
ATOM     41  H   UNL     1      -6.672 -14.376  15.064  0.00  0.00    +0.123 HD
ENDROOT
BRANCH  29   7
ATOM      7  N   UNL     1      -8.392 -12.177  19.658  0.00  0.00    -0.332 N 
ATOM     33  C   UNL     1      -8.712 -13.419  20.332  0.00  0.00    +0.129 C 
BRANCH   7  31
ATOM     31  C   UNL     1      -9.284 -11.045  19.801  0.00  0.00    +0.120 C 
BRANCH  31  34
ATOM     34  C   UNL     1     -10.692 -11.538  20.110  0.00  0.00    +0.102 C 
BRANCH  34   9
ATOM      9  N   UNL     1     -11.682 -10.652  19.510  0.00  0.00    -0.307 NA
ATOM     38  C   UNL     1     -12.504 -10.021  20.544  0.00  0.00    +0.104 C 
ATOM     39  C   UNL     1     -11.029  -9.632  18.688  0.00  0.00    +0.104 C 
ENDBRANCH  34   9
ENDBRANCH  31  34
ENDBRANCH   7  31
ENDBRANCH  29   7
BRANCH  11  16
ATOM     16  C   UNL     1      -4.520  -9.607  10.982  0.00  0.00    +0.099 C 
BRANCH  16  19
ATOM      3  O   UNL     1      -3.771  -8.716   8.861  0.00  0.00    -0.276 OA
ATOM      5  N   UNL     1      -5.888  -9.660   9.017  0.00  0.00    -0.310 N 
ATOM     19  C   UNL     1      -4.653  -9.268   9.512  0.00  0.00    +0.214 C 
ATOM     40  H   UNL     1      -6.564 -10.099   9.636  0.00  0.00    +0.149 HD
BRANCH   5  24
ATOM     24  C   UNL     1      -6.289  -9.459   7.644  0.00  0.00    +0.159 C 
BRANCH  24  28
ATOM      8  N   UNL     1      -7.770  -7.826   8.663  0.00  0.00    -0.258 NA
ATOM     28  C   UNL     1      -7.381  -8.437   7.521  0.00  0.00    +0.058 A 
ATOM     32  C   UNL     1      -7.927  -8.173   6.276  0.00  0.00    +0.025 A 
ATOM     35  C   UNL     1      -8.937  -7.220   6.196  0.00  0.00    +0.003 A 
ATOM     36  C   UNL     1      -8.754  -6.906   8.546  0.00  0.00    +0.111 A 
ATOM     37  C   UNL     1      -9.364  -6.571   7.348  0.00  0.00    +0.020 A 
ENDBRANCH  24  28
ENDBRANCH   5  24
ENDBRANCH  16  19
ENDBRANCH  11  16
TORSDOF 8
ENDMDL
MODEL 10
REMARK VINA RESULT:      -6.7     32.414     39.264
REMARK  Name = 95790522
REMARK  11 active torsions:
REMARK  status: ('A' for Active; 'I' for Inactive)
REMARK    1  A    between atoms: N_5  and  C_24
REMARK    2  A    between atoms: N_7  and  C_29
REMARK    3  A    between atoms: N_7  and  C_31
REMARK    4  A    between atoms: N_7  and  C_33
REMARK    5  A    between atoms: N_9  and  C_34
REMARK    6  A    between atoms: N_9  and  C_38
REMARK    7  A    between atoms: N_9  and  C_39
REMARK    8  A    between atoms: C_11  and  C_16
REMARK    9  A    between atoms: C_16  and  C_19
REMARK   10  A    between atoms: C_24  and  C_28
REMARK   11  A    between atoms: C_31  and  C_34
REMARK                            x       y       z     vdW  Elec       q    Type
REMARK                         _______ _______ _______ _____ _____    ______ ____
ROOT
ATOM      1  O   UNL     1      15.638   8.725   2.380  0.00  0.00    -0.492 OA
ATOM      2  O   UNL     1      15.863   8.300  -1.217  0.00  0.00    -0.274 OA
ATOM      4  N   UNL     1      15.450   6.057  -0.814  0.00  0.00    -0.300 N 
ATOM      6  N   UNL     1      17.989   7.112   0.737  0.00  0.00    -0.304 NA
ATOM     10  C   UNL     1      13.368   5.678   0.465  0.00  0.00    +0.010 C 
ATOM     11  C   UNL     1      13.684   4.156   0.483  0.00  0.00    +0.004 C 
ATOM     12  C   UNL     1      15.202   3.908   0.429  0.00  0.00    +0.023 C 
ATOM     13  C   UNL     1      13.997   6.258  -0.818  0.00  0.00    +0.111 C 
ATOM     14  C   UNL     1      13.869   6.400   1.739  0.00  0.00    +0.008 C 
ATOM     15  C   UNL     1      15.870   4.652  -0.729  0.00  0.00    +0.108 C 
ATOM     17  C   UNL     1      13.473   7.879   1.854  0.00  0.00    +0.041 C 
ATOM     18  C   UNL     1      16.284   7.168  -0.955  0.00  0.00    +0.229 C 
ATOM     20  C   UNL     1      14.325   8.569   2.924  0.00  0.00    +0.229 C 
ATOM     21  C   UNL     1      17.771   6.990  -0.706  0.00  0.00    +0.178 C 
ATOM     22  C   UNL     1      18.145   8.511   1.149  0.00  0.00    +0.120 C 
ATOM     23  C   UNL     1      16.703   8.809   3.236  0.00  0.00    +0.125 A 
ATOM     25  C   UNL     1      17.980   8.688   2.644  0.00  0.00    +0.010 A 
ATOM     26  C   UNL     1      19.120   8.732   3.459  0.00  0.00    +0.031 A 
ATOM     27  C   UNL     1      16.596   9.024   4.614  0.00  0.00    +0.048 A 
ATOM     29  C   UNL     1      19.002   8.923   4.834  0.00  0.00    +0.030 A 
ATOM     30  C   UNL     1      17.743   9.076   5.408  0.00  0.00    +0.027 A 
ATOM     41  H   UNL     1      18.838   6.605   0.992  0.00  0.00    +0.123 HD
ENDROOT
BRANCH  29   7
ATOM      7  N   UNL     1      20.155   8.952   5.646  0.00  0.00    -0.332 N 
ATOM     33  C   UNL     1      20.081   8.555   7.038  0.00  0.00    +0.129 C 
BRANCH   7  31
ATOM     31  C   UNL     1      21.428   9.370   5.097  0.00  0.00    +0.120 C 
BRANCH  31  34
ATOM     34  C   UNL     1      22.501   8.350   5.454  0.00  0.00    +0.102 C 
BRANCH  34   9
ATOM      9  N   UNL     1      22.839   7.540   4.290  0.00  0.00    -0.307 NA
ATOM     38  C   UNL     1      21.940   6.390   4.182  0.00  0.00    +0.104 C 
ATOM     39  C   UNL     1      22.782   8.346   3.069  0.00  0.00    +0.104 C 
ENDBRANCH  34   9
ENDBRANCH  31  34
ENDBRANCH   7  31
ENDBRANCH  29   7
BRANCH  11  16
ATOM     16  C   UNL     1      13.056   3.418   1.665  0.00  0.00    +0.099 C 
BRANCH  16  19
ATOM      3  O   UNL     1      10.726   3.823   1.155  0.00  0.00    -0.276 OA
ATOM      5  N   UNL     1      11.558   4.424   3.239  0.00  0.00    -0.310 N 
ATOM     19  C   UNL     1      11.651   3.897   1.959  0.00  0.00    +0.214 C 
ATOM     40  H   UNL     1      12.383   4.457   3.832  0.00  0.00    +0.149 HD
BRANCH   5  24
ATOM     24  C   UNL     1      10.333   4.958   3.787  0.00  0.00    +0.159 C 
BRANCH  24  28
ATOM      8  N   UNL     1      11.416   6.256   5.533  0.00  0.00    -0.258 NA
ATOM     28  C   UNL     1      10.479   5.326   5.235  0.00  0.00    +0.058 A 
ATOM     32  C   UNL     1       9.668   4.713   6.176  0.00  0.00    +0.025 A 
ATOM     35  C   UNL     1       9.827   5.076   7.509  0.00  0.00    +0.003 A 
ATOM     36  C   UNL     1      11.541   6.583   6.838  0.00  0.00    +0.111 A 
ATOM     37  C   UNL     1      10.779   6.028   7.854  0.00  0.00    +0.020 A 
ENDBRANCH  24  28
ENDBRANCH   5  24
ENDBRANCH  16  19
ENDBRANCH  11  16
TORSDOF 8
ENDMDL
