MODEL 1
REMARK VINA RESULT:      -8.1      0.000      0.000
REMARK  Name = 45360619
REMARK  9 active torsions:
REMARK  status: ('A' for Active; 'I' for Inactive)
REMARK    1  A    between atoms: O_6  and  C_35
REMARK    2  A    between atoms: O_6  and  C_38
REMARK    3  A    between atoms: O_7  and  C_36
REMARK    4  A    between atoms: O_7  and  C_37
REMARK    5  A    between atoms: N_13  and  C_24
REMARK    6  A    between atoms: C_15  and  C_20
REMARK    7  A    between atoms: C_23  and  C_25
REMARK    8  A    between atoms: C_32  and  C_36
REMARK    9  A    between atoms: C_37  and  C_39
REMARK                            x       y       z     vdW  Elec       q    Type
REMARK                         _______ _______ _______ _____ _____    ______ ____
ROOT
ATOM      5  O   UNL     1     -15.822   7.318  23.423  0.00  0.00    -0.252 OA
ATOM      9  N   UNL     1     -16.371   5.060  23.453  0.00  0.00    -0.267 N 
ATOM     10  N   UNL     1     -17.370   1.600  22.438  0.00  0.00    -0.347 N 
ATOM     11  N   UNL     1     -19.456   2.353  22.704  0.00  0.00    -0.240 NA
ATOM     13  N   UNL     1     -14.293   5.781  22.588  0.00  0.00    -0.269 N 
ATOM     15  C   UNL     1     -17.645   5.332  24.208  0.00  0.00    +0.172 C 
ATOM     16  C   UNL     1     -18.880   4.681  23.516  0.00  0.00    +0.089 C 
ATOM     17  C   UNL     1     -16.023   3.642  23.147  0.00  0.00    +0.165 C 
ATOM     18  C   UNL     1     -18.552   3.322  23.037  0.00  0.00    +0.066 A 
ATOM     19  C   UNL     1     -17.261   2.884  22.880  0.00  0.00    +0.056 A 
ATOM     21  C   UNL     1     -15.511   6.154  23.160  0.00  0.00    +0.307 C 
ATOM     22  C   UNL     1     -18.711   1.326  22.346  0.00  0.00    +0.197 A 
ATOM     40  H   UNL     1     -16.612   0.968  22.217  0.00  0.00    +0.167 HD
ATOM     41  H   UNL     1     -13.930   4.858  22.807  0.00  0.00    +0.156 HD
ENDROOT
BRANCH  13  24
ATOM     24  C   UNL     1     -13.503   6.529  21.681  0.00  0.00    +0.035 A 
ATOM     26  C   UNL     1     -12.188   6.143  21.419  0.00  0.00    +0.024 A 
ATOM     27  C   UNL     1     -14.038   7.652  21.051  0.00  0.00    +0.024 A 
ATOM     30  C   UNL     1     -11.409   6.879  20.527  0.00  0.00    +0.017 A 
ATOM     31  C   UNL     1     -13.259   8.389  20.159  0.00  0.00    +0.017 A 
ATOM     32  C   UNL     1     -11.946   8.003  19.896  0.00  0.00    +0.059 A 
BRANCH  32  36
ATOM      8  O   UNL     1     -10.205   9.521  19.300  0.00  0.00    -0.245 OA
ATOM     36  C   UNL     1     -11.133   8.771  18.967  0.00  0.00    +0.339 C 
BRANCH  36   7
ATOM      7  O   UNL     1     -11.518   8.562  17.670  0.00  0.00    -0.461 OA
BRANCH   7  37
ATOM     37  C   UNL     1     -10.479   8.310  16.718  0.00  0.00    +0.229 C 
ATOM     39  C   UNL     1     -10.484   9.411  15.680  0.00  0.00    +0.048 C 
ENDBRANCH   7  37
ENDBRANCH  36   7
ENDBRANCH  32  36
ENDBRANCH  13  24
BRANCH  15  20
ATOM      4  O   UNL     1     -18.414   5.504  26.533  0.00  0.00    -0.336 OA
ATOM     12  N   UNL     1     -16.499   4.367  26.292  0.00  0.00    -0.190 NA
ATOM     14  N   UNL     1     -18.032   5.106  27.821  0.00  0.00    -0.056 NA
ATOM     20  C   UNL     1     -17.459   5.028  25.693  0.00  0.00    +0.249 A 
ATOM     23  C   UNL     1     -16.894   4.442  27.596  0.00  0.00    +0.202 A 
BRANCH  23  25
ATOM     25  C   UNL     1     -16.131   3.841  28.650  0.00  0.00    +0.023 A 
ATOM     28  C   UNL     1     -15.791   2.489  28.582  0.00  0.00    +0.015 A 
ATOM     29  C   UNL     1     -15.727   4.607  29.743  0.00  0.00    +0.015 A 
ATOM     33  C   UNL     1     -15.049   1.904  29.608  0.00  0.00    +0.046 A 
ATOM     34  C   UNL     1     -14.985   4.022  30.769  0.00  0.00    +0.046 A 
ATOM     35  C   UNL     1     -14.647   2.671  30.702  0.00  0.00    +0.130 A 
BRANCH  35   6
ATOM      6  O   UNL     1     -13.923   2.100  31.704  0.00  0.00    -0.406 OA
BRANCH   6  38
ATOM      1  F   UNL     1     -15.741   2.212  33.036  0.00  0.00    -0.133 F 
ATOM      2  F   UNL     1     -15.003   0.235  32.468  0.00  0.00    -0.133 F 
ATOM      3  F   UNL     1     -13.875   1.478  33.905  0.00  0.00    -0.133 F 
ATOM     38  C   UNL     1     -14.625   1.493  32.782  0.00  0.00    +0.575 C 
ENDBRANCH   6  38
ENDBRANCH  35   6
ENDBRANCH  23  25
ENDBRANCH  15  20
TORSDOF 8
ENDMDL
MODEL 2
REMARK VINA RESULT:      -8.0     20.995     24.959
REMARK  Name = 45360619
REMARK  9 active torsions:
REMARK  status: ('A' for Active; 'I' for Inactive)
REMARK    1  A    between atoms: O_6  and  C_35
REMARK    2  A    between atoms: O_6  and  C_38
REMARK    3  A    between atoms: O_7  and  C_36
REMARK    4  A    between atoms: O_7  and  C_37
REMARK    5  A    between atoms: N_13  and  C_24
REMARK    6  A    between atoms: C_15  and  C_20
REMARK    7  A    between atoms: C_23  and  C_25
REMARK    8  A    between atoms: C_32  and  C_36
REMARK    9  A    between atoms: C_37  and  C_39
REMARK                            x       y       z     vdW  Elec       q    Type
REMARK                         _______ _______ _______ _____ _____    ______ ____
ROOT
ATOM      5  O   UNL     1      -7.999  -9.659   8.343  0.00  0.00    -0.252 OA
ATOM      9  N   UNL     1      -8.668  -7.442   8.145  0.00  0.00    -0.267 N 
ATOM     10  N   UNL     1      -9.703  -3.928   8.908  0.00  0.00    -0.347 N 
ATOM     11  N   UNL     1     -11.763  -4.786   9.026  0.00  0.00    -0.240 NA
ATOM     13  N   UNL     1      -6.455  -7.978   8.779  0.00  0.00    -0.269 N 
ATOM     15  C   UNL     1     -10.017  -7.848   7.614  0.00  0.00    +0.172 C 
ATOM     16  C   UNL     1     -11.179  -7.169   8.399  0.00  0.00    +0.089 C 
ATOM     17  C   UNL     1      -8.358  -5.986   8.242  0.00  0.00    +0.165 C 
ATOM     18  C   UNL     1     -10.862  -5.751   8.676  0.00  0.00    +0.066 A 
ATOM     19  C   UNL     1      -9.588  -5.250   8.598  0.00  0.00    +0.056 A 
ATOM     21  C   UNL     1      -7.719  -8.461   8.431  0.00  0.00    +0.307 C 
ATOM     22  C   UNL     1     -11.033  -3.697   9.160  0.00  0.00    +0.197 A 
ATOM     40  H   UNL     1      -8.958  -3.246   8.948  0.00  0.00    +0.167 HD
ATOM     41  H   UNL     1      -6.176  -7.073   8.411  0.00  0.00    +0.156 HD
ENDROOT
BRANCH  13  24
ATOM     24  C   UNL     1      -5.509  -8.585   9.640  0.00  0.00    +0.035 A 
ATOM     26  C   UNL     1      -4.208  -8.820   9.194  0.00  0.00    +0.024 A 
ATOM     27  C   UNL     1      -5.877  -8.951  10.935  0.00  0.00    +0.024 A 
ATOM     30  C   UNL     1      -3.277  -9.419  10.041  0.00  0.00    +0.017 A 
ATOM     31  C   UNL     1      -4.945  -9.550  11.783  0.00  0.00    +0.017 A 
ATOM     32  C   UNL     1      -3.646  -9.783  11.337  0.00  0.00    +0.059 A 
BRANCH  32  36
ATOM      8  O   UNL     1      -1.546 -10.780  11.869  0.00  0.00    -0.245 OA
ATOM     36  C   UNL     1      -2.674 -10.408  12.219  0.00  0.00    +0.339 C 
BRANCH  36   7
ATOM      7  O   UNL     1      -3.159 -10.536  13.493  0.00  0.00    -0.461 OA
BRANCH   7  37
ATOM     37  C   UNL     1      -2.376 -11.308  14.409  0.00  0.00    +0.229 C 
ATOM     39  C   UNL     1      -1.645 -10.370  15.345  0.00  0.00    +0.048 C 
ENDBRANCH   7  37
ENDBRANCH  36   7
ENDBRANCH  32  36
ENDBRANCH  13  24
BRANCH  15  20
ATOM      4  O   UNL     1      -9.253  -8.553   5.390  0.00  0.00    -0.336 OA
ATOM     12  N   UNL     1     -10.750  -6.888   5.349  0.00  0.00    -0.190 NA
ATOM     14  N   UNL     1      -9.454  -8.243   4.039  0.00  0.00    -0.056 NA
ATOM     20  C   UNL     1     -10.053  -7.711   6.093  0.00  0.00    +0.249 A 
ATOM     23  C   UNL     1     -10.349  -7.252   4.097  0.00  0.00    +0.202 A 
BRANCH  23  25
ATOM     25  C   UNL     1     -10.863  -6.608   2.924  0.00  0.00    +0.023 A 
ATOM     28  C   UNL     1     -12.210  -6.744   2.587  0.00  0.00    +0.015 A 
ATOM     29  C   UNL     1     -10.017  -5.845   2.119  0.00  0.00    +0.015 A 
ATOM     33  C   UNL     1     -12.709  -6.117   1.445  0.00  0.00    +0.046 A 
ATOM     34  C   UNL     1     -10.516  -5.219   0.978  0.00  0.00    +0.046 A 
ATOM     35  C   UNL     1     -11.862  -5.355   0.640  0.00  0.00    +0.130 A 
BRANCH  35   6
ATOM      6  O   UNL     1     -12.349  -4.744  -0.474  0.00  0.00    -0.406 OA
BRANCH   6  38
ATOM      1  F   UNL     1     -11.672  -2.600  -0.680  0.00  0.00    -0.133 F 
ATOM      2  F   UNL     1     -13.723  -3.090  -1.255  0.00  0.00    -0.133 F 
ATOM      3  F   UNL     1     -13.134  -3.071   0.874  0.00  0.00    -0.133 F 
ATOM     38  C   UNL     1     -12.737  -3.378  -0.379  0.00  0.00    +0.575 C 
ENDBRANCH   6  38
ENDBRANCH  35   6
ENDBRANCH  23  25
ENDBRANCH  15  20
TORSDOF 8
ENDMDL
MODEL 3
REMARK VINA RESULT:      -7.9     19.707     22.881
REMARK  Name = 45360619
REMARK  9 active torsions:
REMARK  status: ('A' for Active; 'I' for Inactive)
REMARK    1  A    between atoms: O_6  and  C_35
REMARK    2  A    between atoms: O_6  and  C_38
REMARK    3  A    between atoms: O_7  and  C_36
REMARK    4  A    between atoms: O_7  and  C_37
REMARK    5  A    between atoms: N_13  and  C_24
REMARK    6  A    between atoms: C_15  and  C_20
REMARK    7  A    between atoms: C_23  and  C_25
REMARK    8  A    between atoms: C_32  and  C_36
REMARK    9  A    between atoms: C_37  and  C_39
REMARK                            x       y       z     vdW  Elec       q    Type
REMARK                         _______ _______ _______ _____ _____    ______ ____
ROOT
ATOM      5  O   UNL     1     -10.003  -8.518   9.057  0.00  0.00    -0.252 OA
ATOM      9  N   UNL     1      -8.853  -8.201   7.063  0.00  0.00    -0.267 N 
ATOM     10  N   UNL     1      -7.991  -7.417   3.507  0.00  0.00    -0.347 N 
ATOM     11  N   UNL     1      -8.535  -9.550   3.128  0.00  0.00    -0.240 NA
ATOM     13  N   UNL     1      -9.600  -6.349   8.328  0.00  0.00    -0.269 N 
ATOM     15  C   UNL     1      -8.595  -9.677   6.922  0.00  0.00    +0.172 C 
ATOM     16  C   UNL     1      -9.024 -10.211   5.522  0.00  0.00    +0.089 C 
ATOM     17  C   UNL     1      -8.279  -7.284   6.034  0.00  0.00    +0.165 C 
ATOM     18  C   UNL     1      -8.629  -9.262   4.460  0.00  0.00    +0.066 A 
ATOM     19  C   UNL     1      -8.301  -7.955   4.719  0.00  0.00    +0.056 A 
ATOM     21  C   UNL     1      -9.538  -7.740   8.220  0.00  0.00    +0.307 C 
ATOM     22  C   UNL     1      -8.148  -8.416   2.579  0.00  0.00    +0.197 A 
ATOM     40  H   UNL     1      -7.701  -6.466   3.321  0.00  0.00    +0.167 HD
ATOM     41  H   UNL     1      -8.858  -5.808   7.893  0.00  0.00    +0.156 HD
ENDROOT
BRANCH  13  24
ATOM     24  C   UNL     1     -10.616  -5.577   8.942  0.00  0.00    +0.035 A 
ATOM     26  C   UNL     1     -11.822  -6.175   9.308  0.00  0.00    +0.024 A 
ATOM     27  C   UNL     1     -10.412  -4.218   9.179  0.00  0.00    +0.024 A 
ATOM     30  C   UNL     1     -12.823  -5.415   9.911  0.00  0.00    +0.017 A 
ATOM     31  C   UNL     1     -11.414  -3.457   9.783  0.00  0.00    +0.017 A 
ATOM     32  C   UNL     1     -12.618  -4.055  10.149  0.00  0.00    +0.059 A 
BRANCH  32  36
ATOM      8  O   UNL     1     -14.649  -2.804  10.185  0.00  0.00    -0.245 OA
ATOM     36  C   UNL     1     -13.663  -3.263  10.778  0.00  0.00    +0.339 C 
BRANCH  36   7
ATOM      7  O   UNL     1     -13.425  -3.086  12.114  0.00  0.00    -0.461 OA
BRANCH   7  37
ATOM     37  C   UNL     1     -14.174  -3.903  13.020  0.00  0.00    +0.229 C 
ATOM     39  C   UNL     1     -13.232  -4.872  13.703  0.00  0.00    +0.048 C 
ENDBRANCH   7  37
ENDBRANCH  36   7
ENDBRANCH  32  36
ENDBRANCH  13  24
BRANCH  15  20
ATOM      4  O   UNL     1      -6.355 -10.556   6.434  0.00  0.00    -0.336 OA
ATOM     12  N   UNL     1      -6.617  -9.861   8.547  0.00  0.00    -0.190 NA
ATOM     14  N   UNL     1      -5.128 -10.777   7.072  0.00  0.00    -0.056 NA
ATOM     20  C   UNL     1      -7.175 -10.015   7.372  0.00  0.00    +0.249 A 
ATOM     23  C   UNL     1      -5.362 -10.343   8.314  0.00  0.00    +0.202 A 
BRANCH  23  25
ATOM     25  C   UNL     1      -4.364 -10.374   9.343  0.00  0.00    +0.023 A 
ATOM     28  C   UNL     1      -3.622  -9.228   9.631  0.00  0.00    +0.015 A 
ATOM     29  C   UNL     1      -4.135 -11.550  10.057  0.00  0.00    +0.015 A 
ATOM     33  C   UNL     1      -2.651  -9.259  10.632  0.00  0.00    +0.046 A 
ATOM     34  C   UNL     1      -3.164 -11.581  11.058  0.00  0.00    +0.046 A 
ATOM     35  C   UNL     1      -2.422 -10.436  11.345  0.00  0.00    +0.130 A 
BRANCH  35   6
ATOM      6  O   UNL     1      -1.474 -10.467  12.322  0.00  0.00    -0.406 OA
BRANCH   6  38
ATOM      1  F   UNL     1      -1.707 -11.662  14.223  0.00  0.00    -0.133 F 
ATOM      2  F   UNL     1      -1.189  -9.546  14.395  0.00  0.00    -0.133 F 
ATOM      3  F   UNL     1      -3.219 -10.151  13.767  0.00  0.00    -0.133 F 
ATOM     38  C   UNL     1      -1.903 -10.440  13.678  0.00  0.00    +0.575 C 
ENDBRANCH   6  38
ENDBRANCH  35   6
ENDBRANCH  23  25
ENDBRANCH  15  20
TORSDOF 8
ENDMDL
MODEL 4
REMARK VINA RESULT:      -7.7     25.196     28.566
REMARK  Name = 45360619
REMARK  9 active torsions:
REMARK  status: ('A' for Active; 'I' for Inactive)
REMARK    1  A    between atoms: O_6  and  C_35
REMARK    2  A    between atoms: O_6  and  C_38
REMARK    3  A    between atoms: O_7  and  C_36
REMARK    4  A    between atoms: O_7  and  C_37
REMARK    5  A    between atoms: N_13  and  C_24
REMARK    6  A    between atoms: C_15  and  C_20
REMARK    7  A    between atoms: C_23  and  C_25
REMARK    8  A    between atoms: C_32  and  C_36
REMARK    9  A    between atoms: C_37  and  C_39
REMARK                            x       y       z     vdW  Elec       q    Type
REMARK                         _______ _______ _______ _____ _____    ______ ____
ROOT
ATOM      5  O   UNL     1      -4.050 -12.978   9.833  0.00  0.00    -0.252 OA
ATOM      9  N   UNL     1      -4.818 -11.336   8.380  0.00  0.00    -0.267 N 
ATOM     10  N   UNL     1      -6.740  -8.507   6.861  0.00  0.00    -0.347 N 
ATOM     11  N   UNL     1      -8.135 -10.108   6.166  0.00  0.00    -0.240 NA
ATOM     13  N   UNL     1      -3.552 -10.755  10.289  0.00  0.00    -0.269 N 
ATOM     15  C   UNL     1      -5.354 -12.367   7.423  0.00  0.00    +0.172 C 
ATOM     16  C   UNL     1      -6.843 -12.097   7.052  0.00  0.00    +0.089 C 
ATOM     17  C   UNL     1      -4.937  -9.897   8.004  0.00  0.00    +0.165 C 
ATOM     18  C   UNL     1      -7.070 -10.654   6.824  0.00  0.00    +0.066 A 
ATOM     19  C   UNL     1      -6.198  -9.691   7.264  0.00  0.00    +0.056 A 
ATOM     21  C   UNL     1      -4.134 -11.782   9.543  0.00  0.00    +0.307 C 
ATOM     22  C   UNL     1      -7.907  -8.810   6.205  0.00  0.00    +0.197 A 
ATOM     40  H   UNL     1      -6.361  -7.582   7.014  0.00  0.00    +0.167 HD
ATOM     41  H   UNL     1      -3.277  -9.910   9.797  0.00  0.00    +0.156 HD
ENDROOT
BRANCH  13  24
ATOM     24  C   UNL     1      -3.334 -10.723  11.689  0.00  0.00    +0.035 A 
ATOM     26  C   UNL     1      -2.033 -10.720  12.192  0.00  0.00    +0.024 A 
ATOM     27  C   UNL     1      -4.420 -10.698  12.564  0.00  0.00    +0.024 A 
ATOM     30  C   UNL     1      -1.818 -10.690  13.570  0.00  0.00    +0.017 A 
ATOM     31  C   UNL     1      -4.205 -10.668  13.942  0.00  0.00    +0.017 A 
ATOM     32  C   UNL     1      -2.905 -10.664  14.445  0.00  0.00    +0.059 A 
BRANCH  32  36
ATOM      8  O   UNL     1      -1.574 -10.774  16.421  0.00  0.00    -0.245 OA
ATOM     36  C   UNL     1      -2.680 -10.633  15.881  0.00  0.00    +0.339 C 
BRANCH  36   7
ATOM      7  O   UNL     1      -3.845 -10.428  16.569  0.00  0.00    -0.461 OA
BRANCH   7  37
ATOM     37  C   UNL     1      -4.133 -11.335  17.639  0.00  0.00    +0.229 C 
ATOM     39  C   UNL     1      -5.248 -10.760  18.485  0.00  0.00    +0.048 C 
ENDBRANCH   7  37
ENDBRANCH  36   7
ENDBRANCH  32  36
ENDBRANCH  13  24
BRANCH  15  20
ATOM      4  O   UNL     1      -4.587 -11.779   5.166  0.00  0.00    -0.336 OA
ATOM     12  N   UNL     1      -3.377 -13.390   6.145  0.00  0.00    -0.190 NA
ATOM     14  N   UNL     1      -3.595 -12.136   4.244  0.00  0.00    -0.056 NA
ATOM     20  C   UNL     1      -4.387 -12.563   6.257  0.00  0.00    +0.249 A 
ATOM     23  C   UNL     1      -2.922 -13.091   4.894  0.00  0.00    +0.202 A 
BRANCH  23  25
ATOM     25  C   UNL     1      -1.792 -13.763   4.323  0.00  0.00    +0.023 A 
ATOM     28  C   UNL     1      -0.853 -14.377   5.152  0.00  0.00    +0.015 A 
ATOM     29  C   UNL     1      -1.631 -13.803   2.938  0.00  0.00    +0.015 A 
ATOM     33  C   UNL     1       0.247 -15.030   4.596  0.00  0.00    +0.046 A 
ATOM     34  C   UNL     1      -0.531 -14.456   2.382  0.00  0.00    +0.046 A 
ATOM     35  C   UNL     1       0.408 -15.069   3.211  0.00  0.00    +0.130 A 
BRANCH  35   6
ATOM      6  O   UNL     1       1.481 -15.706   2.668  0.00  0.00    -0.406 OA
BRANCH   6  38
ATOM      1  F   UNL     1       3.655 -15.416   2.132  0.00  0.00    -0.133 F 
ATOM      2  F   UNL     1       2.156 -15.035   0.588  0.00  0.00    -0.133 F 
ATOM      3  F   UNL     1       2.389 -13.641   2.286  0.00  0.00    -0.133 F 
ATOM     38  C   UNL     1       2.410 -14.938   1.910  0.00  0.00    +0.575 C 
ENDBRANCH   6  38
ENDBRANCH  35   6
ENDBRANCH  23  25
ENDBRANCH  15  20
TORSDOF 8
ENDMDL
MODEL 5
REMARK VINA RESULT:      -7.6     21.990     25.791
REMARK  Name = 45360619
REMARK  9 active torsions:
REMARK  status: ('A' for Active; 'I' for Inactive)
REMARK    1  A    between atoms: O_6  and  C_35
REMARK    2  A    between atoms: O_6  and  C_38
REMARK    3  A    between atoms: O_7  and  C_36
REMARK    4  A    between atoms: O_7  and  C_37
REMARK    5  A    between atoms: N_13  and  C_24
REMARK    6  A    between atoms: C_15  and  C_20
REMARK    7  A    between atoms: C_23  and  C_25
REMARK    8  A    between atoms: C_32  and  C_36
REMARK    9  A    between atoms: C_37  and  C_39
REMARK                            x       y       z     vdW  Elec       q    Type
REMARK                         _______ _______ _______ _____ _____    ______ ____
ROOT
ATOM      5  O   UNL     1      -8.093  -9.739   8.467  0.00  0.00    -0.252 OA
ATOM      9  N   UNL     1      -8.690  -7.508   8.210  0.00  0.00    -0.267 N 
ATOM     10  N   UNL     1      -9.592  -3.939   8.880  0.00  0.00    -0.347 N 
ATOM     11  N   UNL     1     -11.677  -4.721   9.059  0.00  0.00    -0.240 NA
ATOM     13  N   UNL     1      -6.486  -8.100   8.823  0.00  0.00    -0.269 N 
ATOM     15  C   UNL     1     -10.061  -7.883   7.714  0.00  0.00    +0.172 C 
ATOM     16  C   UNL     1     -11.185  -7.141   8.497  0.00  0.00    +0.089 C 
ATOM     17  C   UNL     1      -8.330  -6.061   8.256  0.00  0.00    +0.165 C 
ATOM     18  C   UNL     1     -10.816  -5.727   8.724  0.00  0.00    +0.066 A 
ATOM     19  C   UNL     1      -9.527  -5.273   8.609  0.00  0.00    +0.056 A 
ATOM     21  C   UNL     1      -7.771  -8.549   8.512  0.00  0.00    +0.307 C 
ATOM     22  C   UNL     1     -10.908  -3.654   9.146  0.00  0.00    +0.197 A 
ATOM     40  H   UNL     1      -8.824  -3.282   8.885  0.00  0.00    +0.167 HD
ATOM     41  H   UNL     1      -6.183  -7.217   8.422  0.00  0.00    +0.156 HD
ENDROOT
BRANCH  13  24
ATOM     24  C   UNL     1      -5.545  -8.712   9.688  0.00  0.00    +0.035 A 
ATOM     26  C   UNL     1      -5.930  -9.113  10.967  0.00  0.00    +0.024 A 
ATOM     27  C   UNL     1      -4.232  -8.912   9.260  0.00  0.00    +0.024 A 
ATOM     30  C   UNL     1      -5.004  -9.714  11.818  0.00  0.00    +0.017 A 
ATOM     31  C   UNL     1      -3.305  -9.514  10.112  0.00  0.00    +0.017 A 
ATOM     32  C   UNL     1      -3.691  -9.915  11.390  0.00  0.00    +0.059 A 
BRANCH  32  36
ATOM      8  O   UNL     1      -1.790 -11.261  11.904  0.00  0.00    -0.245 OA
ATOM     36  C   UNL     1      -2.726 -10.541  12.279  0.00  0.00    +0.339 C 
BRANCH  36   7
ATOM      7  O   UNL     1      -2.978 -10.239  13.590  0.00  0.00    -0.461 OA
BRANCH   7  37
ATOM     37  C   UNL     1      -1.860 -10.252  14.484  0.00  0.00    +0.229 C 
ATOM     39  C   UNL     1      -2.295 -10.845  15.807  0.00  0.00    +0.048 C 
ENDBRANCH   7  37
ENDBRANCH  36   7
ENDBRANCH  32  36
ENDBRANCH  13  24
BRANCH  15  20
ATOM      4  O   UNL     1     -11.031  -6.929   5.670  0.00  0.00    -0.336 OA
ATOM     12  N   UNL     1      -9.413  -8.432   5.293  0.00  0.00    -0.190 NA
ATOM     14  N   UNL     1     -10.900  -7.019   4.279  0.00  0.00    -0.056 NA
ATOM     20  C   UNL     1     -10.120  -7.792   6.191  0.00  0.00    +0.249 A 
ATOM     23  C   UNL     1      -9.927  -7.925   4.135  0.00  0.00    +0.202 A 
BRANCH  23  25
ATOM     25  C   UNL     1      -9.446  -8.342   2.851  0.00  0.00    +0.023 A 
ATOM     28  C   UNL     1     -10.029  -9.434   2.207  0.00  0.00    +0.015 A 
ATOM     29  C   UNL     1      -8.393  -7.657   2.244  0.00  0.00    +0.015 A 
ATOM     33  C   UNL     1      -9.560  -9.839   0.958  0.00  0.00    +0.046 A 
ATOM     34  C   UNL     1      -7.923  -8.063   0.995  0.00  0.00    +0.046 A 
ATOM     35  C   UNL     1      -8.506  -9.154   0.352  0.00  0.00    +0.130 A 
BRANCH  35   6
ATOM      6  O   UNL     1      -8.048  -9.550  -0.867  0.00  0.00    -0.406 OA
BRANCH   6  38
ATOM      1  F   UNL     1      -7.977  -8.835  -3.007  0.00  0.00    -0.133 F 
ATOM      2  F   UNL     1      -9.520 -10.282  -2.456  0.00  0.00    -0.133 F 
ATOM      3  F   UNL     1      -9.653  -8.188  -1.762  0.00  0.00    -0.133 F 
ATOM     38  C   UNL     1      -8.816  -9.217  -2.017  0.00  0.00    +0.575 C 
ENDBRANCH   6  38
ENDBRANCH  35   6
ENDBRANCH  23  25
ENDBRANCH  15  20
TORSDOF 8
ENDMDL
MODEL 6
REMARK VINA RESULT:      -7.5     27.854     29.763
REMARK  Name = 45360619
REMARK  9 active torsions:
REMARK  status: ('A' for Active; 'I' for Inactive)
REMARK    1  A    between atoms: O_6  and  C_35
REMARK    2  A    between atoms: O_6  and  C_38
REMARK    3  A    between atoms: O_7  and  C_36
REMARK    4  A    between atoms: O_7  and  C_37
REMARK    5  A    between atoms: N_13  and  C_24
REMARK    6  A    between atoms: C_15  and  C_20
REMARK    7  A    between atoms: C_23  and  C_25
REMARK    8  A    between atoms: C_32  and  C_36
REMARK    9  A    between atoms: C_37  and  C_39
REMARK                            x       y       z     vdW  Elec       q    Type
REMARK                         _______ _______ _______ _____ _____    ______ ____
ROOT
ATOM      5  O   UNL     1      12.175  11.582   9.713  0.00  0.00    -0.252 OA
ATOM      9  N   UNL     1      10.912  12.256  11.543  0.00  0.00    -0.267 N 
ATOM     10  N   UNL     1       8.439  13.998  13.746  0.00  0.00    -0.347 N 
ATOM     11  N   UNL     1      10.061  15.511  14.010  0.00  0.00    -0.240 NA
ATOM     13  N   UNL     1       9.951  10.924   9.843  0.00  0.00    -0.269 N 
ATOM     15  C   UNL     1      12.113  12.876  12.204  0.00  0.00    +0.172 C 
ATOM     16  C   UNL     1      11.843  14.348  12.637  0.00  0.00    +0.089 C 
ATOM     17  C   UNL     1       9.613  12.280  12.277  0.00  0.00    +0.165 C 
ATOM     18  C   UNL     1      10.494  14.477  13.230  0.00  0.00    +0.066 A 
ATOM     19  C   UNL     1       9.515  13.534  13.050  0.00  0.00    +0.056 A 
ATOM     21  C   UNL     1      11.091  11.587  10.301  0.00  0.00    +0.307 C 
ATOM     22  C   UNL     1       8.817  15.193  14.306  0.00  0.00    +0.197 A 
ATOM     40  H   UNL     1       7.535  13.553  13.835  0.00  0.00    +0.167 HD
ATOM     41  H   UNL     1       9.283  10.598  10.535  0.00  0.00    +0.156 HD
ENDROOT
BRANCH  13  24
ATOM     24  C   UNL     1       9.577  10.683   8.498  0.00  0.00    +0.035 A 
ATOM     26  C   UNL     1       9.324  11.755   7.642  0.00  0.00    +0.024 A 
ATOM     27  C   UNL     1       9.457   9.374   8.031  0.00  0.00    +0.024 A 
ATOM     30  C   UNL     1       8.954  11.519   6.318  0.00  0.00    +0.017 A 
ATOM     31  C   UNL     1       9.087   9.138   6.707  0.00  0.00    +0.017 A 
ATOM     32  C   UNL     1       8.836  10.209   5.851  0.00  0.00    +0.059 A 
BRANCH  32  36
ATOM      8  O   UNL     1       9.119  10.299   3.484  0.00  0.00    -0.245 OA
ATOM     36  C   UNL     1       8.449   9.964   4.471  0.00  0.00    +0.339 C 
BRANCH  36   7
ATOM      7  O   UNL     1       7.248   9.313   4.392  0.00  0.00    -0.461 OA
BRANCH   7  37
ATOM     37  C   UNL     1       6.248   9.900   3.552  0.00  0.00    +0.229 C 
ATOM     39  C   UNL     1       5.423  10.869   4.371  0.00  0.00    +0.048 C 
ENDBRANCH   7  37
ENDBRANCH  36   7
ENDBRANCH  32  36
ENDBRANCH  13  24
BRANCH  15  20
ATOM      4  O   UNL     1      14.023  11.911  13.409  0.00  0.00    -0.336 OA
ATOM     12  N   UNL     1      12.033  11.152  14.104  0.00  0.00    -0.190 NA
ATOM     14  N   UNL     1      14.291  10.998  14.437  0.00  0.00    -0.056 NA
ATOM     20  C   UNL     1      12.671  11.943  13.277  0.00  0.00    +0.249 A 
ATOM     23  C   UNL     1      13.069  10.594  14.795  0.00  0.00    +0.202 A 
BRANCH  23  25
ATOM     25  C   UNL     1      12.849   9.637  15.840  0.00  0.00    +0.023 A 
ATOM     28  C   UNL     1      13.934   9.063  16.501  0.00  0.00    +0.015 A 
ATOM     29  C   UNL     1      11.548   9.280  16.195  0.00  0.00    +0.015 A 
ATOM     33  C   UNL     1      13.719   8.131  17.516  0.00  0.00    +0.046 A 
ATOM     34  C   UNL     1      11.333   8.348  17.210  0.00  0.00    +0.046 A 
ATOM     35  C   UNL     1      12.418   7.774  17.871  0.00  0.00    +0.130 A 
BRANCH  35   6
ATOM      6  O   UNL     1      12.207   6.864  18.862  0.00  0.00    -0.406 OA
BRANCH   6  38
ATOM      1  F   UNL     1      12.870   8.339  20.438  0.00  0.00    -0.133 F 
ATOM      2  F   UNL     1      10.744   7.852  20.315  0.00  0.00    -0.133 F 
ATOM      3  F   UNL     1      12.186   6.370  21.095  0.00  0.00    -0.133 F 
ATOM     38  C   UNL     1      11.988   7.346  20.183  0.00  0.00    +0.575 C 
ENDBRANCH   6  38
ENDBRANCH  35   6
ENDBRANCH  23  25
ENDBRANCH  15  20
TORSDOF 8
ENDMDL
MODEL 7
REMARK VINA RESULT:      -7.5     17.190     19.392
REMARK  Name = 45360619
REMARK  9 active torsions:
REMARK  status: ('A' for Active; 'I' for Inactive)
REMARK    1  A    between atoms: O_6  and  C_35
REMARK    2  A    between atoms: O_6  and  C_38
REMARK    3  A    between atoms: O_7  and  C_36
REMARK    4  A    between atoms: O_7  and  C_37
REMARK    5  A    between atoms: N_13  and  C_24
REMARK    6  A    between atoms: C_15  and  C_20
REMARK    7  A    between atoms: C_23  and  C_25
REMARK    8  A    between atoms: C_32  and  C_36
REMARK    9  A    between atoms: C_37  and  C_39
REMARK                            x       y       z     vdW  Elec       q    Type
REMARK                         _______ _______ _______ _____ _____    ______ ____
ROOT
ATOM      5  O   UNL     1     -10.108  -7.703  17.563  0.00  0.00    -0.252 OA
ATOM      9  N   UNL     1     -10.538  -9.981  17.730  0.00  0.00    -0.267 N 
ATOM     10  N   UNL     1     -12.235 -13.285  18.180  0.00  0.00    -0.347 N 
ATOM     11  N   UNL     1     -11.816 -12.965  20.351  0.00  0.00    -0.240 NA
ATOM     13  N   UNL     1     -11.242  -8.760  15.833  0.00  0.00    -0.269 N 
ATOM     15  C   UNL     1      -9.740 -10.086  19.003  0.00  0.00    +0.172 C 
ATOM     16  C   UNL     1     -10.548 -10.784  20.138  0.00  0.00    +0.089 C 
ATOM     17  C   UNL     1     -11.128 -11.229  17.164  0.00  0.00    +0.165 C 
ATOM     18  C   UNL     1     -11.295 -11.944  19.608  0.00  0.00    +0.066 A 
ATOM     19  C   UNL     1     -11.540 -12.116  18.269  0.00  0.00    +0.056 A 
ATOM     21  C   UNL     1     -10.604  -8.721  17.074  0.00  0.00    +0.307 C 
ATOM     22  C   UNL     1     -12.378 -13.758  19.461  0.00  0.00    +0.197 A 
ATOM     40  H   UNL     1     -12.581 -13.723  17.337  0.00  0.00    +0.167 HD
ATOM     41  H   UNL     1     -11.217  -9.633  15.315  0.00  0.00    +0.156 HD
ENDROOT
BRANCH  13  24
ATOM     24  C   UNL     1     -11.980  -7.723  15.211  0.00  0.00    +0.035 A 
ATOM     26  C   UNL     1     -11.362  -6.507  14.916  0.00  0.00    +0.024 A 
ATOM     27  C   UNL     1     -13.325  -7.916  14.895  0.00  0.00    +0.024 A 
ATOM     30  C   UNL     1     -12.088  -5.486  14.305  0.00  0.00    +0.017 A 
ATOM     31  C   UNL     1     -14.052  -6.894  14.284  0.00  0.00    +0.017 A 
ATOM     32  C   UNL     1     -13.434  -5.680  13.988  0.00  0.00    +0.059 A 
BRANCH  32  36
ATOM      8  O   UNL     1     -15.415  -4.636  13.167  0.00  0.00    -0.245 OA
ATOM     36  C   UNL     1     -14.190  -4.614  13.351  0.00  0.00    +0.339 C 
BRANCH  36   7
ATOM      7  O   UNL     1     -13.380  -3.576  12.977  0.00  0.00    -0.461 OA
BRANCH   7  37
ATOM     37  C   UNL     1     -13.349  -3.249  11.583  0.00  0.00    +0.229 C 
ATOM     39  C   UNL     1     -12.045  -3.739  10.991  0.00  0.00    +0.048 C 
ENDBRANCH   7  37
ENDBRANCH  36   7
ENDBRANCH  32  36
ENDBRANCH  13  24
BRANCH  15  20
ATOM      4  O   UNL     1      -7.781 -11.392  19.697  0.00  0.00    -0.336 OA
ATOM     12  N   UNL     1      -7.605 -10.511  17.645  0.00  0.00    -0.190 NA
ATOM     14  N   UNL     1      -6.529 -11.787  19.210  0.00  0.00    -0.056 NA
ATOM     20  C   UNL     1      -8.349 -10.645  18.715  0.00  0.00    +0.249 A 
ATOM     23  C   UNL     1      -6.498 -11.229  17.996  0.00  0.00    +0.202 A 
BRANCH  23  25
ATOM     25  C   UNL     1      -5.381 -11.370  17.109  0.00  0.00    +0.023 A 
ATOM     28  C   UNL     1      -4.307 -10.483  17.191  0.00  0.00    +0.015 A 
ATOM     29  C   UNL     1      -5.366 -12.396  16.164  0.00  0.00    +0.015 A 
ATOM     33  C   UNL     1      -3.221 -10.621  16.328  0.00  0.00    +0.046 A 
ATOM     34  C   UNL     1      -4.279 -12.534  15.301  0.00  0.00    +0.046 A 
ATOM     35  C   UNL     1      -3.207 -11.646  15.382  0.00  0.00    +0.130 A 
BRANCH  35   6
ATOM      6  O   UNL     1      -2.146 -11.782  14.539  0.00  0.00    -0.406 OA
BRANCH   6  38
ATOM      1  F   UNL     1      -3.275 -10.457  13.102  0.00  0.00    -0.133 F 
ATOM      2  F   UNL     1      -1.304  -9.797  13.777  0.00  0.00    -0.133 F 
ATOM      3  F   UNL     1      -1.494 -11.487  12.367  0.00  0.00    -0.133 F 
ATOM     38  C   UNL     1      -2.037 -10.880  13.443  0.00  0.00    +0.575 C 
ENDBRANCH   6  38
ENDBRANCH  35   6
ENDBRANCH  23  25
ENDBRANCH  15  20
TORSDOF 8
ENDMDL
MODEL 8
REMARK VINA RESULT:      -7.2     17.089     19.591
REMARK  Name = 45360619
REMARK  9 active torsions:
REMARK  status: ('A' for Active; 'I' for Inactive)
REMARK    1  A    between atoms: O_6  and  C_35
REMARK    2  A    between atoms: O_6  and  C_38
REMARK    3  A    between atoms: O_7  and  C_36
REMARK    4  A    between atoms: O_7  and  C_37
REMARK    5  A    between atoms: N_13  and  C_24
REMARK    6  A    between atoms: C_15  and  C_20
REMARK    7  A    between atoms: C_23  and  C_25
REMARK    8  A    between atoms: C_32  and  C_36
REMARK    9  A    between atoms: C_37  and  C_39
REMARK                            x       y       z     vdW  Elec       q    Type
REMARK                         _______ _______ _______ _____ _____    ______ ____
ROOT
ATOM      5  O   UNL     1      -8.287  -9.826  14.272  0.00  0.00    -0.252 OA
ATOM      9  N   UNL     1      -9.324  -9.495  16.325  0.00  0.00    -0.267 N 
ATOM     10  N   UNL     1     -10.565  -9.938  19.827  0.00  0.00    -0.347 N 
ATOM     11  N   UNL     1     -12.288 -10.980  18.858  0.00  0.00    -0.240 NA
ATOM     13  N   UNL     1      -6.975  -9.332  16.125  0.00  0.00    -0.269 N 
ATOM     15  C   UNL     1     -10.692  -9.596  15.703  0.00  0.00    +0.172 C 
ATOM     16  C   UNL     1     -11.594 -10.625  16.449  0.00  0.00    +0.089 C 
ATOM     17  C   UNL     1      -9.234  -9.200  17.785  0.00  0.00    +0.165 C 
ATOM     18  C   UNL     1     -11.428 -10.497  17.913  0.00  0.00    +0.066 A 
ATOM     19  C   UNL     1     -10.359  -9.854  18.483  0.00  0.00    +0.056 A 
ATOM     21  C   UNL     1      -8.187  -9.581  15.477  0.00  0.00    +0.307 C 
ATOM     22  C   UNL     1     -11.740 -10.627  20.003  0.00  0.00    +0.197 A 
ATOM     40  H   UNL     1      -9.972  -9.568  20.557  0.00  0.00    +0.167 HD
ATOM     41  H   UNL     1      -6.990  -8.727  16.941  0.00  0.00    +0.156 HD
ENDROOT
BRANCH  13  24
ATOM     24  C   UNL     1      -5.702  -9.867  15.807  0.00  0.00    +0.035 A 
ATOM     26  C   UNL     1      -4.803 -10.182  16.827  0.00  0.00    +0.024 A 
ATOM     27  C   UNL     1      -5.346 -10.076  14.475  0.00  0.00    +0.024 A 
ATOM     30  C   UNL     1      -3.550 -10.708  16.514  0.00  0.00    +0.017 A 
ATOM     31  C   UNL     1      -4.092 -10.601  14.162  0.00  0.00    +0.017 A 
ATOM     32  C   UNL     1      -3.194 -10.918  15.181  0.00  0.00    +0.059 A 
BRANCH  32  36
ATOM      8  O   UNL     1      -0.840 -11.180  15.452  0.00  0.00    -0.245 OA
ATOM     36  C   UNL     1      -1.887 -11.465  14.856  0.00  0.00    +0.339 C 
BRANCH  36   7
ATOM      7  O   UNL     1      -1.955 -12.341  13.806  0.00  0.00    -0.461 OA
BRANCH   7  37
ATOM     37  C   UNL     1      -2.214 -13.712  14.123  0.00  0.00    +0.229 C 
ATOM     39  C   UNL     1      -3.348 -14.212  13.253  0.00  0.00    +0.048 C 
ENDBRANCH   7  37
ENDBRANCH  36   7
ENDBRANCH  32  36
ENDBRANCH  13  24
BRANCH  15  20
ATOM      4  O   UNL     1     -11.144  -7.322  16.510  0.00  0.00    -0.336 OA
ATOM     12  N   UNL     1     -11.915  -7.723  14.446  0.00  0.00    -0.190 NA
ATOM     14  N   UNL     1     -11.754  -6.135  16.085  0.00  0.00    -0.056 NA
ATOM     20  C   UNL     1     -11.282  -8.204  15.487  0.00  0.00    +0.249 A 
ATOM     23  C   UNL     1     -12.185  -6.451  14.860  0.00  0.00    +0.202 A 
BRANCH  23  25
ATOM     25  C   UNL     1     -12.884  -5.520  14.024  0.00  0.00    +0.023 A 
ATOM     28  C   UNL     1     -12.173  -4.577  13.281  0.00  0.00    +0.015 A 
ATOM     29  C   UNL     1     -14.277  -5.556  13.954  0.00  0.00    +0.015 A 
ATOM     33  C   UNL     1     -12.855  -3.671  12.469  0.00  0.00    +0.046 A 
ATOM     34  C   UNL     1     -14.959  -4.649  13.142  0.00  0.00    +0.046 A 
ATOM     35  C   UNL     1     -14.248  -3.707  12.400  0.00  0.00    +0.130 A 
BRANCH  35   6
ATOM      6  O   UNL     1     -14.913  -2.822  11.607  0.00  0.00    -0.406 OA
BRANCH   6  38
ATOM      1  F   UNL     1     -16.498  -3.203  10.045  0.00  0.00    -0.133 F 
ATOM      2  F   UNL     1     -14.621  -2.286   9.403  0.00  0.00    -0.133 F 
ATOM      3  F   UNL     1     -14.681  -4.417   9.984  0.00  0.00    -0.133 F 
ATOM     38  C   UNL     1     -15.162  -3.185  10.254  0.00  0.00    +0.575 C 
ENDBRANCH   6  38
ENDBRANCH  35   6
ENDBRANCH  23  25
ENDBRANCH  15  20
TORSDOF 8
ENDMDL
MODEL 9
REMARK VINA RESULT:      -7.2     23.583     26.981
REMARK  Name = 45360619
REMARK  9 active torsions:
REMARK  status: ('A' for Active; 'I' for Inactive)
REMARK    1  A    between atoms: O_6  and  C_35
REMARK    2  A    between atoms: O_6  and  C_38
REMARK    3  A    between atoms: O_7  and  C_36
REMARK    4  A    between atoms: O_7  and  C_37
REMARK    5  A    between atoms: N_13  and  C_24
REMARK    6  A    between atoms: C_15  and  C_20
REMARK    7  A    between atoms: C_23  and  C_25
REMARK    8  A    between atoms: C_32  and  C_36
REMARK    9  A    between atoms: C_37  and  C_39
REMARK                            x       y       z     vdW  Elec       q    Type
REMARK                         _______ _______ _______ _____ _____    ______ ____
ROOT
ATOM      5  O   UNL     1      -6.148 -12.075  10.278  0.00  0.00    -0.252 OA
ATOM      9  N   UNL     1      -6.541 -10.120   9.085  0.00  0.00    -0.267 N 
ATOM     10  N   UNL     1      -7.574  -6.656   8.121  0.00  0.00    -0.347 N 
ATOM     11  N   UNL     1      -9.555  -7.595   7.690  0.00  0.00    -0.240 NA
ATOM     13  N   UNL     1      -4.810 -10.221  10.692  0.00  0.00    -0.269 N 
ATOM     15  C   UNL     1      -7.582 -10.793   8.232  0.00  0.00    +0.172 C 
ATOM     16  C   UNL     1      -8.918  -9.991   8.204  0.00  0.00    +0.089 C 
ATOM     17  C   UNL     1      -6.206  -8.695   8.794  0.00  0.00    +0.165 C 
ATOM     18  C   UNL     1      -8.651  -8.542   8.082  0.00  0.00    +0.066 A 
ATOM     19  C   UNL     1      -7.426  -7.990   8.354  0.00  0.00    +0.056 A 
ATOM     21  C   UNL     1      -5.853 -10.898  10.056  0.00  0.00    +0.307 C 
ATOM     22  C   UNL     1      -8.875  -6.466   7.724  0.00  0.00    +0.197 A 
ATOM     40  H   UNL     1      -6.867  -5.939   8.219  0.00  0.00    +0.167 HD
ATOM     41  H   UNL     1      -4.351  -9.473  10.182  0.00  0.00    +0.156 HD
ENDROOT
BRANCH  13  24
ATOM     24  C   UNL     1      -4.332 -10.420  12.011  0.00  0.00    +0.035 A 
ATOM     26  C   UNL     1      -5.217 -10.374  13.088  0.00  0.00    +0.024 A 
ATOM     27  C   UNL     1      -2.976 -10.660  12.232  0.00  0.00    +0.024 A 
ATOM     30  C   UNL     1      -4.747 -10.568  14.386  0.00  0.00    +0.017 A 
ATOM     31  C   UNL     1      -2.505 -10.854  13.531  0.00  0.00    +0.017 A 
ATOM     32  C   UNL     1      -3.390 -10.809  14.608  0.00  0.00    +0.059 A 
BRANCH  32  36
ATOM      8  O   UNL     1      -1.806 -10.609  16.380  0.00  0.00    -0.245 OA
ATOM     36  C   UNL     1      -2.900 -11.011  15.962  0.00  0.00    +0.339 C 
BRANCH  36   7
ATOM      7  O   UNL     1      -3.801 -11.704  16.724  0.00  0.00    -0.461 OA
BRANCH   7  37
ATOM     37  C   UNL     1      -4.246 -11.076  17.932  0.00  0.00    +0.229 C 
ATOM     39  C   UNL     1      -4.079 -12.046  19.082  0.00  0.00    +0.048 C 
ENDBRANCH   7  37
ENDBRANCH  36   7
ENDBRANCH  32  36
ENDBRANCH  13  24
BRANCH  15  20
ATOM      4  O   UNL     1      -7.845 -11.171   5.821  0.00  0.00    -0.336 OA
ATOM     12  N   UNL     1      -5.766 -11.527   6.574  0.00  0.00    -0.190 NA
ATOM     14  N   UNL     1      -7.088 -11.554   4.707  0.00  0.00    -0.056 NA
ATOM     20  C   UNL     1      -6.992 -11.180   6.877  0.00  0.00    +0.249 A 
ATOM     23  C   UNL     1      -5.874 -11.747   5.232  0.00  0.00    +0.202 A 
BRANCH  23  25
ATOM     25  C   UNL     1      -4.748 -12.156   4.443  0.00  0.00    +0.023 A 
ATOM     28  C   UNL     1      -4.922 -12.492   3.100  0.00  0.00    +0.015 A 
ATOM     29  C   UNL     1      -3.479 -12.218   5.018  0.00  0.00    +0.015 A 
ATOM     33  C   UNL     1      -3.827 -12.891   2.334  0.00  0.00    +0.046 A 
ATOM     34  C   UNL     1      -2.384 -12.617   4.252  0.00  0.00    +0.046 A 
ATOM     35  C   UNL     1      -2.558 -12.954   2.910  0.00  0.00    +0.130 A 
BRANCH  35   6
ATOM      6  O   UNL     1      -1.489 -13.343   2.162  0.00  0.00    -0.406 OA
BRANCH   6  38
ATOM      1  F   UNL     1      -0.412 -15.113   1.268  0.00  0.00    -0.133 F 
ATOM      2  F   UNL     1       0.100 -14.522   3.308  0.00  0.00    -0.133 F 
ATOM      3  F   UNL     1      -1.840 -15.487   2.879  0.00  0.00    -0.133 F 
ATOM     38  C   UNL     1      -0.913 -14.618   2.422  0.00  0.00    +0.575 C 
ENDBRANCH   6  38
ENDBRANCH  35   6
ENDBRANCH  23  25
ENDBRANCH  15  20
TORSDOF 8
ENDMDL
MODEL 10
REMARK VINA RESULT:      -6.8     22.890     27.006
REMARK  Name = 45360619
REMARK  9 active torsions:
REMARK  status: ('A' for Active; 'I' for Inactive)
REMARK    1  A    between atoms: O_6  and  C_35
REMARK    2  A    between atoms: O_6  and  C_38
REMARK    3  A    between atoms: O_7  and  C_36
REMARK    4  A    between atoms: O_7  and  C_37
REMARK    5  A    between atoms: N_13  and  C_24
REMARK    6  A    between atoms: C_15  and  C_20
REMARK    7  A    between atoms: C_23  and  C_25
REMARK    8  A    between atoms: C_32  and  C_36
REMARK    9  A    between atoms: C_37  and  C_39
REMARK                            x       y       z     vdW  Elec       q    Type
REMARK                         _______ _______ _______ _____ _____    ______ ____
ROOT
ATOM      5  O   UNL     1      -0.336  10.577   7.262  0.00  0.00    -0.252 OA
ATOM      9  N   UNL     1      -2.287  10.464   6.004  0.00  0.00    -0.267 N 
ATOM     10  N   UNL     1      -5.852  10.042   4.948  0.00  0.00    -0.347 N 
ATOM     11  N   UNL     1      -5.313   7.884   4.741  0.00  0.00    -0.240 NA
ATOM     13  N   UNL     1      -1.898  12.286   7.458  0.00  0.00    -0.269 N 
ATOM     15  C   UNL     1      -1.806   9.234   5.282  0.00  0.00    +0.172 C 
ATOM     16  C   UNL     1      -2.858   8.085   5.326  0.00  0.00    +0.089 C 
ATOM     17  C   UNL     1      -3.605  11.042   5.609  0.00  0.00    +0.165 C 
ATOM     18  C   UNL     1      -4.219   8.617   5.103  0.00  0.00    +0.066 A 
ATOM     19  C   UNL     1      -4.524   9.948   5.239  0.00  0.00    +0.056 A 
ATOM     21  C   UNL     1      -1.421  11.075   6.951  0.00  0.00    +0.307 C 
ATOM     22  C   UNL     1      -6.283   8.773   4.655  0.00  0.00    +0.197 A 
ATOM     40  H   UNL     1      -6.415  10.882   4.946  0.00  0.00    +0.167 HD
ATOM     41  H   UNL     1      -2.520  12.832   6.870  0.00  0.00    +0.156 HD
ENDROOT
BRANCH  13  24
ATOM     24  C   UNL     1      -1.654  12.839   8.739  0.00  0.00    +0.035 A 
ATOM     26  C   UNL     1      -2.693  12.938   9.666  0.00  0.00    +0.024 A 
ATOM     27  C   UNL     1      -0.377  13.288   9.074  0.00  0.00    +0.024 A 
ATOM     30  C   UNL     1      -2.453  13.484  10.926  0.00  0.00    +0.017 A 
ATOM     31  C   UNL     1      -0.137  13.834  10.335  0.00  0.00    +0.017 A 
ATOM     32  C   UNL     1      -1.174  13.932  11.261  0.00  0.00    +0.059 A 
BRANCH  32  36
ATOM      8  O   UNL     1      -1.809  14.915  13.339  0.00  0.00    -0.245 OA
ATOM     36  C   UNL     1      -0.926  14.502  12.575  0.00  0.00    +0.339 C 
BRANCH  36   7
ATOM      7  O   UNL     1       0.410  14.525  12.870  0.00  0.00    -0.461 OA
BRANCH   7  37
ATOM     37  C   UNL     1       0.777  14.296  14.235  0.00  0.00    +0.229 C 
ATOM     39  C   UNL     1       1.243  12.864  14.386  0.00  0.00    +0.048 C 
ENDBRANCH   7  37
ENDBRANCH  36   7
ENDBRANCH  32  36
ENDBRANCH  13  24
BRANCH  15  20
ATOM      4  O   UNL     1       0.005  10.093   3.865  0.00  0.00    -0.336 OA
ATOM     12  N   UNL     1      -1.841   9.523   2.732  0.00  0.00    -0.190 NA
ATOM     14  N   UNL     1       0.278  10.357   2.516  0.00  0.00    -0.056 NA
ATOM     20  C   UNL     1      -1.261   9.604   3.904  0.00  0.00    +0.249 A 
ATOM     23  C   UNL     1      -0.858   9.996   1.912  0.00  0.00    +0.202 A 
BRANCH  23  25
ATOM     25  C   UNL     1      -1.041  10.093   0.494  0.00  0.00    +0.023 A 
ATOM     28  C   UNL     1      -2.165   9.523  -0.105  0.00  0.00    +0.015 A 
ATOM     29  C   UNL     1      -0.096  10.756  -0.288  0.00  0.00    +0.015 A 
ATOM     33  C   UNL     1      -2.343   9.616  -1.485  0.00  0.00    +0.046 A 
ATOM     34  C   UNL     1      -0.274  10.850  -1.668  0.00  0.00    +0.046 A 
ATOM     35  C   UNL     1      -1.397  10.280  -2.267  0.00  0.00    +0.130 A 
BRANCH  35   6
ATOM      6  O   UNL     1      -1.570  10.371  -3.614  0.00  0.00    -0.406 OA
BRANCH   6  38
ATOM      1  F   UNL     1      -2.253  11.618  -5.368  0.00  0.00    -0.133 F 
ATOM      2  F   UNL     1      -3.778  10.642  -4.145  0.00  0.00    -0.133 F 
ATOM      3  F   UNL     1      -2.651  12.371  -3.356  0.00  0.00    -0.133 F 
ATOM     38  C   UNL     1      -2.574  11.252  -4.107  0.00  0.00    +0.575 C 
ENDBRANCH   6  38
ENDBRANCH  35   6
ENDBRANCH  23  25
ENDBRANCH  15  20
TORSDOF 8
ENDMDL
