MODEL 1
REMARK VINA RESULT:      -6.9      0.000      0.000
REMARK  Name = 75537129
REMARK  3 active torsions:
REMARK  status: ('A' for Active; 'I' for Inactive)
REMARK    1  A    between atoms: N_4  and  C_11
REMARK    2  A    between atoms: N_5  and  C_10
REMARK    3  A    between atoms: C_24  and  C_25
REMARK                            x       y       z     vdW  Elec       q    Type
REMARK                         _______ _______ _______ _____ _____    ______ ____
ROOT
ATOM      1  O   UNL     1      10.914   8.769  23.086  0.00  0.00    -0.252 OA
ATOM      3  N   UNL     1      12.733   8.877  21.603  0.00  0.00    -0.278 N 
ATOM      4  N   UNL     1      15.269   8.331  20.516  0.00  0.00    -0.296 NA
ATOM      5  N   UNL     1      11.739  10.797  22.210  0.00  0.00    -0.281 N 
ATOM      7  C   UNL     1      13.389   9.893  20.807  0.00  0.00    +0.109 C 
ATOM      8  C   UNL     1      14.906   9.718  20.867  0.00  0.00    +0.108 C 
ATOM      9  C   UNL     1      12.868  11.204  21.392  0.00  0.00    +0.133 C 
ATOM     12  C   UNL     1      13.122   7.491  21.445  0.00  0.00    +0.125 C 
ATOM     13  C   UNL     1      14.648   7.371  21.451  0.00  0.00    +0.104 C 
ATOM     14  C   UNL     1      11.693   9.399  22.385  0.00  0.00    +0.305 C 
ENDROOT
BRANCH   4  11
ATOM      2  O   UNL     1      20.269   5.989  23.219  0.00  0.00    -0.276 OA
ATOM      6  N   UNL     1      19.186   7.571  21.908  0.00  0.00    -0.302 N 
ATOM     11  C   UNL     1      16.720   8.170  20.513  0.00  0.00    +0.060 C 
ATOM     17  C   UNL     1      17.091   6.735  20.911  0.00  0.00    +0.038 C 
ATOM     18  C   UNL     1      17.365   9.177  21.474  0.00  0.00    +0.038 C 
ATOM     22  C   UNL     1      18.607   6.571  21.008  0.00  0.00    +0.109 C 
ATOM     23  C   UNL     1      18.875   8.963  21.561  0.00  0.00    +0.109 C 
ATOM     24  C   UNL     1      19.994   7.165  22.969  0.00  0.00    +0.212 C 
ATOM     25  C   UNL     1      20.549   8.254  23.851  0.00  0.00    +0.109 C 
ENDBRANCH   4  11
BRANCH   5  10
ATOM     10  C   UNL     1      10.886  11.757  22.867  0.00  0.00    +0.078 C 
ATOM     15  C   UNL     1      11.330  11.978  24.314  0.00  0.00    +0.022 C 
ATOM     16  C   UNL     1      10.859  13.074  22.085  0.00  0.00    +0.022 C 
ATOM     19  C   UNL     1      10.474  13.031  25.012  0.00  0.00    +0.002 C 
ATOM     20  C   UNL     1      10.004  14.127  22.786  0.00  0.00    +0.002 C 
ATOM     21  C   UNL     1      10.448  14.342  24.230  0.00  0.00    +0.000 C 
ENDBRANCH   5  10
TORSDOF 2
ENDMDL
MODEL 2
REMARK VINA RESULT:      -6.7     27.823     29.905
REMARK  Name = 75537129
REMARK  3 active torsions:
REMARK  status: ('A' for Active; 'I' for Inactive)
REMARK    1  A    between atoms: N_4  and  C_11
REMARK    2  A    between atoms: N_5  and  C_10
REMARK    3  A    between atoms: C_24  and  C_25
REMARK                            x       y       z     vdW  Elec       q    Type
REMARK                         _______ _______ _______ _____ _____    ______ ____
ROOT
ATOM      1  O   UNL     1      -1.733 -10.451  16.044  0.00  0.00    -0.252 OA
ATOM      3  N   UNL     1      -2.878 -10.838  14.029  0.00  0.00    -0.278 N 
ATOM      4  N   UNL     1      -3.631 -10.529  11.337  0.00  0.00    -0.296 NA
ATOM      5  N   UNL     1      -4.064 -10.798  15.937  0.00  0.00    -0.281 N 
ATOM      7  C   UNL     1      -4.221 -11.202  13.630  0.00  0.00    +0.109 C 
ATOM      8  C   UNL     1      -4.647 -10.399  12.401  0.00  0.00    +0.108 C 
ATOM      9  C   UNL     1      -5.054 -10.948  14.885  0.00  0.00    +0.133 C 
ATOM     12  C   UNL     1      -1.830 -10.788  13.031  0.00  0.00    +0.125 C 
ATOM     13  C   UNL     1      -2.320 -10.026  11.796  0.00  0.00    +0.104 C 
ATOM     14  C   UNL     1      -2.759 -10.672  15.417  0.00  0.00    +0.305 C 
ENDROOT
BRANCH   4  11
ATOM      2  O   UNL     1      -8.257  -8.356   7.919  0.00  0.00    -0.276 OA
ATOM      6  N   UNL     1      -6.098  -9.171   8.186  0.00  0.00    -0.302 N 
ATOM     11  C   UNL     1      -4.058  -9.813  10.137  0.00  0.00    +0.060 C 
ATOM     17  C   UNL     1      -5.224  -8.874  10.472  0.00  0.00    +0.038 C 
ATOM     18  C   UNL     1      -4.469 -10.810   9.046  0.00  0.00    +0.038 C 
ATOM     22  C   UNL     1      -5.750  -8.187   9.213  0.00  0.00    +0.109 C 
ATOM     23  C   UNL     1      -5.010 -10.085   7.816  0.00  0.00    +0.109 C 
ATOM     24  C   UNL     1      -7.370  -9.158   7.616  0.00  0.00    +0.212 C 
ATOM     25  C   UNL     1      -7.651 -10.205   6.568  0.00  0.00    +0.109 C 
ENDBRANCH   4  11
BRANCH   5  10
ATOM     10  C   UNL     1      -4.436 -10.647  17.322  0.00  0.00    +0.078 C 
ATOM     15  C   UNL     1      -5.924 -10.310  17.450  0.00  0.00    +0.022 C 
ATOM     16  C   UNL     1      -4.080 -11.908  18.114  0.00  0.00    +0.022 C 
ATOM     19  C   UNL     1      -6.352 -10.200  18.911  0.00  0.00    +0.002 C 
ATOM     20  C   UNL     1      -4.512 -11.797  19.574  0.00  0.00    +0.002 C 
ATOM     21  C   UNL     1      -5.994 -11.458  19.698  0.00  0.00    +0.000 C 
ENDBRANCH   5  10
TORSDOF 2
ENDMDL
MODEL 3
REMARK VINA RESULT:      -6.6      3.638     10.466
REMARK  Name = 75537129
REMARK  3 active torsions:
REMARK  status: ('A' for Active; 'I' for Inactive)
REMARK    1  A    between atoms: N_4  and  C_11
REMARK    2  A    between atoms: N_5  and  C_10
REMARK    3  A    between atoms: C_24  and  C_25
REMARK                            x       y       z     vdW  Elec       q    Type
REMARK                         _______ _______ _______ _____ _____    ______ ____
ROOT
ATOM      1  O   UNL     1      23.019   7.239  22.323  0.00  0.00    -0.252 OA
ATOM      3  N   UNL     1      20.930   7.226  21.248  0.00  0.00    -0.278 N 
ATOM      4  N   UNL     1      18.195   7.722  20.821  0.00  0.00    -0.296 NA
ATOM      5  N   UNL     1      22.128   5.325  21.271  0.00  0.00    -0.281 N 
ATOM      7  C   UNL     1      20.170   6.307  20.427  0.00  0.00    +0.109 C 
ATOM      8  C   UNL     1      18.695   6.333  20.827  0.00  0.00    +0.108 C 
ATOM      9  C   UNL     1      20.870   4.966  20.639  0.00  0.00    +0.133 C 
ATOM     12  C   UNL     1      20.447   8.578  21.433  0.00  0.00    +0.125 C 
ATOM     13  C   UNL     1      18.954   8.559  21.772  0.00  0.00    +0.104 C 
ATOM     14  C   UNL     1      22.139   6.671  21.691  0.00  0.00    +0.305 C 
ENDROOT
BRANCH   4  11
ATOM      2  O   UNL     1      12.398   6.890  18.949  0.00  0.00    -0.276 OA
ATOM      6  N   UNL     1      14.005   7.887  20.299  0.00  0.00    -0.302 N 
ATOM     11  C   UNL     1      16.771   7.752  21.143  0.00  0.00    +0.060 C 
ATOM     17  C   UNL     1      16.063   6.547  20.509  0.00  0.00    +0.038 C 
ATOM     18  C   UNL     1      16.145   9.062  20.649  0.00  0.00    +0.038 C 
ATOM     22  C   UNL     1      14.556   6.610  20.753  0.00  0.00    +0.109 C 
ATOM     23  C   UNL     1      14.636   9.074  20.889  0.00  0.00    +0.109 C 
ATOM     24  C   UNL     1      12.935   7.903  19.404  0.00  0.00    +0.212 C 
ATOM     25  C   UNL     1      12.427   9.259  18.983  0.00  0.00    +0.109 C 
ENDBRANCH   4  11
BRANCH   5  10
ATOM     10  C   UNL     1      23.150   4.347  21.550  0.00  0.00    +0.078 C 
ATOM     15  C   UNL     1      22.559   3.136  22.276  0.00  0.00    +0.022 C 
ATOM     16  C   UNL     1      23.860   3.930  20.259  0.00  0.00    +0.022 C 
ATOM     19  C   UNL     1      23.614   2.063  22.532  0.00  0.00    +0.002 C 
ATOM     20  C   UNL     1      24.913   2.855  20.517  0.00  0.00    +0.002 C 
ATOM     21  C   UNL     1      24.321   1.652  21.244  0.00  0.00    +0.000 C 
ENDBRANCH   5  10
TORSDOF 2
ENDMDL
MODEL 4
REMARK VINA RESULT:      -6.6      2.601      4.179
REMARK  Name = 75537129
REMARK  3 active torsions:
REMARK  status: ('A' for Active; 'I' for Inactive)
REMARK    1  A    between atoms: N_4  and  C_11
REMARK    2  A    between atoms: N_5  and  C_10
REMARK    3  A    between atoms: C_24  and  C_25
REMARK                            x       y       z     vdW  Elec       q    Type
REMARK                         _______ _______ _______ _____ _____    ______ ____
ROOT
ATOM      1  O   UNL     1      13.430   6.701  19.087  0.00  0.00    -0.252 OA
ATOM      3  N   UNL     1      15.656   7.279  19.571  0.00  0.00    -0.278 N 
ATOM      4  N   UNL     1      18.363   6.950  20.258  0.00  0.00    -0.296 NA
ATOM      5  N   UNL     1      14.013   8.515  20.478  0.00  0.00    -0.281 N 
ATOM      7  C   UNL     1      16.344   8.358  20.248  0.00  0.00    +0.109 C 
ATOM      8  C   UNL     1      17.496   7.809  21.090  0.00  0.00    +0.108 C 
ATOM      9  C   UNL     1      15.239   9.051  21.044  0.00  0.00    +0.133 C 
ATOM     12  C   UNL     1      16.427   6.290  18.847  0.00  0.00    +0.125 C 
ATOM     13  C   UNL     1      17.602   5.812  19.704  0.00  0.00    +0.104 C 
ATOM     14  C   UNL     1      14.261   7.410  19.638  0.00  0.00    +0.305 C 
ENDROOT
BRANCH   4  11
ATOM      2  O   UNL     1      24.465   6.537  20.891  0.00  0.00    -0.276 OA
ATOM      6  N   UNL     1      22.301   5.761  21.226  0.00  0.00    -0.302 N 
ATOM     11  C   UNL     1      19.500   6.468  21.039  0.00  0.00    +0.060 C 
ATOM     17  C   UNL     1      20.599   7.538  21.083  0.00  0.00    +0.038 C 
ATOM     18  C   UNL     1      20.042   5.167  20.433  0.00  0.00    +0.038 C 
ATOM     22  C   UNL     1      21.836   7.019  21.813  0.00  0.00    +0.109 C 
ATOM     23  C   UNL     1      21.292   4.696  21.175  0.00  0.00    +0.109 C 
ATOM     24  C   UNL     1      23.625   5.638  20.805  0.00  0.00    +0.212 C 
ATOM     25  C   UNL     1      24.024   4.312  20.209  0.00  0.00    +0.109 C 
ENDBRANCH   4  11
BRANCH   5  10
ATOM     10  C   UNL     1      12.713   8.993  20.879  0.00  0.00    +0.078 C 
ATOM     15  C   UNL     1      12.150   8.142  22.020  0.00  0.00    +0.022 C 
ATOM     16  C   UNL     1      12.783  10.472  21.270  0.00  0.00    +0.022 C 
ATOM     19  C   UNL     1      10.798   8.665  22.497  0.00  0.00    +0.002 C 
ATOM     20  C   UNL     1      11.430  10.992  21.749  0.00  0.00    +0.002 C 
ATOM     21  C   UNL     1      10.870  10.140  22.884  0.00  0.00    +0.000 C 
ENDBRANCH   5  10
TORSDOF 2
ENDMDL
MODEL 5
REMARK VINA RESULT:      -6.5      4.322      5.542
REMARK  Name = 75537129
REMARK  3 active torsions:
REMARK  status: ('A' for Active; 'I' for Inactive)
REMARK    1  A    between atoms: N_4  and  C_11
REMARK    2  A    between atoms: N_5  and  C_10
REMARK    3  A    between atoms: C_24  and  C_25
REMARK                            x       y       z     vdW  Elec       q    Type
REMARK                         _______ _______ _______ _____ _____    ______ ____
ROOT
ATOM      1  O   UNL     1      14.685  10.046  19.739  0.00  0.00    -0.252 OA
ATOM      3  N   UNL     1      16.109   8.367  20.561  0.00  0.00    -0.278 N 
ATOM      4  N   UNL     1      18.466   7.150  21.498  0.00  0.00    -0.296 NA
ATOM      5  N   UNL     1      14.720   7.852  18.874  0.00  0.00    -0.281 N 
ATOM      7  C   UNL     1      16.293   6.945  20.361  0.00  0.00    +0.109 C 
ATOM      8  C   UNL     1      17.781   6.603  20.309  0.00  0.00    +0.108 C 
ATOM      9  C   UNL     1      15.522   6.658  19.074  0.00  0.00    +0.133 C 
ATOM     12  C   UNL     1      16.852   9.037  21.609  0.00  0.00    +0.125 C 
ATOM     13  C   UNL     1      18.324   8.620  21.557  0.00  0.00    +0.104 C 
ATOM     14  C   UNL     1      15.114   8.900  19.730  0.00  0.00    +0.305 C 
ENDROOT
BRANCH   4  11
ATOM      2  O   UNL     1      22.687   2.683  21.357  0.00  0.00    -0.276 OA
ATOM      6  N   UNL     1      21.963   4.816  21.923  0.00  0.00    -0.302 N 
ATOM     11  C   UNL     1      19.878   6.778  21.488  0.00  0.00    +0.060 C 
ATOM     17  C   UNL     1      20.109   5.618  20.509  0.00  0.00    +0.038 C 
ATOM     18  C   UNL     1      20.330   6.385  22.900  0.00  0.00    +0.038 C 
ATOM     22  C   UNL     1      21.562   5.148  20.554  0.00  0.00    +0.109 C 
ATOM     23  C   UNL     1      21.778   5.898  22.897  0.00  0.00    +0.109 C 
ATOM     24  C   UNL     1      22.509   3.564  22.201  0.00  0.00    +0.212 C 
ATOM     25  C   UNL     1      22.894   3.298  23.635  0.00  0.00    +0.109 C 
ENDBRANCH   4  11
BRANCH   5  10
ATOM     10  C   UNL     1      13.751   7.952  17.810  0.00  0.00    +0.078 C 
ATOM     15  C   UNL     1      12.353   8.223  18.372  0.00  0.00    +0.022 C 
ATOM     16  C   UNL     1      14.166   9.031  16.806  0.00  0.00    +0.022 C 
ATOM     19  C   UNL     1      11.321   8.388  17.260  0.00  0.00    +0.002 C 
ATOM     20  C   UNL     1      13.131   9.196  15.696  0.00  0.00    +0.002 C 
ATOM     21  C   UNL     1      11.739   9.462  16.259  0.00  0.00    +0.000 C 
ENDBRANCH   5  10
TORSDOF 2
ENDMDL
MODEL 6
REMARK VINA RESULT:      -6.5     29.168     31.910
REMARK  Name = 75537129
REMARK  3 active torsions:
REMARK  status: ('A' for Active; 'I' for Inactive)
REMARK    1  A    between atoms: N_4  and  C_11
REMARK    2  A    between atoms: N_5  and  C_10
REMARK    3  A    between atoms: C_24  and  C_25
REMARK                            x       y       z     vdW  Elec       q    Type
REMARK                         _______ _______ _______ _____ _____    ______ ____
ROOT
ATOM      1  O   UNL     1      -9.328 -11.529  19.039  0.00  0.00    -0.252 OA
ATOM      3  N   UNL     1      -9.966  -9.549  17.948  0.00  0.00    -0.278 N 
ATOM      4  N   UNL     1     -11.546  -7.771  16.445  0.00  0.00    -0.296 NA
ATOM      5  N   UNL     1      -7.858 -10.278  17.683  0.00  0.00    -0.281 N 
ATOM      7  C   UNL     1      -9.315  -8.508  17.180  0.00  0.00    +0.109 C 
ATOM      8  C   UNL     1     -10.182  -8.105  15.987  0.00  0.00    +0.108 C 
ATOM      9  C   UNL     1      -7.963  -9.118  16.815  0.00  0.00    +0.133 C 
ATOM     12  C   UNL     1     -11.355  -9.389  18.323  0.00  0.00    +0.125 C 
ATOM     13  C   UNL     1     -12.175  -8.928  17.114  0.00  0.00    +0.104 C 
ATOM     14  C   UNL     1      -9.081 -10.571  18.319  0.00  0.00    +0.305 C 
ENDROOT
BRANCH   4  11
ATOM      2  O   UNL     1     -11.796  -5.674  10.671  0.00  0.00    -0.276 OA
ATOM      6  N   UNL     1     -12.640  -5.886  12.825  0.00  0.00    -0.302 N 
ATOM     11  C   UNL     1     -12.366  -7.328  15.321  0.00  0.00    +0.060 C 
ATOM     17  C   UNL     1     -11.797  -7.879  14.006  0.00  0.00    +0.038 C 
ATOM     18  C   UNL     1     -12.420  -5.795  15.280  0.00  0.00    +0.038 C 
ATOM     22  C   UNL     1     -12.582  -7.349  12.808  0.00  0.00    +0.109 C 
ATOM     23  C   UNL     1     -13.192  -5.306  14.056  0.00  0.00    +0.109 C 
ATOM     24  C   UNL     1     -12.224  -5.162  11.709  0.00  0.00    +0.212 C 
ATOM     25  C   UNL     1     -12.311  -3.660  11.806  0.00  0.00    +0.109 C 
ENDBRANCH   4  11
BRANCH   5  10
ATOM     10  C   UNL     1      -6.666 -11.089  17.735  0.00  0.00    +0.078 C 
ATOM     15  C   UNL     1      -5.819 -10.889  16.476  0.00  0.00    +0.022 C 
ATOM     16  C   UNL     1      -5.863 -10.781  19.001  0.00  0.00    +0.022 C 
ATOM     19  C   UNL     1      -4.525 -11.696  16.535  0.00  0.00    +0.002 C 
ATOM     20  C   UNL     1      -4.568 -11.587  19.057  0.00  0.00    +0.002 C 
ATOM     21  C   UNL     1      -3.727 -11.389  17.799  0.00  0.00    +0.000 C 
ENDBRANCH   5  10
TORSDOF 2
ENDMDL
MODEL 7
REMARK VINA RESULT:      -6.4     28.164     31.406
REMARK  Name = 75537129
REMARK  3 active torsions:
REMARK  status: ('A' for Active; 'I' for Inactive)
REMARK    1  A    between atoms: N_4  and  C_11
REMARK    2  A    between atoms: N_5  and  C_10
REMARK    3  A    between atoms: C_24  and  C_25
REMARK                            x       y       z     vdW  Elec       q    Type
REMARK                         _______ _______ _______ _____ _____    ______ ____
ROOT
ATOM      1  O   UNL     1      -6.576 -13.134  15.913  0.00  0.00    -0.252 OA
ATOM      3  N   UNL     1      -7.625 -11.329  16.991  0.00  0.00    -0.278 N 
ATOM      4  N   UNL     1      -9.649  -9.503  17.685  0.00  0.00    -0.296 NA
ATOM      5  N   UNL     1      -5.538 -11.037  16.213  0.00  0.00    -0.281 N 
ATOM      7  C   UNL     1      -7.251 -10.005  17.442  0.00  0.00    +0.109 C 
ATOM      8  C   UNL     1      -8.369  -9.006  17.143  0.00  0.00    +0.108 C 
ATOM      9  C   UNL     1      -5.934  -9.733  16.718  0.00  0.00    +0.133 C 
ATOM     12  C   UNL     1      -8.927 -11.857  17.343  0.00  0.00    +0.125 C 
ATOM     13  C   UNL     1     -10.007 -10.803  17.082  0.00  0.00    +0.104 C 
ATOM     14  C   UNL     1      -6.579 -11.982  16.324  0.00  0.00    +0.305 C 
ENDROOT
BRANCH   4  11
ATOM      2  O   UNL     1     -13.856  -7.165  13.860  0.00  0.00    -0.276 OA
ATOM      6  N   UNL     1     -12.375  -7.003  15.642  0.00  0.00    -0.302 N 
ATOM     11  C   UNL     1     -10.711  -8.528  17.456  0.00  0.00    +0.060 C 
ATOM     17  C   UNL     1     -11.865  -9.179  16.682  0.00  0.00    +0.038 C 
ATOM     18  C   UNL     1     -10.162  -7.321  16.684  0.00  0.00    +0.038 C 
ATOM     22  C   UNL     1     -12.945  -8.152  16.347  0.00  0.00    +0.109 C 
ATOM     23  C   UNL     1     -11.276  -6.331  16.348  0.00  0.00    +0.109 C 
ATOM     24  C   UNL     1     -12.908  -6.605  14.416  0.00  0.00    +0.212 C 
ATOM     25  C   UNL     1     -12.263  -5.415  13.752  0.00  0.00    +0.109 C 
ENDBRANCH   4  11
BRANCH   5  10
ATOM     10  C   UNL     1      -4.276 -11.248  15.549  0.00  0.00    +0.078 C 
ATOM     15  C   UNL     1      -4.292 -10.637  14.146  0.00  0.00    +0.022 C 
ATOM     16  C   UNL     1      -3.126 -10.684  16.389  0.00  0.00    +0.022 C 
ATOM     19  C   UNL     1      -2.946 -10.801  13.445  0.00  0.00    +0.002 C 
ATOM     20  C   UNL     1      -1.782 -10.846  15.684  0.00  0.00    +0.002 C 
ATOM     21  C   UNL     1      -1.803 -10.239  14.285  0.00  0.00    +0.000 C 
ENDBRANCH   5  10
TORSDOF 2
ENDMDL
MODEL 8
REMARK VINA RESULT:      -6.0      3.999      6.011
REMARK  Name = 75537129
REMARK  3 active torsions:
REMARK  status: ('A' for Active; 'I' for Inactive)
REMARK    1  A    between atoms: N_4  and  C_11
REMARK    2  A    between atoms: N_5  and  C_10
REMARK    3  A    between atoms: C_24  and  C_25
REMARK                            x       y       z     vdW  Elec       q    Type
REMARK                         _______ _______ _______ _____ _____    ______ ____
ROOT
ATOM      1  O   UNL     1      16.361   9.997  21.009  0.00  0.00    -0.252 OA
ATOM      3  N   UNL     1      17.495   7.943  21.125  0.00  0.00    -0.278 N 
ATOM      4  N   UNL     1      19.642   6.125  21.113  0.00  0.00    -0.296 NA
ATOM      5  N   UNL     1      15.610   8.051  19.908  0.00  0.00    -0.281 N 
ATOM      7  C   UNL     1      17.258   6.579  20.700  0.00  0.00    +0.109 C 
ATOM      8  C   UNL     1      18.542   5.965  20.141  0.00  0.00    +0.108 C 
ATOM      9  C   UNL     1      16.115   6.705  19.695  0.00  0.00    +0.133 C 
ATOM     12  C   UNL     1      18.640   8.236  21.962  0.00  0.00    +0.125 C 
ATOM     13  C   UNL     1      19.889   7.553  21.398  0.00  0.00    +0.104 C 
ATOM     14  C   UNL     1      16.473   8.813  20.722  0.00  0.00    +0.305 C 
ENDROOT
BRANCH   4  11
ATOM      2  O   UNL     1      24.669   2.797  22.319  0.00  0.00    -0.276 OA
ATOM      6  N   UNL     1      23.487   4.373  21.088  0.00  0.00    -0.302 N 
ATOM     11  C   UNL     1      20.858   5.489  20.614  0.00  0.00    +0.060 C 
ATOM     17  C   UNL     1      21.043   4.116  21.274  0.00  0.00    +0.038 C 
ATOM     18  C   UNL     1      22.074   6.384  20.891  0.00  0.00    +0.038 C 
ATOM     22  C   UNL     1      22.359   3.474  20.838  0.00  0.00    +0.109 C 
ATOM     23  C   UNL     1      23.369   5.697  20.464  0.00  0.00    +0.109 C 
ATOM     24  C   UNL     1      24.577   3.928  21.835  0.00  0.00    +0.212 C 
ATOM     25  C   UNL     1      25.697   4.913  22.049  0.00  0.00    +0.109 C 
ENDBRANCH   4  11
BRANCH   5  10
ATOM     10  C   UNL     1      14.441   8.546  19.224  0.00  0.00    +0.078 C 
ATOM     15  C   UNL     1      14.352   7.964  17.811  0.00  0.00    +0.022 C 
ATOM     16  C   UNL     1      13.177   8.241  20.033  0.00  0.00    +0.022 C 
ATOM     19  C   UNL     1      13.092   8.432  17.088  0.00  0.00    +0.002 C 
ATOM     20  C   UNL     1      11.918   8.708  19.306  0.00  0.00    +0.002 C 
ATOM     21  C   UNL     1      11.834   8.129  17.897  0.00  0.00    +0.000 C 
ENDBRANCH   5  10
TORSDOF 2
ENDMDL
MODEL 9
REMARK VINA RESULT:      -5.9     28.867     31.112
REMARK  Name = 75537129
REMARK  3 active torsions:
REMARK  status: ('A' for Active; 'I' for Inactive)
REMARK    1  A    between atoms: N_4  and  C_11
REMARK    2  A    between atoms: N_5  and  C_10
REMARK    3  A    between atoms: C_24  and  C_25
REMARK                            x       y       z     vdW  Elec       q    Type
REMARK                         _______ _______ _______ _____ _____    ______ ____
ROOT
ATOM      1  O   UNL     1     -12.076  -8.958  17.520  0.00  0.00    -0.252 OA
ATOM      3  N   UNL     1      -9.862  -9.529  18.061  0.00  0.00    -0.278 N 
ATOM      4  N   UNL     1      -7.173 -10.262  17.682  0.00  0.00    -0.296 NA
ATOM      5  N   UNL     1     -11.523 -10.465  19.248  0.00  0.00    -0.281 N 
ATOM      7  C   UNL     1      -9.188 -10.283  19.096  0.00  0.00    +0.109 C 
ATOM      8  C   UNL     1      -8.059 -11.120  18.495  0.00  0.00    +0.108 C 
ATOM      9  C   UNL     1     -10.310 -11.090  19.746  0.00  0.00    +0.133 C 
ATOM     12  C   UNL     1      -9.076  -8.768  17.112  0.00  0.00    +0.125 C 
ATOM     13  C   UNL     1      -7.923  -9.624  16.581  0.00  0.00    +0.104 C 
ATOM     14  C   UNL     1     -11.257  -9.569  18.193  0.00  0.00    +0.305 C 
ENDROOT
BRANCH   4  11
ATOM      2  O   UNL     1      -1.216 -10.498  16.181  0.00  0.00    -0.276 OA
ATOM      6  N   UNL     1      -3.428 -11.166  15.945  0.00  0.00    -0.302 N 
ATOM     11  C   UNL     1      -6.057 -11.041  17.152  0.00  0.00    +0.060 C 
ATOM     17  C   UNL     1      -4.785 -10.756  17.962  0.00  0.00    +0.038 C 
ATOM     18  C   UNL     1      -5.835 -10.705  15.671  0.00  0.00    +0.038 C 
ATOM     22  C   UNL     1      -3.584 -11.487  17.365  0.00  0.00    +0.109 C 
ATOM     23  C   UNL     1      -4.612 -11.435  15.120  0.00  0.00    +0.109 C 
ATOM     24  C   UNL     1      -2.209 -10.683  15.473  0.00  0.00    +0.212 C 
ATOM     25  C   UNL     1      -2.130 -10.373  13.999  0.00  0.00    +0.109 C 
ENDBRANCH   4  11
BRANCH   5  10
ATOM     10  C   UNL     1     -12.832 -10.861  19.708  0.00  0.00    +0.078 C 
ATOM     15  C   UNL     1     -12.757 -12.176  20.489  0.00  0.00    +0.022 C 
ATOM     16  C   UNL     1     -13.465  -9.749  20.548  0.00  0.00    +0.022 C 
ATOM     19  C   UNL     1     -14.124 -12.586  21.031  0.00  0.00    +0.002 C 
ATOM     20  C   UNL     1     -14.830 -10.162  21.092  0.00  0.00    +0.002 C 
ATOM     21  C   UNL     1     -14.753 -11.474  21.867  0.00  0.00    +0.000 C 
ENDBRANCH   5  10
TORSDOF 2
ENDMDL
MODEL 10
REMARK VINA RESULT:      -5.8     20.563     22.205
REMARK  Name = 75537129
REMARK  3 active torsions:
REMARK  status: ('A' for Active; 'I' for Inactive)
REMARK    1  A    between atoms: N_4  and  C_11
REMARK    2  A    between atoms: N_5  and  C_10
REMARK    3  A    between atoms: C_24  and  C_25
REMARK                            x       y       z     vdW  Elec       q    Type
REMARK                         _______ _______ _______ _____ _____    ______ ____
ROOT
ATOM      1  O   UNL     1      12.893   8.271   3.753  0.00  0.00    -0.252 OA
ATOM      3  N   UNL     1      12.978   6.364   2.383  0.00  0.00    -0.278 N 
ATOM      4  N   UNL     1      13.158   4.823   0.037  0.00  0.00    -0.296 NA
ATOM      5  N   UNL     1      11.448   6.426   4.027  0.00  0.00    -0.281 N 
ATOM      7  C   UNL     1      12.358   5.055   2.353  0.00  0.00    +0.109 C 
ATOM      8  C   UNL     1      11.984   4.677   0.920  0.00  0.00    +0.108 C 
ATOM      9  C   UNL     1      11.177   5.191   3.312  0.00  0.00    +0.133 C 
ATOM     12  C   UNL     1      14.045   6.664   1.452  0.00  0.00    +0.125 C 
ATOM     13  C   UNL     1      13.651   6.215   0.042  0.00  0.00    +0.104 C 
ATOM     14  C   UNL     1      12.494   7.160   3.431  0.00  0.00    +0.305 C 
ENDROOT
BRANCH   4  11
ATOM      2  O   UNL     1       8.824   3.819  -4.206  0.00  0.00    -0.276 OA
ATOM      6  N   UNL     1      10.904   3.423  -3.252  0.00  0.00    -0.302 N 
ATOM     11  C   UNL     1      12.826   4.407  -1.323  0.00  0.00    +0.060 C 
ATOM     17  C   UNL     1      11.726   5.310  -1.895  0.00  0.00    +0.038 C 
ATOM     18  C   UNL     1      12.374   2.941  -1.331  0.00  0.00    +0.038 C 
ATOM     22  C   UNL     1      11.295   4.833  -3.281  0.00  0.00    +0.109 C 
ATOM     23  C   UNL     1      11.929   2.511  -2.727  0.00  0.00    +0.109 C 
ATOM     24  C   UNL     1       9.655   3.038  -3.737  0.00  0.00    +0.212 C 
ATOM     25  C   UNL     1       9.327   1.568  -3.669  0.00  0.00    +0.109 C 
ENDBRANCH   4  11
BRANCH   5  10
ATOM     10  C   UNL     1      10.618   6.876   5.118  0.00  0.00    +0.078 C 
ATOM     15  C   UNL     1       9.221   6.258   5.027  0.00  0.00    +0.022 C 
ATOM     16  C   UNL     1      11.280   6.561   6.461  0.00  0.00    +0.022 C 
ATOM     19  C   UNL     1       8.343   6.678   6.202  0.00  0.00    +0.002 C 
ATOM     20  C   UNL     1      10.399   6.979   7.635  0.00  0.00    +0.002 C 
ATOM     21  C   UNL     1       9.006   6.365   7.541  0.00  0.00    +0.000 C 
ENDBRANCH   5  10
TORSDOF 2
ENDMDL
