MODEL 1
REMARK VINA RESULT:      -7.5      0.000      0.000
REMARK  Name = 11866326
REMARK  11 active torsions:
REMARK  status: ('A' for Active; 'I' for Inactive)
REMARK    1  A    between atoms: O_1  and  C_11
REMARK    2  A    between atoms: O_2  and  C_12
REMARK    3  A    between atoms: O_6  and  C_30
REMARK    4  A    between atoms: N_7  and  C_13
REMARK    5  A    between atoms: N_8  and  C_18
REMARK    6  A    between atoms: N_9  and  C_23
REMARK    7  A    between atoms: C_15  and  C_17
REMARK    8  A    between atoms: C_18  and  C_20
REMARK    9  A    between atoms: C_18  and  C_22
REMARK   10  A    between atoms: C_20  and  C_21
REMARK   11  A    between atoms: C_33  and  C_34
REMARK                            x       y       z     vdW  Elec       q    Type
REMARK                         _______ _______ _______ _____ _____    ______ ____
ROOT
ATOM     11  C   UNL     1      -5.224  -9.884   8.389  0.00  0.00    +0.167 C 
ATOM     12  C   UNL     1      -4.480 -11.069   9.017  0.00  0.00    +0.149 C 
ATOM     13  C   UNL     1      -6.506  -9.542   9.172  0.00  0.00    +0.129 C 
ATOM     14  C   UNL     1      -4.150 -10.825  10.499  0.00  0.00    +0.074 C 
ATOM     15  C   UNL     1      -5.244 -10.115  11.245  0.00  0.00    +0.015 C 
ATOM     16  C   UNL     1      -6.310  -9.544  10.664  0.00  0.00    +0.006 C 
ENDROOT
BRANCH  13   7
ATOM      4  O   UNL     1      -9.150  -8.569   9.691  0.00  0.00    -0.252 OA
ATOM      7  N   UNL     1      -7.049  -8.266   8.775  0.00  0.00    -0.290 N 
ATOM      9  N   UNL     1      -8.600  -6.585   8.561  0.00  0.00    -0.269 N 
ATOM     19  C   UNL     1      -8.356  -7.864   9.069  0.00  0.00    +0.304 C 
ATOM     35  H   UNL     1      -6.427  -7.595   8.332  0.00  0.00    +0.151 HD
ATOM     39  H   UNL     1      -7.832  -6.138   8.067  0.00  0.00    +0.156 HD
BRANCH   9  23
ATOM     23  C   UNL     1      -9.792  -5.830   8.646  0.00  0.00    +0.035 A 
ATOM     28  C   UNL     1      -9.734  -4.469   8.947  0.00  0.00    +0.023 A 
ATOM     29  C   UNL     1     -11.025  -6.444   8.431  0.00  0.00    +0.023 A 
ATOM     31  C   UNL     1     -10.910  -3.723   9.032  0.00  0.00    +0.005 A 
ATOM     32  C   UNL     1     -12.200  -5.698   8.516  0.00  0.00    +0.005 A 
ATOM     33  C   UNL     1     -12.144  -4.338   8.816  0.00  0.00    -0.050 A 
ATOM     34  C   UNL     1     -13.400  -3.540   8.906  0.00  0.00    +0.044 C 
ENDBRANCH   9  23
ENDBRANCH  13   7
BRANCH  15  17
ATOM      3  O   UNL     1      -6.068  -9.571  13.377  0.00  0.00    -0.271 OA
ATOM      8  N   UNL     1      -3.984 -10.598  13.202  0.00  0.00    -0.300 N 
ATOM     17  C   UNL     1      -5.159 -10.059  12.708  0.00  0.00    +0.241 C 
ATOM     38  H   UNL     1      -3.263 -10.894  12.549  0.00  0.00    +0.150 HD
BRANCH   8  18
ATOM     18  C   UNL     1      -3.671 -10.654  14.611  0.00  0.00    +0.163 C 
BRANCH  18  22
ATOM      5  O   UNL     1      -1.598 -11.922  14.616  0.00  0.00    -0.274 OA
ATOM     10  N   UNL     1      -1.496  -9.648  14.926  0.00  0.00    -0.328 N 
ATOM     22  C   UNL     1      -2.165 -10.837  14.729  0.00  0.00    +0.231 C 
ATOM     40  H   UNL     1      -0.484  -9.627  15.006  0.00  0.00    +0.145 HD
ATOM     41  H   UNL     1      -1.978  -8.758  15.012  0.00  0.00    +0.145 HD
ENDBRANCH  18  22
BRANCH  18  20
ATOM     20  C   UNL     1      -4.405 -11.796  15.323  0.00  0.00    +0.067 C 
BRANCH  20  21
ATOM     21  C   UNL     1      -5.007 -11.370  16.641  0.00  0.00    -0.045 A 
ATOM     24  C   UNL     1      -6.138 -10.555  16.659  0.00  0.00    +0.007 A 
ATOM     25  C   UNL     1      -4.431 -11.792  17.840  0.00  0.00    +0.007 A 
ATOM     26  C   UNL     1      -6.695 -10.162  17.876  0.00  0.00    +0.045 A 
ATOM     27  C   UNL     1      -4.988 -11.399  19.057  0.00  0.00    +0.045 A 
ATOM     30  C   UNL     1      -6.119 -10.584  19.075  0.00  0.00    +0.117 A 
BRANCH  30   6
ATOM      6  O   UNL     1      -6.662 -10.199  20.263  0.00  0.00    -0.507 OA
ATOM     42  H   UNL     1      -7.440 -10.753  20.447  0.00  0.00    +0.292 HD
ENDBRANCH  30   6
ENDBRANCH  20  21
ENDBRANCH  18  20
ENDBRANCH   8  18
ENDBRANCH  15  17
BRANCH  11   1
ATOM      1  O   UNL     1      -4.354  -8.749   8.376  0.00  0.00    -0.387 OA
ATOM     36  H   UNL     1      -4.883  -7.978   8.110  0.00  0.00    +0.210 HD
ENDBRANCH  11   1
BRANCH  12   2
ATOM      2  O   UNL     1      -5.249 -12.261   8.877  0.00  0.00    -0.389 OA
ATOM     37  H   UNL     1      -5.943 -12.087   8.218  0.00  0.00    +0.210 HD
ENDBRANCH  12   2
TORSDOF 10
ENDMDL
MODEL 2
REMARK VINA RESULT:      -7.5     27.826     32.192
REMARK  Name = 11866326
REMARK  11 active torsions:
REMARK  status: ('A' for Active; 'I' for Inactive)
REMARK    1  A    between atoms: O_1  and  C_11
REMARK    2  A    between atoms: O_2  and  C_12
REMARK    3  A    between atoms: O_6  and  C_30
REMARK    4  A    between atoms: N_7  and  C_13
REMARK    5  A    between atoms: N_8  and  C_18
REMARK    6  A    between atoms: N_9  and  C_23
REMARK    7  A    between atoms: C_15  and  C_17
REMARK    8  A    between atoms: C_18  and  C_20
REMARK    9  A    between atoms: C_18  and  C_22
REMARK   10  A    between atoms: C_20  and  C_21
REMARK   11  A    between atoms: C_33  and  C_34
REMARK                            x       y       z     vdW  Elec       q    Type
REMARK                         _______ _______ _______ _____ _____    ______ ____
ROOT
ATOM     11  C   UNL     1      20.886   7.718  21.801  0.00  0.00    +0.167 C 
ATOM     12  C   UNL     1      19.908   8.870  22.063  0.00  0.00    +0.149 C 
ATOM     13  C   UNL     1      20.221   6.348  22.038  0.00  0.00    +0.129 C 
ATOM     14  C   UNL     1      18.628   8.746  21.219  0.00  0.00    +0.074 C 
ATOM     15  C   UNL     1      18.138   7.332  21.083  0.00  0.00    +0.015 C 
ATOM     16  C   UNL     1      18.837   6.249  21.455  0.00  0.00    +0.006 C 
ENDROOT
BRANCH  13   7
ATOM      4  O   UNL     1      21.935   4.612  23.539  0.00  0.00    -0.252 OA
ATOM      7  N   UNL     1      21.024   5.269  21.518  0.00  0.00    -0.290 N 
ATOM      9  N   UNL     1      22.495   3.504  21.546  0.00  0.00    -0.269 N 
ATOM     19  C   UNL     1      21.838   4.463  22.322  0.00  0.00    +0.304 C 
ATOM     35  H   UNL     1      20.931   5.031  20.535  0.00  0.00    +0.151 HD
ATOM     39  H   UNL     1      22.304   3.519  20.547  0.00  0.00    +0.156 HD
BRANCH   9  23
ATOM     23  C   UNL     1      23.401   2.509  21.979  0.00  0.00    +0.035 A 
ATOM     28  C   UNL     1      23.301   1.989  23.269  0.00  0.00    +0.023 A 
ATOM     29  C   UNL     1      24.396   2.047  21.116  0.00  0.00    +0.023 A 
ATOM     31  C   UNL     1      24.195   1.008  23.697  0.00  0.00    +0.005 A 
ATOM     32  C   UNL     1      25.289   1.067  21.545  0.00  0.00    +0.005 A 
ATOM     33  C   UNL     1      25.190   0.546  22.835  0.00  0.00    -0.050 A 
ATOM     34  C   UNL     1      26.144  -0.503  23.292  0.00  0.00    +0.044 C 
ENDBRANCH   9  23
ENDBRANCH  13   7
BRANCH  15  17
ATOM      3  O   UNL     1      16.452   6.008  20.122  0.00  0.00    -0.271 OA
ATOM      8  N   UNL     1      16.022   8.262  20.529  0.00  0.00    -0.300 N 
ATOM     17  C   UNL     1      16.797   7.116  20.530  0.00  0.00    +0.241 C 
ATOM     38  H   UNL     1      16.442   9.144  20.810  0.00  0.00    +0.150 HD
BRANCH   8  18
ATOM     18  C   UNL     1      14.666   8.299  20.031  0.00  0.00    +0.163 C 
BRANCH  18  22
ATOM      5  O   UNL     1      13.318   8.387  22.051  0.00  0.00    -0.274 OA
ATOM     10  N   UNL     1      13.484   6.390  20.927  0.00  0.00    -0.328 N 
ATOM     22  C   UNL     1      13.773   7.724  21.121  0.00  0.00    +0.231 C 
ATOM     40  H   UNL     1      12.884   5.889  21.575  0.00  0.00    +0.145 HD
ATOM     41  H   UNL     1      13.863   5.856  20.151  0.00  0.00    +0.145 HD
ENDBRANCH  18  22
BRANCH  18  20
ATOM     20  C   UNL     1      14.503   7.500  18.732  0.00  0.00    +0.067 C 
BRANCH  20  21
ATOM     21  C   UNL     1      13.534   8.144  17.770  0.00  0.00    -0.045 A 
ATOM     24  C   UNL     1      14.013   8.914  16.710  0.00  0.00    +0.007 A 
ATOM     25  C   UNL     1      12.161   7.969  17.940  0.00  0.00    +0.007 A 
ATOM     26  C   UNL     1      13.117   9.508  15.820  0.00  0.00    +0.045 A 
ATOM     27  C   UNL     1      11.266   8.563  17.051  0.00  0.00    +0.045 A 
ATOM     30  C   UNL     1      11.744   9.332  15.991  0.00  0.00    +0.117 A 
BRANCH  30   6
ATOM      6  O   UNL     1      10.871   9.913  15.123  0.00  0.00    -0.507 OA
ATOM     42  H   UNL     1      10.308   9.222  14.734  0.00  0.00    +0.292 HD
ENDBRANCH  30   6
ENDBRANCH  20  21
ENDBRANCH  18  20
ENDBRANCH   8  18
ENDBRANCH  15  17
BRANCH  11   1
ATOM      1  O   UNL     1      21.342   7.800  20.448  0.00  0.00    -0.387 OA
ATOM     36  H   UNL     1      22.264   8.112  20.469  0.00  0.00    +0.210 HD
ENDBRANCH  11   1
BRANCH  12   2
ATOM      2  O   UNL     1      19.578   8.928  23.448  0.00  0.00    -0.389 OA
ATOM     37  H   UNL     1      18.689   9.314  23.523  0.00  0.00    +0.210 HD
ENDBRANCH  12   2
TORSDOF 10
ENDMDL
MODEL 3
REMARK VINA RESULT:      -7.5     27.482     31.308
REMARK  Name = 11866326
REMARK  11 active torsions:
REMARK  status: ('A' for Active; 'I' for Inactive)
REMARK    1  A    between atoms: O_1  and  C_11
REMARK    2  A    between atoms: O_2  and  C_12
REMARK    3  A    between atoms: O_6  and  C_30
REMARK    4  A    between atoms: N_7  and  C_13
REMARK    5  A    between atoms: N_8  and  C_18
REMARK    6  A    between atoms: N_9  and  C_23
REMARK    7  A    between atoms: C_15  and  C_17
REMARK    8  A    between atoms: C_18  and  C_20
REMARK    9  A    between atoms: C_18  and  C_22
REMARK   10  A    between atoms: C_20  and  C_21
REMARK   11  A    between atoms: C_33  and  C_34
REMARK                            x       y       z     vdW  Elec       q    Type
REMARK                         _______ _______ _______ _____ _____    ______ ____
ROOT
ATOM     11  C   UNL     1      17.841  10.047  21.683  0.00  0.00    +0.167 C 
ATOM     12  C   UNL     1      16.410  10.599  21.660  0.00  0.00    +0.149 C 
ATOM     13  C   UNL     1      17.852   8.507  21.669  0.00  0.00    +0.129 C 
ATOM     14  C   UNL     1      15.606  10.072  20.460  0.00  0.00    +0.074 C 
ATOM     15  C   UNL     1      15.884   8.630  20.143  0.00  0.00    +0.015 C 
ATOM     16  C   UNL     1      16.881   7.914  20.684  0.00  0.00    +0.006 C 
ENDROOT
BRANCH  13   7
ATOM      4  O   UNL     1      18.972   6.067  22.668  0.00  0.00    -0.252 OA
ATOM      7  N   UNL     1      19.170   7.986  21.395  0.00  0.00    -0.290 N 
ATOM      9  N   UNL     1      20.947   6.534  21.487  0.00  0.00    -0.269 N 
ATOM     19  C   UNL     1      19.643   6.780  21.925  0.00  0.00    +0.304 C 
ATOM     35  H   UNL     1      19.751   8.478  20.721  0.00  0.00    +0.151 HD
ATOM     39  H   UNL     1      21.360   7.231  20.873  0.00  0.00    +0.156 HD
BRANCH   9  23
ATOM     23  C   UNL     1      21.772   5.429  21.797  0.00  0.00    +0.035 A 
ATOM     28  C   UNL     1      22.679   5.510  22.854  0.00  0.00    +0.023 A 
ATOM     29  C   UNL     1      21.681   4.256  21.046  0.00  0.00    +0.023 A 
ATOM     31  C   UNL     1      23.493   4.420  23.160  0.00  0.00    +0.005 A 
ATOM     32  C   UNL     1      22.496   3.167  21.352  0.00  0.00    +0.005 A 
ATOM     33  C   UNL     1      23.402   3.248  22.409  0.00  0.00    -0.050 A 
ATOM     34  C   UNL     1      24.273   2.083  22.737  0.00  0.00    +0.044 C 
ENDBRANCH   9  23
ENDBRANCH  13   7
BRANCH  15  17
ATOM      3  O   UNL     1      15.169   6.764  18.907  0.00  0.00    -0.271 OA
ATOM      8  N   UNL     1      13.996   8.768  18.705  0.00  0.00    -0.300 N 
ATOM     17  C   UNL     1      14.995   7.947  19.197  0.00  0.00    +0.241 C 
ATOM     38  H   UNL     1      14.003   9.755  18.948  0.00  0.00    +0.150 HD
BRANCH   8  18
ATOM     18  C   UNL     1      13.002   8.321  17.757  0.00  0.00    +0.163 C 
BRANCH  18  22
ATOM      5  O   UNL     1      13.534   8.558  15.398  0.00  0.00    -0.274 OA
ATOM     10  N   UNL     1      13.029  10.446  16.605  0.00  0.00    -0.328 N 
ATOM     22  C   UNL     1      13.236   9.091  16.465  0.00  0.00    +0.231 C 
ATOM     40  H   UNL     1      13.136  11.073  15.814  0.00  0.00    +0.145 HD
ATOM     41  H   UNL     1      12.778  10.872  17.493  0.00  0.00    +0.145 HD
ENDBRANCH  18  22
BRANCH  18  20
ATOM     20  C   UNL     1      11.573   8.552  18.263  0.00  0.00    +0.067 C 
BRANCH  20  21
ATOM     21  C   UNL     1      11.520   8.849  19.743  0.00  0.00    -0.045 A 
ATOM     24  C   UNL     1      11.123   7.857  20.639  0.00  0.00    +0.007 A 
ATOM     25  C   UNL     1      11.868  10.116  20.213  0.00  0.00    +0.007 A 
ATOM     26  C   UNL     1      11.073   8.131  22.006  0.00  0.00    +0.045 A 
ATOM     27  C   UNL     1      11.819  10.390  21.579  0.00  0.00    +0.045 A 
ATOM     30  C   UNL     1      11.422   9.398  22.475  0.00  0.00    +0.117 A 
BRANCH  30   6
ATOM      6  O   UNL     1      11.373   9.666  23.810  0.00  0.00    -0.507 OA
ATOM     42  H   UNL     1      10.508  10.057  24.020  0.00  0.00    +0.292 HD
ENDBRANCH  30   6
ENDBRANCH  20  21
ENDBRANCH  18  20
ENDBRANCH   8  18
ENDBRANCH  15  17
BRANCH  11   1
ATOM      1  O   UNL     1      18.544  10.542  20.540  0.00  0.00    -0.387 OA
ATOM     36  H   UNL     1      19.310  11.047  20.864  0.00  0.00    +0.210 HD
ENDBRANCH  11   1
BRANCH  12   2
ATOM      2  O   UNL     1      15.741  10.279  22.877  0.00  0.00    -0.389 OA
ATOM     37  H   UNL     1      16.039  10.913  23.552  0.00  0.00    +0.210 HD
ENDBRANCH  12   2
TORSDOF 10
ENDMDL
MODEL 4
REMARK VINA RESULT:      -7.5     24.462     26.900
REMARK  Name = 11866326
REMARK  11 active torsions:
REMARK  status: ('A' for Active; 'I' for Inactive)
REMARK    1  A    between atoms: O_1  and  C_11
REMARK    2  A    between atoms: O_2  and  C_12
REMARK    3  A    between atoms: O_6  and  C_30
REMARK    4  A    between atoms: N_7  and  C_13
REMARK    5  A    between atoms: N_8  and  C_18
REMARK    6  A    between atoms: N_9  and  C_23
REMARK    7  A    between atoms: C_15  and  C_17
REMARK    8  A    between atoms: C_18  and  C_20
REMARK    9  A    between atoms: C_18  and  C_22
REMARK   10  A    between atoms: C_20  and  C_21
REMARK   11  A    between atoms: C_33  and  C_34
REMARK                            x       y       z     vdW  Elec       q    Type
REMARK                         _______ _______ _______ _____ _____    ______ ____
ROOT
ATOM     11  C   UNL     1      15.342   9.152   4.781  0.00  0.00    +0.167 C 
ATOM     12  C   UNL     1      14.739  10.169   5.759  0.00  0.00    +0.149 C 
ATOM     13  C   UNL     1      15.186   7.710   5.300  0.00  0.00    +0.129 C 
ATOM     14  C   UNL     1      13.262   9.871   6.067  0.00  0.00    +0.074 C 
ATOM     15  C   UNL     1      12.965   8.404   6.197  0.00  0.00    +0.015 C 
ATOM     16  C   UNL     1      13.821   7.425   5.866  0.00  0.00    +0.006 C 
ENDROOT
BRANCH  13   7
ATOM      4  O   UNL     1      13.431   6.864   3.200  0.00  0.00    -0.252 OA
ATOM      7  N   UNL     1      15.476   6.740   4.272  0.00  0.00    -0.290 N 
ATOM      9  N   UNL     1      15.117   5.423   2.425  0.00  0.00    -0.269 N 
ATOM     19  C   UNL     1      14.560   6.381   3.278  0.00  0.00    +0.304 C 
ATOM     35  H   UNL     1      16.417   6.361   4.221  0.00  0.00    +0.151 HD
ATOM     39  H   UNL     1      16.067   5.128   2.632  0.00  0.00    +0.156 HD
BRANCH   9  23
ATOM     23  C   UNL     1      14.517   4.807   1.303  0.00  0.00    +0.035 A 
ATOM     28  C   UNL     1      13.522   3.846   1.484  0.00  0.00    +0.023 A 
ATOM     29  C   UNL     1      14.920   5.158   0.014  0.00  0.00    +0.023 A 
ATOM     31  C   UNL     1      12.931   3.237   0.378  0.00  0.00    +0.005 A 
ATOM     32  C   UNL     1      14.328   4.548  -1.092  0.00  0.00    +0.005 A 
ATOM     33  C   UNL     1      13.334   3.588  -0.911  0.00  0.00    -0.050 A 
ATOM     34  C   UNL     1      12.700   2.937  -2.093  0.00  0.00    +0.044 C 
ENDBRANCH   9  23
ENDBRANCH  13   7
BRANCH  15  17
ATOM      3  O   UNL     1      10.954   8.819   7.338  0.00  0.00    -0.271 OA
ATOM      8  N   UNL     1      11.361   6.678   6.512  0.00  0.00    -0.300 N 
ATOM     17  C   UNL     1      11.662   8.009   6.743  0.00  0.00    +0.241 C 
ATOM     38  H   UNL     1      12.062   6.079   6.085  0.00  0.00    +0.150 HD
BRANCH   8  18
ATOM     18  C   UNL     1      10.134   6.058   6.956  0.00  0.00    +0.163 C 
BRANCH  18  22
ATOM      5  O   UNL     1      10.833   5.677   9.252  0.00  0.00    -0.274 OA
ATOM     10  N   UNL     1      10.293   3.861   7.953  0.00  0.00    -0.328 N 
ATOM     22  C   UNL     1      10.476   5.210   8.173  0.00  0.00    +0.231 C 
ATOM     40  H   UNL     1      10.471   3.185   8.689  0.00  0.00    +0.145 HD
ATOM     41  H   UNL     1       9.992   3.490   7.057  0.00  0.00    +0.145 HD
ENDBRANCH  18  22
BRANCH  18  20
ATOM     20  C   UNL     1       9.493   5.192   5.866  0.00  0.00    +0.067 C 
BRANCH  20  21
ATOM     21  C   UNL     1       9.541   5.841   4.503  0.00  0.00    -0.045 A 
ATOM     24  C   UNL     1       8.833   7.018   4.267  0.00  0.00    +0.007 A 
ATOM     25  C   UNL     1      10.294   5.263   3.481  0.00  0.00    +0.007 A 
ATOM     26  C   UNL     1       8.877   7.619   3.009  0.00  0.00    +0.045 A 
ATOM     27  C   UNL     1      10.338   5.862   2.222  0.00  0.00    +0.045 A 
ATOM     30  C   UNL     1       9.629   7.040   1.987  0.00  0.00    +0.117 A 
BRANCH  30   6
ATOM      6  O   UNL     1       9.672   7.625   0.758  0.00  0.00    -0.507 OA
ATOM     42  H   UNL     1       8.896   7.338   0.246  0.00  0.00    +0.292 HD
ENDBRANCH  30   6
ENDBRANCH  20  21
ENDBRANCH  18  20
ENDBRANCH   8  18
ENDBRANCH  15  17
BRANCH  11   1
ATOM      1  O   UNL     1      14.682   9.281   3.519  0.00  0.00    -0.387 OA
ATOM     36  H   UNL     1      15.370   9.314   2.832  0.00  0.00    +0.210 HD
ENDBRANCH  11   1
BRANCH  12   2
ATOM      2  O   UNL     1      15.496  10.197   6.966  0.00  0.00    -0.389 OA
ATOM     37  H   UNL     1      16.299   9.667   6.822  0.00  0.00    +0.210 HD
ENDBRANCH  12   2
TORSDOF 10
ENDMDL
MODEL 5
REMARK VINA RESULT:      -7.4     29.484     32.997
REMARK  Name = 11866326
REMARK  11 active torsions:
REMARK  status: ('A' for Active; 'I' for Inactive)
REMARK    1  A    between atoms: O_1  and  C_11
REMARK    2  A    between atoms: O_2  and  C_12
REMARK    3  A    between atoms: O_6  and  C_30
REMARK    4  A    between atoms: N_7  and  C_13
REMARK    5  A    between atoms: N_8  and  C_18
REMARK    6  A    between atoms: N_9  and  C_23
REMARK    7  A    between atoms: C_15  and  C_17
REMARK    8  A    between atoms: C_18  and  C_20
REMARK    9  A    between atoms: C_18  and  C_22
REMARK   10  A    between atoms: C_20  and  C_21
REMARK   11  A    between atoms: C_33  and  C_34
REMARK                            x       y       z     vdW  Elec       q    Type
REMARK                         _______ _______ _______ _____ _____    ______ ____
ROOT
ATOM     11  C   UNL     1      20.556   7.659  24.388  0.00  0.00    +0.167 C 
ATOM     12  C   UNL     1      21.975   7.961  24.887  0.00  0.00    +0.149 C 
ATOM     13  C   UNL     1      20.568   7.123  22.944  0.00  0.00    +0.129 C 
ATOM     14  C   UNL     1      22.899   6.736  24.781  0.00  0.00    +0.074 C 
ATOM     15  C   UNL     1      22.673   5.925  23.536  0.00  0.00    +0.015 C 
ATOM     16  C   UNL     1      21.638   6.093  22.699  0.00  0.00    +0.006 C 
ENDROOT
BRANCH  13   7
ATOM      4  O   UNL     1      18.608   8.318  21.229  0.00  0.00    -0.252 OA
ATOM      7  N   UNL     1      19.290   6.564  22.573  0.00  0.00    -0.290 N 
ATOM      9  N   UNL     1      17.239   6.436  21.547  0.00  0.00    -0.269 N 
ATOM     19  C   UNL     1      18.386   7.215  21.726  0.00  0.00    +0.304 C 
ATOM     35  H   UNL     1      19.073   5.619  22.876  0.00  0.00    +0.151 HD
ATOM     39  H   UNL     1      17.214   5.544  22.033  0.00  0.00    +0.156 HD
BRANCH   9  23
ATOM     23  C   UNL     1      16.098   6.739  20.769  0.00  0.00    +0.035 A 
ATOM     28  C   UNL     1      16.145   6.605  19.381  0.00  0.00    +0.023 A 
ATOM     29  C   UNL     1      14.925   7.171  21.388  0.00  0.00    +0.023 A 
ATOM     31  C   UNL     1      15.020   6.904  18.613  0.00  0.00    +0.005 A 
ATOM     32  C   UNL     1      13.801   7.470  20.619  0.00  0.00    +0.005 A 
ATOM     33  C   UNL     1      13.847   7.336  19.232  0.00  0.00    -0.050 A 
ATOM     34  C   UNL     1      12.644   7.654  18.410  0.00  0.00    +0.044 C 
ENDBRANCH   9  23
ENDBRANCH  13   7
BRANCH  15  17
ATOM      3  O   UNL     1      24.455   4.478  24.036  0.00  0.00    -0.271 OA
ATOM      8  N   UNL     1      23.573   4.479  21.878  0.00  0.00    -0.300 N 
ATOM     17  C   UNL     1      23.658   4.893  23.196  0.00  0.00    +0.241 C 
ATOM     38  H   UNL     1      22.932   4.956  21.250  0.00  0.00    +0.150 HD
BRANCH   8  18
ATOM     18  C   UNL     1      24.440   3.473  21.309  0.00  0.00    +0.163 C 
BRANCH  18  22
ATOM      5  O   UNL     1      25.238   5.008  19.603  0.00  0.00    -0.274 OA
ATOM     10  N   UNL     1      24.512   2.927  18.956  0.00  0.00    -0.328 N 
ATOM     22  C   UNL     1      24.762   3.911  19.888  0.00  0.00    +0.231 C 
ATOM     40  H   UNL     1      24.699   3.084  17.970  0.00  0.00    +0.145 HD
ATOM     41  H   UNL     1      24.124   2.023  19.206  0.00  0.00    +0.145 HD
ENDBRANCH  18  22
BRANCH  18  20
ATOM     20  C   UNL     1      23.793   2.084  21.305  0.00  0.00    +0.067 C 
BRANCH  20  21
ATOM     21  C   UNL     1      24.421   1.145  22.307  0.00  0.00    -0.045 A 
ATOM     24  C   UNL     1      23.884   1.033  23.589  0.00  0.00    +0.007 A 
ATOM     25  C   UNL     1      25.538   0.389  21.950  0.00  0.00    +0.007 A 
ATOM     26  C   UNL     1      24.463   0.165  24.515  0.00  0.00    +0.045 A 
ATOM     27  C   UNL     1      26.118  -0.479  22.875  0.00  0.00    +0.045 A 
ATOM     30  C   UNL     1      25.580  -0.590  24.157  0.00  0.00    +0.117 A 
BRANCH  30   6
ATOM      6  O   UNL     1      26.147  -1.437  25.061  0.00  0.00    -0.507 OA
ATOM     42  H   UNL     1      26.913  -1.871  24.648  0.00  0.00    +0.292 HD
ENDBRANCH  30   6
ENDBRANCH  20  21
ENDBRANCH  18  20
ENDBRANCH   8  18
ENDBRANCH  15  17
BRANCH  11   1
ATOM      1  O   UNL     1      19.961   6.689  25.254  0.00  0.00    -0.387 OA
ATOM     36  H   UNL     1      19.885   7.093  26.136  0.00  0.00    +0.210 HD
ENDBRANCH  11   1
BRANCH  12   2
ATOM      2  O   UNL     1      22.527   9.056  24.161  0.00  0.00    -0.389 OA
ATOM     37  H   UNL     1      22.231   8.976  23.238  0.00  0.00    +0.210 HD
ENDBRANCH  12   2
TORSDOF 10
ENDMDL
MODEL 6
REMARK VINA RESULT:      -7.4     23.504     26.303
REMARK  Name = 11866326
REMARK  11 active torsions:
REMARK  status: ('A' for Active; 'I' for Inactive)
REMARK    1  A    between atoms: O_1  and  C_11
REMARK    2  A    between atoms: O_2  and  C_12
REMARK    3  A    between atoms: O_6  and  C_30
REMARK    4  A    between atoms: N_7  and  C_13
REMARK    5  A    between atoms: N_8  and  C_18
REMARK    6  A    between atoms: N_9  and  C_23
REMARK    7  A    between atoms: C_15  and  C_17
REMARK    8  A    between atoms: C_18  and  C_20
REMARK    9  A    between atoms: C_18  and  C_22
REMARK   10  A    between atoms: C_20  and  C_21
REMARK   11  A    between atoms: C_33  and  C_34
REMARK                            x       y       z     vdW  Elec       q    Type
REMARK                         _______ _______ _______ _____ _____    ______ ____
ROOT
ATOM     11  C   UNL     1      10.034   8.757   1.591  0.00  0.00    +0.167 C 
ATOM     12  C   UNL     1       9.736   9.327   0.198  0.00  0.00    +0.149 C 
ATOM     13  C   UNL     1       9.774   7.239   1.646  0.00  0.00    +0.129 C 
ATOM     14  C   UNL     1      10.532   8.609  -0.904  0.00  0.00    +0.074 C 
ATOM     15  C   UNL     1      10.652   7.128  -0.685  0.00  0.00    +0.015 C 
ATOM     16  C   UNL     1      10.307   6.499   0.449  0.00  0.00    +0.006 C 
ENDROOT
BRANCH  13   7
ATOM      4  O   UNL     1       8.439   6.899   4.158  0.00  0.00    -0.252 OA
ATOM      7  N   UNL     1      10.323   6.648   2.842  0.00  0.00    -0.290 N 
ATOM      9  N   UNL     1      10.389   5.911   5.017  0.00  0.00    -0.269 N 
ATOM     19  C   UNL     1       9.602   6.518   4.034  0.00  0.00    +0.304 C 
ATOM     35  H   UNL     1      11.250   6.234   2.792  0.00  0.00    +0.151 HD
ATOM     39  H   UNL     1      11.336   5.658   4.749  0.00  0.00    +0.156 HD
BRANCH   9  23
ATOM     23  C   UNL     1      10.029   5.604   6.349  0.00  0.00    +0.035 A 
ATOM     28  C   UNL     1      10.008   4.277   6.778  0.00  0.00    +0.023 A 
ATOM     29  C   UNL     1       9.695   6.629   7.236  0.00  0.00    +0.023 A 
ATOM     31  C   UNL     1       9.654   3.974   8.092  0.00  0.00    +0.005 A 
ATOM     32  C   UNL     1       9.340   6.325   8.550  0.00  0.00    +0.005 A 
ATOM     33  C   UNL     1       9.319   4.998   8.979  0.00  0.00    -0.050 A 
ATOM     34  C   UNL     1       8.941   4.674  10.384  0.00  0.00    +0.044 C 
ENDBRANCH   9  23
ENDBRANCH  13   7
BRANCH  15  17
ATOM      3  O   UNL     1      11.670   6.821  -2.780  0.00  0.00    -0.271 OA
ATOM      8  N   UNL     1      10.985   4.949  -1.574  0.00  0.00    -0.300 N 
ATOM     17  C   UNL     1      11.157   6.305  -1.789  0.00  0.00    +0.241 C 
ATOM     38  H   UNL     1      10.467   4.639  -0.756  0.00  0.00    +0.150 HD
BRANCH   8  18
ATOM     18  C   UNL     1      11.402   3.940  -2.521  0.00  0.00    +0.163 C 
BRANCH  18  22
ATOM      5  O   UNL     1       9.381   4.091  -3.862  0.00  0.00    -0.274 OA
ATOM     10  N   UNL     1       9.973   2.048  -2.993  0.00  0.00    -0.328 N 
ATOM     22  C   UNL     1      10.142   3.403  -3.186  0.00  0.00    +0.231 C 
ATOM     40  H   UNL     1       9.180   1.561  -3.398  0.00  0.00    +0.145 HD
ATOM     41  H   UNL     1      10.614   1.491  -2.436  0.00  0.00    +0.145 HD
ENDBRANCH  18  22
BRANCH  18  20
ATOM     20  C   UNL     1      12.178   2.801  -1.851  0.00  0.00    +0.067 C 
BRANCH  20  21
ATOM     21  C   UNL     1      13.016   3.272  -0.687  0.00  0.00    -0.045 A 
ATOM     24  C   UNL     1      12.576   3.059   0.619  0.00  0.00    +0.007 A 
ATOM     25  C   UNL     1      14.230   3.920  -0.917  0.00  0.00    +0.007 A 
ATOM     26  C   UNL     1      13.350   3.494   1.696  0.00  0.00    +0.045 A 
ATOM     27  C   UNL     1      15.004   4.354   0.158  0.00  0.00    +0.045 A 
ATOM     30  C   UNL     1      14.564   4.142   1.464  0.00  0.00    +0.117 A 
BRANCH  30   6
ATOM      6  O   UNL     1      15.319   4.567   2.515  0.00  0.00    -0.507 OA
ATOM     42  H   UNL     1      15.802   3.807   2.883  0.00  0.00    +0.292 HD
ENDBRANCH  30   6
ENDBRANCH  20  21
ENDBRANCH  18  20
ENDBRANCH   8  18
ENDBRANCH  15  17
BRANCH  11   1
ATOM      1  O   UNL     1      11.402   9.020   1.912  0.00  0.00    -0.387 OA
ATOM     36  H   UNL     1      11.698   8.323   2.523  0.00  0.00    +0.210 HD
ENDBRANCH  11   1
BRANCH  12   2
ATOM      2  O   UNL     1       8.339   9.248  -0.076  0.00  0.00    -0.389 OA
ATOM     37  H   UNL     1       8.048   8.346   0.141  0.00  0.00    +0.210 HD
ENDBRANCH  12   2
TORSDOF 10
ENDMDL
MODEL 7
REMARK VINA RESULT:      -7.3     27.951     31.681
REMARK  Name = 11866326
REMARK  11 active torsions:
REMARK  status: ('A' for Active; 'I' for Inactive)
REMARK    1  A    between atoms: O_1  and  C_11
REMARK    2  A    between atoms: O_2  and  C_12
REMARK    3  A    between atoms: O_6  and  C_30
REMARK    4  A    between atoms: N_7  and  C_13
REMARK    5  A    between atoms: N_8  and  C_18
REMARK    6  A    between atoms: N_9  and  C_23
REMARK    7  A    between atoms: C_15  and  C_17
REMARK    8  A    between atoms: C_18  and  C_20
REMARK    9  A    between atoms: C_18  and  C_22
REMARK   10  A    between atoms: C_20  and  C_21
REMARK   11  A    between atoms: C_33  and  C_34
REMARK                            x       y       z     vdW  Elec       q    Type
REMARK                         _______ _______ _______ _____ _____    ______ ____
ROOT
ATOM     11  C   UNL     1      18.613  10.592  21.605  0.00  0.00    +0.167 C 
ATOM     12  C   UNL     1      17.403  11.341  22.177  0.00  0.00    +0.149 C 
ATOM     13  C   UNL     1      18.546   9.085  21.922  0.00  0.00    +0.129 C 
ATOM     14  C   UNL     1      16.071  10.752  21.684  0.00  0.00    +0.074 C 
ATOM     15  C   UNL     1      16.079   9.252  21.594  0.00  0.00    +0.015 C 
ATOM     16  C   UNL     1      17.179   8.492  21.707  0.00  0.00    +0.006 C 
ENDROOT
BRANCH  13   7
ATOM      4  O   UNL     1      19.869   6.671  22.713  0.00  0.00    -0.252 OA
ATOM      7  N   UNL     1      19.506   8.335  21.149  0.00  0.00    -0.290 N 
ATOM      9  N   UNL     1      20.991   6.655  20.650  0.00  0.00    -0.269 N 
ATOM     19  C   UNL     1      20.109   7.159  21.610  0.00  0.00    +0.304 C 
ATOM     35  H   UNL     1      19.691   8.630  20.195  0.00  0.00    +0.151 HD
ATOM     39  H   UNL     1      21.075   7.185  19.787  0.00  0.00    +0.156 HD
BRANCH   9  23
ATOM     23  C   UNL     1      21.791   5.492  20.732  0.00  0.00    +0.035 A 
ATOM     28  C   UNL     1      21.191   4.246  20.912  0.00  0.00    +0.023 A 
ATOM     29  C   UNL     1      23.179   5.591  20.634  0.00  0.00    +0.023 A 
ATOM     31  C   UNL     1      21.980   3.098  20.993  0.00  0.00    +0.005 A 
ATOM     32  C   UNL     1      23.966   4.443  20.716  0.00  0.00    +0.005 A 
ATOM     33  C   UNL     1      23.368   3.196  20.895  0.00  0.00    -0.050 A 
ATOM     34  C   UNL     1      24.210   1.969  20.981  0.00  0.00    +0.044 C 
ENDBRANCH   9  23
ENDBRANCH  13   7
BRANCH  15  17
ATOM      3  O   UNL     1      14.299   7.882  22.281  0.00  0.00    -0.271 OA
ATOM      8  N   UNL     1      14.267   8.779  20.130  0.00  0.00    -0.300 N 
ATOM     17  C   UNL     1      14.800   8.565  21.390  0.00  0.00    +0.241 C 
ATOM     38  H   UNL     1      14.813   9.291  19.443  0.00  0.00    +0.150 HD
BRANCH   8  18
ATOM     18  C   UNL     1      13.014   8.205  19.695  0.00  0.00    +0.163 C 
BRANCH  18  22
ATOM      5  O   UNL     1      12.367   7.168  17.595  0.00  0.00    -0.274 OA
ATOM     10  N   UNL     1      14.599   7.528  18.000  0.00  0.00    -0.328 N 
ATOM     22  C   UNL     1      13.263   7.566  18.336  0.00  0.00    +0.231 C 
ATOM     40  H   UNL     1      14.901   7.141  17.111  0.00  0.00    +0.145 HD
ATOM     41  H   UNL     1      15.329   7.866  18.620  0.00  0.00    +0.145 HD
ENDBRANCH  18  22
BRANCH  18  20
ATOM     20  C   UNL     1      11.899   9.252  19.597  0.00  0.00    +0.067 C 
BRANCH  20  21
ATOM     21  C   UNL     1      11.553   9.862  20.934  0.00  0.00    -0.045 A 
ATOM     24  C   UNL     1      11.815  11.210  21.173  0.00  0.00    +0.007 A 
ATOM     25  C   UNL     1      10.971   9.077  21.930  0.00  0.00    +0.007 A 
ATOM     26  C   UNL     1      11.495  11.775  22.408  0.00  0.00    +0.045 A 
ATOM     27  C   UNL     1      10.650   9.641  23.164  0.00  0.00    +0.045 A 
ATOM     30  C   UNL     1      10.912  10.989  23.403  0.00  0.00    +0.117 A 
BRANCH  30   6
ATOM      6  O   UNL     1      10.601  11.540  24.609  0.00  0.00    -0.507 OA
ATOM     42  H   UNL     1      10.485  12.499  24.496  0.00  0.00    +0.292 HD
ENDBRANCH  30   6
ENDBRANCH  20  21
ENDBRANCH  18  20
ENDBRANCH   8  18
ENDBRANCH  15  17
BRANCH  11   1
ATOM      1  O   UNL     1      18.643  10.782  20.188  0.00  0.00    -0.387 OA
ATOM     36  H   UNL     1      17.816  11.227  19.935  0.00  0.00    +0.210 HD
ENDBRANCH  11   1
BRANCH  12   2
ATOM      2  O   UNL     1      17.447  11.328  23.602  0.00  0.00    -0.389 OA
ATOM     37  H   UNL     1      18.067  12.023  23.883  0.00  0.00    +0.210 HD
ENDBRANCH  12   2
TORSDOF 10
ENDMDL
MODEL 8
REMARK VINA RESULT:      -7.2      4.190     10.945
REMARK  Name = 11866326
REMARK  11 active torsions:
REMARK  status: ('A' for Active; 'I' for Inactive)
REMARK    1  A    between atoms: O_1  and  C_11
REMARK    2  A    between atoms: O_2  and  C_12
REMARK    3  A    between atoms: O_6  and  C_30
REMARK    4  A    between atoms: N_7  and  C_13
REMARK    5  A    between atoms: N_8  and  C_18
REMARK    6  A    between atoms: N_9  and  C_23
REMARK    7  A    between atoms: C_15  and  C_17
REMARK    8  A    between atoms: C_18  and  C_20
REMARK    9  A    between atoms: C_18  and  C_22
REMARK   10  A    between atoms: C_20  and  C_21
REMARK   11  A    between atoms: C_33  and  C_34
REMARK                            x       y       z     vdW  Elec       q    Type
REMARK                         _______ _______ _______ _____ _____    ______ ____
ROOT
ATOM     11  C   UNL     1     -11.261  -6.848  16.115  0.00  0.00    +0.167 C 
ATOM     12  C   UNL     1     -12.707  -6.533  15.710  0.00  0.00    +0.149 C 
ATOM     13  C   UNL     1     -10.792  -8.195  15.532  0.00  0.00    +0.129 C 
ATOM     14  C   UNL     1     -12.896  -6.547  14.184  0.00  0.00    +0.074 C 
ATOM     15  C   UNL     1     -12.120  -7.635  13.496  0.00  0.00    +0.015 C 
ATOM     16  C   UNL     1     -11.181  -8.387  14.091  0.00  0.00    +0.006 C 
ENDROOT
BRANCH  13   7
ATOM      4  O   UNL     1      -9.421  -9.968  17.315  0.00  0.00    -0.252 OA
ATOM      7  N   UNL     1      -9.364  -8.360  15.655  0.00  0.00    -0.290 N 
ATOM      9  N   UNL     1      -7.379  -9.197  16.451  0.00  0.00    -0.269 N 
ATOM     19  C   UNL     1      -8.771  -9.253  16.555  0.00  0.00    +0.304 C 
ATOM     35  H   UNL     1      -8.765  -7.865  15.001  0.00  0.00    +0.151 HD
ATOM     39  H   UNL     1      -6.999  -8.545  15.769  0.00  0.00    +0.156 HD
BRANCH   9  23
ATOM     23  C   UNL     1      -6.423  -9.937  17.184  0.00  0.00    +0.035 A 
ATOM     28  C   UNL     1      -6.671 -10.269  18.516  0.00  0.00    +0.023 A 
ATOM     29  C   UNL     1      -5.232 -10.336  16.576  0.00  0.00    +0.023 A 
ATOM     31  C   UNL     1      -5.728 -10.999  19.240  0.00  0.00    +0.005 A 
ATOM     32  C   UNL     1      -4.290 -11.066  17.301  0.00  0.00    +0.005 A 
ATOM     33  C   UNL     1      -4.537 -11.398  18.632  0.00  0.00    -0.050 A 
ATOM     34  C   UNL     1      -3.531 -12.179  19.406  0.00  0.00    +0.044 C 
ENDBRANCH   9  23
ENDBRANCH  13   7
BRANCH  15  17
ATOM      3  O   UNL     1     -13.227  -8.786  11.774  0.00  0.00    -0.271 OA
ATOM      8  N   UNL     1     -11.710  -7.107  11.215  0.00  0.00    -0.300 N 
ATOM     17  C   UNL     1     -12.420  -7.913  12.088  0.00  0.00    +0.241 C 
ATOM     38  H   UNL     1     -11.003  -6.478  11.587  0.00  0.00    +0.150 HD
BRANCH   8  18
ATOM     18  C   UNL     1     -11.835  -7.197   9.779  0.00  0.00    +0.163 C 
BRANCH  18  22
ATOM      5  O   UNL     1      -9.677  -8.191   9.272  0.00  0.00    -0.274 OA
ATOM     10  N   UNL     1     -10.093  -6.047   8.560  0.00  0.00    -0.328 N 
ATOM     22  C   UNL     1     -10.425  -7.218   9.206  0.00  0.00    +0.231 C 
ATOM     40  H   UNL     1      -9.186  -5.936   8.119  0.00  0.00    +0.145 HD
ATOM     41  H   UNL     1     -10.724  -5.253   8.509  0.00  0.00    +0.145 HD
ENDBRANCH  18  22
BRANCH  18  20
ATOM     20  C   UNL     1     -12.631  -6.026   9.192  0.00  0.00    +0.067 C 
BRANCH  20  21
ATOM     21  C   UNL     1     -13.237  -5.141  10.255  0.00  0.00    -0.045 A 
ATOM     24  C   UNL     1     -14.561  -5.334  10.649  0.00  0.00    +0.007 A 
ATOM     25  C   UNL     1     -12.474  -4.133  10.843  0.00  0.00    +0.007 A 
ATOM     26  C   UNL     1     -15.121  -4.517  11.632  0.00  0.00    +0.045 A 
ATOM     27  C   UNL     1     -13.033  -3.317  11.825  0.00  0.00    +0.045 A 
ATOM     30  C   UNL     1     -14.357  -3.509  12.220  0.00  0.00    +0.117 A 
BRANCH  30   6
ATOM      6  O   UNL     1     -14.904  -2.711  13.178  0.00  0.00    -0.507 OA
ATOM     42  H   UNL     1     -14.552  -1.810  13.076  0.00  0.00    +0.292 HD
ENDBRANCH  30   6
ENDBRANCH  20  21
ENDBRANCH  18  20
ENDBRANCH   8  18
ENDBRANCH  15  17
BRANCH  11   1
ATOM      1  O   UNL     1     -10.412  -5.799  15.642  0.00  0.00    -0.387 OA
ATOM     36  H   UNL     1     -10.475  -5.788  14.671  0.00  0.00    +0.210 HD
ENDBRANCH  11   1
BRANCH  12   2
ATOM      2  O   UNL     1     -13.601  -7.458  16.323  0.00  0.00    -0.389 OA
ATOM     37  H   UNL     1     -13.138  -8.310  16.395  0.00  0.00    +0.210 HD
ENDBRANCH  12   2
TORSDOF 10
ENDMDL
MODEL 9
REMARK VINA RESULT:      -7.2      4.116      7.262
REMARK  Name = 11866326
REMARK  11 active torsions:
REMARK  status: ('A' for Active; 'I' for Inactive)
REMARK    1  A    between atoms: O_1  and  C_11
REMARK    2  A    between atoms: O_2  and  C_12
REMARK    3  A    between atoms: O_6  and  C_30
REMARK    4  A    between atoms: N_7  and  C_13
REMARK    5  A    between atoms: N_8  and  C_18
REMARK    6  A    between atoms: N_9  and  C_23
REMARK    7  A    between atoms: C_15  and  C_17
REMARK    8  A    between atoms: C_18  and  C_20
REMARK    9  A    between atoms: C_18  and  C_22
REMARK   10  A    between atoms: C_20  and  C_21
REMARK   11  A    between atoms: C_33  and  C_34
REMARK                            x       y       z     vdW  Elec       q    Type
REMARK                         _______ _______ _______ _____ _____    ______ ____
ROOT
ATOM     11  C   UNL     1     -11.635 -10.204  18.978  0.00  0.00    +0.167 C 
ATOM     12  C   UNL     1     -10.704 -10.897  19.982  0.00  0.00    +0.149 C 
ATOM     13  C   UNL     1     -10.843  -9.349  17.971  0.00  0.00    +0.129 C 
ATOM     14  C   UNL     1      -9.633 -11.751  19.284  0.00  0.00    +0.074 C 
ATOM     15  C   UNL     1      -9.090 -11.121  18.033  0.00  0.00    +0.015 C 
ATOM     16  C   UNL     1      -9.616 -10.039  17.439  0.00  0.00    +0.006 C 
ENDROOT
BRANCH  13   7
ATOM      4  O   UNL     1     -10.310  -7.203  16.150  0.00  0.00    -0.252 OA
ATOM      7  N   UNL     1     -11.665  -8.937  16.859  0.00  0.00    -0.290 N 
ATOM      9  N   UNL     1     -12.312  -7.708  15.030  0.00  0.00    -0.269 N 
ATOM     19  C   UNL     1     -11.332  -7.874  16.013  0.00  0.00    +0.304 C 
ATOM     35  H   UNL     1     -12.482  -9.497  16.632  0.00  0.00    +0.151 HD
ATOM     39  H   UNL     1     -13.099  -8.350  15.060  0.00  0.00    +0.156 HD
BRANCH   9  23
ATOM     23  C   UNL     1     -12.346  -6.749  13.992  0.00  0.00    +0.035 A 
ATOM     28  C   UNL     1     -12.340  -5.388  14.299  0.00  0.00    +0.023 A 
ATOM     29  C   UNL     1     -12.387  -7.162  12.660  0.00  0.00    +0.023 A 
ATOM     31  C   UNL     1     -12.374  -4.442  13.276  0.00  0.00    +0.005 A 
ATOM     32  C   UNL     1     -12.422  -6.215  11.637  0.00  0.00    +0.005 A 
ATOM     33  C   UNL     1     -12.415  -4.855  11.944  0.00  0.00    -0.050 A 
ATOM     34  C   UNL     1     -12.451  -3.842  10.850  0.00  0.00    +0.044 C 
ENDBRANCH   9  23
ENDBRANCH  13   7
BRANCH  15  17
ATOM      3  O   UNL     1      -7.978 -12.618  16.603  0.00  0.00    -0.271 OA
ATOM      8  N   UNL     1      -6.717 -11.137  17.888  0.00  0.00    -0.300 N 
ATOM     17  C   UNL     1      -7.890 -11.710  17.428  0.00  0.00    +0.241 C 
ATOM     38  H   UNL     1      -6.762 -10.452  18.637  0.00  0.00    +0.150 HD
BRANCH   8  18
ATOM     18  C   UNL     1      -5.408 -11.552  17.439  0.00  0.00    +0.163 C 
BRANCH  18  22
ATOM      5  O   UNL     1      -4.623 -11.979  19.699  0.00  0.00    -0.274 OA
ATOM     10  N   UNL     1      -4.504 -13.676  18.155  0.00  0.00    -0.328 N 
ATOM     22  C   UNL     1      -4.796 -12.389  18.553  0.00  0.00    +0.231 C 
ATOM     40  H   UNL     1      -4.106 -14.345  18.807  0.00  0.00    +0.145 HD
ATOM     41  H   UNL     1      -4.658 -14.003  17.206  0.00  0.00    +0.145 HD
ENDBRANCH  18  22
BRANCH  18  20
ATOM     20  C   UNL     1      -4.503 -10.359  17.111  0.00  0.00    +0.067 C 
BRANCH  20  21
ATOM     21  C   UNL     1      -3.762 -10.531  15.806  0.00  0.00    -0.045 A 
ATOM     24  C   UNL     1      -2.371 -10.632  15.803  0.00  0.00    +0.007 A 
ATOM     25  C   UNL     1      -4.468 -10.590  14.605  0.00  0.00    +0.007 A 
ATOM     26  C   UNL     1      -1.686 -10.791  14.598  0.00  0.00    +0.045 A 
ATOM     27  C   UNL     1      -3.784 -10.749  13.400  0.00  0.00    +0.045 A 
ATOM     30  C   UNL     1      -2.393 -10.850  13.397  0.00  0.00    +0.117 A 
BRANCH  30   6
ATOM      6  O   UNL     1      -1.725 -11.005  12.221  0.00  0.00    -0.507 OA
ATOM     42  H   UNL     1      -2.002 -10.303  11.607  0.00  0.00    +0.292 HD
ENDBRANCH  30   6
ENDBRANCH  20  21
ENDBRANCH  18  20
ENDBRANCH   8  18
ENDBRANCH  15  17
BRANCH  11   1
ATOM      1  O   UNL     1     -12.380 -11.203  18.277  0.00  0.00    -0.387 OA
ATOM     36  H   UNL     1     -12.948 -11.653  18.926  0.00  0.00    +0.210 HD
ENDBRANCH  11   1
BRANCH  12   2
ATOM      2  O   UNL     1     -10.085  -9.929  20.826  0.00  0.00    -0.389 OA
ATOM     37  H   UNL     1     -10.358 -10.118  21.740  0.00  0.00    +0.210 HD
ENDBRANCH  12   2
TORSDOF 10
ENDMDL
MODEL 10
REMARK VINA RESULT:      -7.2      2.079      2.632
REMARK  Name = 11866326
REMARK  11 active torsions:
REMARK  status: ('A' for Active; 'I' for Inactive)
REMARK    1  A    between atoms: O_1  and  C_11
REMARK    2  A    between atoms: O_2  and  C_12
REMARK    3  A    between atoms: O_6  and  C_30
REMARK    4  A    between atoms: N_7  and  C_13
REMARK    5  A    between atoms: N_8  and  C_18
REMARK    6  A    between atoms: N_9  and  C_23
REMARK    7  A    between atoms: C_15  and  C_17
REMARK    8  A    between atoms: C_18  and  C_20
REMARK    9  A    between atoms: C_18  and  C_22
REMARK   10  A    between atoms: C_20  and  C_21
REMARK   11  A    between atoms: C_33  and  C_34
REMARK                            x       y       z     vdW  Elec       q    Type
REMARK                         _______ _______ _______ _____ _____    ______ ____
ROOT
ATOM     11  C   UNL     1      -4.565 -10.085   9.035  0.00  0.00    +0.167 C 
ATOM     12  C   UNL     1      -3.567 -10.981   9.780  0.00  0.00    +0.149 C 
ATOM     13  C   UNL     1      -5.957 -10.121   9.694  0.00  0.00    +0.129 C 
ATOM     14  C   UNL     1      -3.461 -10.615  11.270  0.00  0.00    +0.074 C 
ATOM     15  C   UNL     1      -4.780 -10.244  11.889  0.00  0.00    +0.015 C 
ATOM     16  C   UNL     1      -5.908 -10.029  11.195  0.00  0.00    +0.006 C 
ENDROOT
BRANCH  13   7
ATOM      4  O   UNL     1      -7.385 -10.118   7.211  0.00  0.00    -0.252 OA
ATOM      7  N   UNL     1      -6.812  -9.073   9.192  0.00  0.00    -0.290 N 
ATOM      9  N   UNL     1      -8.228  -7.992   7.742  0.00  0.00    -0.269 N 
ATOM     19  C   UNL     1      -7.476  -9.149   7.962  0.00  0.00    +0.304 C 
ATOM     35  H   UNL     1      -7.004  -8.278   9.795  0.00  0.00    +0.151 HD
ATOM     39  H   UNL     1      -8.193  -7.281   8.468  0.00  0.00    +0.156 HD
BRANCH   9  23
ATOM     23  C   UNL     1      -9.037  -7.682   6.624  0.00  0.00    +0.035 A 
ATOM     28  C   UNL     1     -10.406  -7.472   6.790  0.00  0.00    +0.023 A 
ATOM     29  C   UNL     1      -8.466  -7.587   5.354  0.00  0.00    +0.023 A 
ATOM     31  C   UNL     1     -11.204  -7.167   5.688  0.00  0.00    +0.005 A 
ATOM     32  C   UNL     1      -9.265  -7.283   4.253  0.00  0.00    +0.005 A 
ATOM     33  C   UNL     1     -10.634  -7.072   4.418  0.00  0.00    -0.050 A 
ATOM     34  C   UNL     1     -11.487  -6.745   3.241  0.00  0.00    +0.044 C 
ENDBRANCH   9  23
ENDBRANCH  13   7
BRANCH  15  17
ATOM      3  O   UNL     1      -5.849  -9.674  13.901  0.00  0.00    -0.271 OA
ATOM      8  N   UNL     1      -3.704 -10.582  13.981  0.00  0.00    -0.300 N 
ATOM     17  C   UNL     1      -4.849 -10.131  13.349  0.00  0.00    +0.241 C 
ATOM     38  H   UNL     1      -2.904 -10.857  13.418  0.00  0.00    +0.150 HD
BRANCH   8  18
ATOM     18  C   UNL     1      -3.537 -10.569  15.416  0.00  0.00    +0.163 C 
BRANCH  18  22
ATOM      5  O   UNL     1      -1.250  -9.860  14.997  0.00  0.00    -0.274 OA
ATOM     10  N   UNL     1      -1.675 -11.166  16.838  0.00  0.00    -0.328 N 
ATOM     22  C   UNL     1      -2.042 -10.492  15.693  0.00  0.00    +0.231 C 
ATOM     40  H   UNL     1      -0.708 -11.181  17.145  0.00  0.00    +0.145 HD
ATOM     41  H   UNL     1      -2.341 -11.680  17.406  0.00  0.00    +0.145 HD
ENDBRANCH  18  22
BRANCH  18  20
ATOM     20  C   UNL     1      -4.139 -11.811  16.082  0.00  0.00    +0.067 C 
BRANCH  20  21
ATOM     21  C   UNL     1      -5.208 -11.470  17.093  0.00  0.00    -0.045 A 
ATOM     24  C   UNL     1      -4.850 -11.126  18.396  0.00  0.00    +0.007 A 
ATOM     25  C   UNL     1      -6.553 -11.498  16.723  0.00  0.00    +0.007 A 
ATOM     26  C   UNL     1      -5.837 -10.810  19.330  0.00  0.00    +0.045 A 
ATOM     27  C   UNL     1      -7.539 -11.183  17.657  0.00  0.00    +0.045 A 
ATOM     30  C   UNL     1      -7.181 -10.839  18.960  0.00  0.00    +0.117 A 
BRANCH  30   6
ATOM      6  O   UNL     1      -8.145 -10.532  19.872  0.00  0.00    -0.507 OA
ATOM     42  H   UNL     1      -8.312 -11.313  20.428  0.00  0.00    +0.292 HD
ENDBRANCH  30   6
ENDBRANCH  20  21
ENDBRANCH  18  20
ENDBRANCH   8  18
ENDBRANCH  15  17
BRANCH  11   1
ATOM      1  O   UNL     1      -4.069  -8.744   9.037  0.00  0.00    -0.387 OA
ATOM     36  H   UNL     1      -3.515  -8.636   8.244  0.00  0.00    +0.210 HD
ENDBRANCH  11   1
BRANCH  12   2
ATOM      2  O   UNL     1      -3.936 -12.350   9.637  0.00  0.00    -0.389 OA
ATOM     37  H   UNL     1      -3.305 -12.880  10.154  0.00  0.00    +0.210 HD
ENDBRANCH  12   2
TORSDOF 10
ENDMDL
