MODEL 1
REMARK VINA RESULT:      -6.0      0.000      0.000
REMARK  Name = 75536938
REMARK  4 active torsions:
REMARK  status: ('A' for Active; 'I' for Inactive)
REMARK    1  A    between atoms: O_2  and  C_6
REMARK    2  A    between atoms: O_2  and  C_12
REMARK    3  A    between atoms: N_3  and  C_9
REMARK    4  A    between atoms: C_9  and  C_11
REMARK                            x       y       z     vdW  Elec       q    Type
REMARK                         _______ _______ _______ _____ _____    ______ ____
ROOT
ATOM      1  O   UNL     1      -0.017  -1.397  24.634  0.00  0.00    -0.376 OA
ATOM      3  N   UNL     1      -1.928   0.776  23.471  0.00  0.00    -0.292 NA
ATOM      5  C   UNL     1      -2.886   0.061  24.321  0.00  0.00    +0.118 C 
ATOM      6  C   UNL     1      -2.360  -1.107  25.171  0.00  0.00    +0.157 C 
ATOM      7  C   UNL     1      -0.599   0.936  24.063  0.00  0.00    +0.113 C 
ATOM      8  C   UNL     1      -1.313  -1.967  24.475  0.00  0.00    +0.192 C 
ATOM     10  C   UNL     1       0.254  -0.301  23.772  0.00  0.00    +0.175 C 
ENDROOT
BRANCH   6   2
ATOM      2  O   UNL     1      -3.466  -1.945  25.506  0.00  0.00    -0.376 OA
ATOM     12  C   UNL     1      -3.790  -2.822  24.438  0.00  0.00    +0.194 C 
ENDBRANCH   6   2
BRANCH   3   9
ATOM      9  C   UNL     1      -2.487   2.062  23.055  0.00  0.00    +0.140 C 
BRANCH   9  11
ATOM      4  N   UNL     1      -2.342   3.518  25.000  0.00  0.00    -0.259 NA
ATOM     11  C   UNL     1      -3.147   2.784  24.199  0.00  0.00    +0.055 A 
ATOM     13  C   UNL     1      -4.517   2.667  24.375  0.00  0.00    +0.024 A 
ATOM     14  C   UNL     1      -5.097   3.347  25.440  0.00  0.00    +0.003 A 
ATOM     15  C   UNL     1      -2.940   4.165  26.024  0.00  0.00    +0.111 A 
ATOM     16  C   UNL     1      -4.300   4.113  26.286  0.00  0.00    +0.020 A 
ENDBRANCH   9  11
ENDBRANCH   3   9
TORSDOF 3
ENDMDL
MODEL 2
REMARK VINA RESULT:      -5.9     17.552     19.729
REMARK  Name = 75536938
REMARK  4 active torsions:
REMARK  status: ('A' for Active; 'I' for Inactive)
REMARK    1  A    between atoms: O_2  and  C_6
REMARK    2  A    between atoms: O_2  and  C_12
REMARK    3  A    between atoms: N_3  and  C_9
REMARK    4  A    between atoms: C_9  and  C_11
REMARK                            x       y       z     vdW  Elec       q    Type
REMARK                         _______ _______ _______ _____ _____    ______ ____
ROOT
ATOM      1  O   UNL     1      12.774  10.823  19.606  0.00  0.00    -0.376 OA
ATOM      3  N   UNL     1      14.176   8.058  19.268  0.00  0.00    -0.292 NA
ATOM      5  C   UNL     1      12.801   7.592  19.482  0.00  0.00    +0.118 C 
ATOM      6  C   UNL     1      11.701   8.653  19.646  0.00  0.00    +0.157 C 
ATOM      7  C   UNL     1      14.284   9.256  18.435  0.00  0.00    +0.113 C 
ATOM      8  C   UNL     1      12.124   9.876  20.449  0.00  0.00    +0.192 C 
ATOM     10  C   UNL     1      14.125  10.509  19.299  0.00  0.00    +0.175 C 
ENDROOT
BRANCH   6   2
ATOM      2  O   UNL     1      10.596   8.047  20.317  0.00  0.00    -0.376 OA
ATOM     12  C   UNL     1      11.029   7.272  21.426  0.00  0.00    +0.194 C 
ENDBRANCH   6   2
BRANCH   3   9
ATOM      9  C   UNL     1      15.001   6.967  18.749  0.00  0.00    +0.140 C 
BRANCH   9  11
ATOM      4  N   UNL     1      16.424   7.591  20.623  0.00  0.00    -0.259 NA
ATOM     11  C   UNL     1      16.284   6.816  19.524  0.00  0.00    +0.055 A 
ATOM     13  C   UNL     1      17.238   5.912  19.086  0.00  0.00    +0.024 A 
ATOM     14  C   UNL     1      18.411   5.795  19.823  0.00  0.00    +0.003 A 
ATOM     15  C   UNL     1      17.576   7.450  21.315  0.00  0.00    +0.111 A 
ATOM     16  C   UNL     1      18.592   6.576  20.961  0.00  0.00    +0.020 A 
ENDBRANCH   9  11
ENDBRANCH   3   9
TORSDOF 3
ENDMDL
MODEL 3
REMARK VINA RESULT:      -5.7     18.919     20.506
REMARK  Name = 75536938
REMARK  4 active torsions:
REMARK  status: ('A' for Active; 'I' for Inactive)
REMARK    1  A    between atoms: O_2  and  C_6
REMARK    2  A    between atoms: O_2  and  C_12
REMARK    3  A    between atoms: N_3  and  C_9
REMARK    4  A    between atoms: C_9  and  C_11
REMARK                            x       y       z     vdW  Elec       q    Type
REMARK                         _______ _______ _______ _____ _____    ______ ____
ROOT
ATOM      1  O   UNL     1      14.312  10.990  17.982  0.00  0.00    -0.376 OA
ATOM      3  N   UNL     1      13.989   8.084  19.067  0.00  0.00    -0.292 NA
ATOM      5  C   UNL     1      13.723   7.828  17.647  0.00  0.00    +0.118 C 
ATOM      6  C   UNL     1      13.831   9.011  16.672  0.00  0.00    +0.157 C 
ATOM      7  C   UNL     1      15.061   9.048  19.315  0.00  0.00    +0.113 C 
ATOM      8  C   UNL     1      13.303  10.329  17.223  0.00  0.00    +0.192 C 
ATOM     10  C   UNL     1      14.499  10.471  19.291  0.00  0.00    +0.175 C 
ENDROOT
BRANCH   6   2
ATOM      2  O   UNL     1      13.079   8.692  15.501  0.00  0.00    -0.376 OA
ATOM     12  C   UNL     1      11.804   9.314  15.521  0.00  0.00    +0.194 C 
ENDBRANCH   6   2
BRANCH   3   9
ATOM      9  C   UNL     1      14.230   6.823  19.768  0.00  0.00    +0.140 C 
BRANCH   9  11
ATOM      4  N   UNL     1      16.317   5.975  18.846  0.00  0.00    -0.259 NA
ATOM     11  C   UNL     1      15.701   6.532  19.912  0.00  0.00    +0.055 A 
ATOM     13  C   UNL     1      16.340   6.843  21.102  0.00  0.00    +0.024 A 
ATOM     14  C   UNL     1      17.698   6.563  21.203  0.00  0.00    +0.003 A 
ATOM     15  C   UNL     1      17.637   5.718  18.980  0.00  0.00    +0.111 A 
ATOM     16  C   UNL     1      18.367   5.989  20.127  0.00  0.00    +0.020 A 
ENDBRANCH   9  11
ENDBRANCH   3   9
TORSDOF 3
ENDMDL
MODEL 4
REMARK VINA RESULT:      -5.7     16.607     17.590
REMARK  Name = 75536938
REMARK  4 active torsions:
REMARK  status: ('A' for Active; 'I' for Inactive)
REMARK    1  A    between atoms: O_2  and  C_6
REMARK    2  A    between atoms: O_2  and  C_12
REMARK    3  A    between atoms: N_3  and  C_9
REMARK    4  A    between atoms: C_9  and  C_11
REMARK                            x       y       z     vdW  Elec       q    Type
REMARK                         _______ _______ _______ _____ _____    ______ ____
ROOT
ATOM      1  O   UNL     1      14.984   7.608  19.542  0.00  0.00    -0.376 OA
ATOM      3  N   UNL     1      12.428   8.494  21.093  0.00  0.00    -0.292 NA
ATOM      5  C   UNL     1      11.785   7.902  19.914  0.00  0.00    +0.118 C 
ATOM      6  C   UNL     1      12.690   7.256  18.852  0.00  0.00    +0.157 C 
ATOM      7  C   UNL     1      13.593   7.755  21.579  0.00  0.00    +0.113 C 
ATOM      8  C   UNL     1      13.993   8.003  18.599  0.00  0.00    +0.192 C 
ATOM     10  C   UNL     1      14.847   8.202  20.825  0.00  0.00    +0.175 C 
ENDROOT
BRANCH   6   2
ATOM      2  O   UNL     1      11.965   7.205  17.623  0.00  0.00    -0.376 OA
ATOM     12  C   UNL     1      11.475   8.486  17.261  0.00  0.00    +0.194 C 
ENDBRANCH   6   2
BRANCH   3   9
ATOM      9  C   UNL     1      11.441   8.698  22.154  0.00  0.00    +0.140 C 
BRANCH   9  11
ATOM      4  N   UNL     1      10.937  10.436  23.781  0.00  0.00    -0.259 NA
ATOM     11  C   UNL     1      11.290  10.154  22.507  0.00  0.00    +0.055 A 
ATOM     13  C   UNL     1      11.514  11.114  21.533  0.00  0.00    +0.024 A 
ATOM     14  C   UNL     1      11.367  12.450  21.891  0.00  0.00    +0.003 A 
ATOM     15  C   UNL     1      10.803  11.745  24.092  0.00  0.00    +0.111 A 
ATOM     16  C   UNL     1      11.005  12.780  23.193  0.00  0.00    +0.020 A 
ENDBRANCH   9  11
ENDBRANCH   3   9
TORSDOF 3
ENDMDL
MODEL 5
REMARK VINA RESULT:      -5.6     17.347     19.204
REMARK  Name = 75536938
REMARK  4 active torsions:
REMARK  status: ('A' for Active; 'I' for Inactive)
REMARK    1  A    between atoms: O_2  and  C_6
REMARK    2  A    between atoms: O_2  and  C_12
REMARK    3  A    between atoms: N_3  and  C_9
REMARK    4  A    between atoms: C_9  and  C_11
REMARK                            x       y       z     vdW  Elec       q    Type
REMARK                         _______ _______ _______ _____ _____    ______ ____
ROOT
ATOM      1  O   UNL     1      15.300  11.235  17.756  0.00  0.00    -0.376 OA
ATOM      3  N   UNL     1      13.243   8.897  17.925  0.00  0.00    -0.292 NA
ATOM      5  C   UNL     1      13.165   9.166  16.485  0.00  0.00    +0.118 C 
ATOM      6  C   UNL     1      14.088  10.250  15.906  0.00  0.00    +0.157 C 
ATOM      7  C   UNL     1      14.594   8.981  18.482  0.00  0.00    +0.113 C 
ATOM      8  C   UNL     1      14.267  11.467  16.803  0.00  0.00    +0.192 C 
ATOM     10  C   UNL     1      14.914  10.429  18.860  0.00  0.00    +0.175 C 
ENDROOT
BRANCH   6   2
ATOM      2  O   UNL     1      13.531  10.693  14.668  0.00  0.00    -0.376 OA
ATOM     12  C   UNL     1      13.860  12.049  14.411  0.00  0.00    +0.194 C 
ENDBRANCH   6   2
BRANCH   3   9
ATOM      9  C   UNL     1      12.616   7.612  18.232  0.00  0.00    +0.140 C 
BRANCH   9  11
ATOM      4  N   UNL     1      11.908   6.450  20.250  0.00  0.00    -0.259 NA
ATOM     11  C   UNL     1      11.943   7.623  19.579  0.00  0.00    +0.055 A 
ATOM     13  C   UNL     1      11.404   8.807  20.058  0.00  0.00    +0.024 A 
ATOM     14  C   UNL     1      10.790   8.785  21.305  0.00  0.00    +0.003 A 
ATOM     15  C   UNL     1      11.304   6.467  21.459  0.00  0.00    +0.111 A 
ATOM     16  C   UNL     1      10.734   7.596  22.026  0.00  0.00    +0.020 A 
ENDBRANCH   9  11
ENDBRANCH   3   9
TORSDOF 3
ENDMDL
MODEL 6
REMARK VINA RESULT:      -5.4     18.147     19.808
REMARK  Name = 75536938
REMARK  4 active torsions:
REMARK  status: ('A' for Active; 'I' for Inactive)
REMARK    1  A    between atoms: O_2  and  C_6
REMARK    2  A    between atoms: O_2  and  C_12
REMARK    3  A    between atoms: N_3  and  C_9
REMARK    4  A    between atoms: C_9  and  C_11
REMARK                            x       y       z     vdW  Elec       q    Type
REMARK                         _______ _______ _______ _____ _____    ______ ____
ROOT
ATOM      1  O   UNL     1      16.858   8.943  21.905  0.00  0.00    -0.376 OA
ATOM      3  N   UNL     1      14.736   7.617  20.045  0.00  0.00    -0.292 NA
ATOM      5  C   UNL     1      15.797   6.610  19.934  0.00  0.00    +0.118 C 
ATOM      6  C   UNL     1      17.074   6.819  20.763  0.00  0.00    +0.157 C 
ATOM      7  C   UNL     1      14.568   8.172  21.388  0.00  0.00    +0.113 C 
ATOM      8  C   UNL     1      17.535   8.268  20.850  0.00  0.00    +0.192 C 
ATOM     10  C   UNL     1      15.531   9.343  21.593  0.00  0.00    +0.175 C 
ENDROOT
BRANCH   6   2
ATOM      2  O   UNL     1      18.123   6.058  20.163  0.00  0.00    -0.376 OA
ATOM     12  C   UNL     1      17.751   5.598  18.872  0.00  0.00    +0.194 C 
ENDBRANCH   6   2
BRANCH   3   9
ATOM      9  C   UNL     1      13.478   7.081  19.525  0.00  0.00    +0.140 C 
BRANCH   9  11
ATOM      4  N   UNL     1      11.660   7.843  18.097  0.00  0.00    -0.259 NA
ATOM     11  C   UNL     1      12.992   7.852  18.326  0.00  0.00    +0.055 A 
ATOM     13  C   UNL     1      13.911   8.519  17.532  0.00  0.00    +0.024 A 
ATOM     14  C   UNL     1      13.431   9.223  16.433  0.00  0.00    +0.003 A 
ATOM     15  C   UNL     1      11.230   8.537  17.020  0.00  0.00    +0.111 A 
ATOM     16  C   UNL     1      12.066   9.237  16.164  0.00  0.00    +0.020 A 
ENDBRANCH   9  11
ENDBRANCH   3   9
TORSDOF 3
ENDMDL
MODEL 7
REMARK VINA RESULT:      -5.4     16.285     18.281
REMARK  Name = 75536938
REMARK  4 active torsions:
REMARK  status: ('A' for Active; 'I' for Inactive)
REMARK    1  A    between atoms: O_2  and  C_6
REMARK    2  A    between atoms: O_2  and  C_12
REMARK    3  A    between atoms: N_3  and  C_9
REMARK    4  A    between atoms: C_9  and  C_11
REMARK                            x       y       z     vdW  Elec       q    Type
REMARK                         _______ _______ _______ _____ _____    ______ ____
ROOT
ATOM      1  O   UNL     1      10.954   9.233  23.162  0.00  0.00    -0.376 OA
ATOM      3  N   UNL     1      12.187   8.502  20.393  0.00  0.00    -0.292 NA
ATOM      5  C   UNL     1      13.140   9.540  20.800  0.00  0.00    +0.118 C 
ATOM      6  C   UNL     1      12.958  10.178  22.186  0.00  0.00    +0.157 C 
ATOM      7  C   UNL     1      11.761   7.616  21.477  0.00  0.00    +0.113 C 
ATOM      8  C   UNL     1      11.507  10.411  22.584  0.00  0.00    +0.192 C 
ATOM     10  C   UNL     1      10.578   8.236  22.223  0.00  0.00    +0.175 C 
ENDROOT
BRANCH   6   2
ATOM      2  O   UNL     1      13.623  11.442  22.184  0.00  0.00    -0.376 OA
ATOM     12  C   UNL     1      14.994  11.303  22.525  0.00  0.00    +0.194 C 
ENDBRANCH   6   2
BRANCH   3   9
ATOM      9  C   UNL     1      12.721   7.745  19.261  0.00  0.00    +0.140 C 
BRANCH   9  11
ATOM      4  N   UNL     1      10.947   8.147  17.643  0.00  0.00    -0.259 NA
ATOM     11  C   UNL     1      12.256   8.305  17.942  0.00  0.00    +0.055 A 
ATOM     13  C   UNL     1      13.169   8.941  17.116  0.00  0.00    +0.024 A 
ATOM     14  C   UNL     1      12.709   9.448  15.907  0.00  0.00    +0.003 A 
ATOM     15  C   UNL     1      10.536   8.653  16.459  0.00  0.00    +0.111 A 
ATOM     16  C   UNL     1      11.368   9.305  15.563  0.00  0.00    +0.020 A 
ENDBRANCH   9  11
ENDBRANCH   3   9
TORSDOF 3
ENDMDL
MODEL 8
REMARK VINA RESULT:      -5.3     23.206     25.180
REMARK  Name = 75536938
REMARK  4 active torsions:
REMARK  status: ('A' for Active; 'I' for Inactive)
REMARK    1  A    between atoms: O_2  and  C_6
REMARK    2  A    between atoms: O_2  and  C_12
REMARK    3  A    between atoms: N_3  and  C_9
REMARK    4  A    between atoms: C_9  and  C_11
REMARK                            x       y       z     vdW  Elec       q    Type
REMARK                         _______ _______ _______ _____ _____    ______ ____
ROOT
ATOM      1  O   UNL     1      11.179   7.466   7.270  0.00  0.00    -0.376 OA
ATOM      3  N   UNL     1      10.823   5.762   4.683  0.00  0.00    -0.292 NA
ATOM      5  C   UNL     1      10.147   4.874   5.636  0.00  0.00    +0.118 C 
ATOM      6  C   UNL     1      10.020   5.348   7.093  0.00  0.00    +0.157 C 
ATOM      7  C   UNL     1      10.560   7.186   4.895  0.00  0.00    +0.113 C 
ATOM      8  C   UNL     1      11.243   6.087   7.621  0.00  0.00    +0.192 C 
ATOM     10  C   UNL     1      11.539   7.750   5.926  0.00  0.00    +0.175 C 
ENDROOT
BRANCH   6   2
ATOM      2  O   UNL     1       9.810   4.201   7.916  0.00  0.00    -0.376 OA
ATOM     12  C   UNL     1       9.447   4.573   9.237  0.00  0.00    +0.194 C 
ENDBRANCH   6   2
BRANCH   3   9
ATOM      9  C   UNL     1      10.513   5.357   3.312  0.00  0.00    +0.140 C 
BRANCH   9  11
ATOM      4  N   UNL     1      11.727   3.513   2.288  0.00  0.00    -0.259 NA
ATOM     11  C   UNL     1      11.728   4.830   2.595  0.00  0.00    +0.055 A 
ATOM     13  C   UNL     1      12.764   5.697   2.289  0.00  0.00    +0.024 A 
ATOM     14  C   UNL     1      13.871   5.179   1.625  0.00  0.00    +0.003 A 
ATOM     15  C   UNL     1      12.819   3.045   1.643  0.00  0.00    +0.111 A 
ATOM     16  C   UNL     1      13.907   3.829   1.293  0.00  0.00    +0.020 A 
ENDBRANCH   9  11
ENDBRANCH   3   9
TORSDOF 3
ENDMDL
MODEL 9
REMARK VINA RESULT:      -5.3     16.041     17.668
REMARK  Name = 75536938
REMARK  4 active torsions:
REMARK  status: ('A' for Active; 'I' for Inactive)
REMARK    1  A    between atoms: O_2  and  C_6
REMARK    2  A    between atoms: O_2  and  C_12
REMARK    3  A    between atoms: N_3  and  C_9
REMARK    4  A    between atoms: C_9  and  C_11
REMARK                            x       y       z     vdW  Elec       q    Type
REMARK                         _______ _______ _______ _____ _____    ______ ____
ROOT
ATOM      1  O   UNL     1      11.655   6.228  20.586  0.00  0.00    -0.376 OA
ATOM      3  N   UNL     1      11.958   9.299  21.032  0.00  0.00    -0.292 NA
ATOM      5  C   UNL     1      12.816   9.155  19.851  0.00  0.00    +0.118 C 
ATOM      6  C   UNL     1      12.930   7.761  19.213  0.00  0.00    +0.157 C 
ATOM      7  C   UNL     1      10.742   8.486  20.997  0.00  0.00    +0.113 C 
ATOM      8  C   UNL     1      12.974   6.614  20.214  0.00  0.00    +0.192 C 
ATOM     10  C   UNL     1      11.035   7.084  21.534  0.00  0.00    +0.175 C 
ENDROOT
BRANCH   6   2
ATOM      2  O   UNL     1      14.133   7.721  18.445  0.00  0.00    -0.376 OA
ATOM     12  C   UNL     1      13.916   8.188  17.122  0.00  0.00    +0.194 C 
ENDBRANCH   6   2
BRANCH   3   9
ATOM      9  C   UNL     1      11.653  10.711  21.263  0.00  0.00    +0.140 C 
BRANCH   9  11
ATOM      4  N   UNL     1      13.220  11.485  22.957  0.00  0.00    -0.259 NA
ATOM     11  C   UNL     1      11.946  11.124  22.681  0.00  0.00    +0.055 A 
ATOM     13  C   UNL     1      10.923  11.116  23.615  0.00  0.00    +0.024 A 
ATOM     14  C   UNL     1      11.225  11.503  24.915  0.00  0.00    +0.003 A 
ATOM     15  C   UNL     1      13.476  11.856  24.232  0.00  0.00    +0.111 A 
ATOM     16  C   UNL     1      12.524  11.882  25.238  0.00  0.00    +0.020 A 
ENDBRANCH   9  11
ENDBRANCH   3   9
TORSDOF 3
ENDMDL
MODEL 10
REMARK VINA RESULT:      -5.2     16.368     17.897
REMARK  Name = 75536938
REMARK  4 active torsions:
REMARK  status: ('A' for Active; 'I' for Inactive)
REMARK    1  A    between atoms: O_2  and  C_6
REMARK    2  A    between atoms: O_2  and  C_12
REMARK    3  A    between atoms: N_3  and  C_9
REMARK    4  A    between atoms: C_9  and  C_11
REMARK                            x       y       z     vdW  Elec       q    Type
REMARK                         _______ _______ _______ _____ _____    ______ ____
ROOT
ATOM      1  O   UNL     1      14.485   6.818  19.229  0.00  0.00    -0.376 OA
ATOM      3  N   UNL     1      13.869   9.078  21.287  0.00  0.00    -0.292 NA
ATOM      5  C   UNL     1      12.737   8.192  21.576  0.00  0.00    +0.118 C 
ATOM      6  C   UNL     1      12.651   6.863  20.809  0.00  0.00    +0.157 C 
ATOM      7  C   UNL     1      15.130   8.381  21.030  0.00  0.00    +0.113 C 
ATOM      8  C   UNL     1      13.072   6.954  19.348  0.00  0.00    +0.192 C 
ATOM     10  C   UNL     1      15.219   7.990  19.554  0.00  0.00    +0.175 C 
ENDROOT
BRANCH   6   2
ATOM      2  O   UNL     1      11.297   6.413  20.850  0.00  0.00    -0.376 OA
ATOM     12  C   UNL     1      10.542   7.137  21.810  0.00  0.00    +0.194 C 
ENDBRANCH   6   2
BRANCH   3   9
ATOM      9  C   UNL     1      14.014  10.073  22.350  0.00  0.00    +0.140 C 
BRANCH   9  11
ATOM      4  N   UNL     1      12.131  11.182  23.423  0.00  0.00    -0.259 NA
ATOM     11  C   UNL     1      12.906  11.092  22.319  0.00  0.00    +0.055 A 
ATOM     13  C   UNL     1      12.736  11.874  21.187  0.00  0.00    +0.024 A 
ATOM     14  C   UNL     1      11.705  12.807  21.190  0.00  0.00    +0.003 A 
ATOM     15  C   UNL     1      11.139  12.099  23.390  0.00  0.00    +0.111 A 
ATOM     16  C   UNL     1      10.886  12.928  22.308  0.00  0.00    +0.020 A 
ENDBRANCH   9  11
ENDBRANCH   3   9
TORSDOF 3
ENDMDL
