MODEL 1
REMARK VINA RESULT:      -6.4      0.000      0.000
REMARK  Name = 45783276
REMARK  10 active torsions:
REMARK  status: ('A' for Active; 'I' for Inactive)
REMARK    1  A    between atoms: O_2  and  C_24
REMARK    2  A    between atoms: O_2  and  C_25
REMARK    3  A    between atoms: N_3  and  C_12
REMARK    4  A    between atoms: N_6  and  C_23
REMARK    5  A    between atoms: C_8  and  C_14
REMARK    6  A    between atoms: C_12  and  C_13
REMARK    7  A    between atoms: C_13  and  C_15
REMARK    8  A    between atoms: C_13  and  C_16
REMARK    9  A    between atoms: C_17  and  C_18
REMARK   10  A    between atoms: C_23  and  C_24
REMARK                            x       y       z     vdW  Elec       q    Type
REMARK                         _______ _______ _______ _____ _____    ______ ____
ROOT
ATOM      1  O   UNL     1      16.169   5.876  18.667  0.00  0.00    -0.336 OA
ATOM      4  N   UNL     1      16.383   7.290  20.391  0.00  0.00    -0.190 NA
ATOM      5  N   UNL     1      17.488   5.745  19.117  0.00  0.00    -0.056 NA
ATOM     14  C   UNL     1      15.587   6.805  19.471  0.00  0.00    +0.245 A 
ATOM     17  C   UNL     1      17.537   6.610  20.135  0.00  0.00    +0.202 A 
ENDROOT
BRANCH  17  18
ATOM      6  N   UNL     1      21.822   5.076  21.786  0.00  0.00    -0.327 N 
ATOM      7  N   UNL     1      21.038   7.232  22.426  0.00  0.00    -0.240 NA
ATOM     18  C   UNL     1      18.724   6.820  20.913  0.00  0.00    +0.027 A 
ATOM     19  C   UNL     1      19.704   5.836  20.971  0.00  0.00    +0.055 A 
ATOM     20  C   UNL     1      18.898   8.011  21.611  0.00  0.00    +0.031 A 
ATOM     21  C   UNL     1      20.833   6.089  21.735  0.00  0.00    +0.119 A 
ATOM     22  C   UNL     1      20.063   8.166  22.346  0.00  0.00    +0.113 A 
ATOM     26  H   UNL     1      22.644   5.275  22.344  0.00  0.00    +0.148 HD
BRANCH   6  23
ATOM     23  C   UNL     1      21.693   3.837  21.090  0.00  0.00    +0.131 C 
BRANCH  23  24
ATOM     24  C   UNL     1      22.992   3.056  21.173  0.00  0.00    +0.178 C 
BRANCH  24   2
ATOM      2  O   UNL     1      24.090   3.942  20.993  0.00  0.00    -0.381 OA
ATOM     25  C   UNL     1      24.723   3.738  19.737  0.00  0.00    +0.194 C 
ENDBRANCH  24   2
ENDBRANCH  23  24
ENDBRANCH   6  23
ENDBRANCH  17  18
BRANCH  14   8
ATOM      3  N   UNL     1      13.588   8.136  20.118  0.00  0.00    -0.291 NA
ATOM      8  C   UNL     1      14.136   7.131  19.186  0.00  0.00    +0.146 C 
ATOM      9  C   UNL     1      13.927   7.736  17.787  0.00  0.00    +0.030 C 
ATOM     10  C   UNL     1      12.547   8.856  19.382  0.00  0.00    +0.085 C 
ATOM     11  C   UNL     1      13.200   9.052  18.028  0.00  0.00    +0.017 C 
BRANCH   3  12
ATOM     12  C   UNL     1      13.082   7.557  21.356  0.00  0.00    +0.088 C 
BRANCH  12  13
ATOM     13  C   UNL     1      11.561   7.333  21.322  0.00  0.00    -0.003 C 
ATOM     15  C   UNL     1      11.255   5.842  21.485  0.00  0.00    +0.008 C 
ATOM     16  C   UNL     1      10.826   8.131  22.403  0.00  0.00    +0.008 C 
ENDBRANCH  12  13
ENDBRANCH   3  12
ENDBRANCH  14   8
TORSDOF 7
ENDMDL
MODEL 2
REMARK VINA RESULT:      -6.2     27.181     29.596
REMARK  Name = 45783276
REMARK  10 active torsions:
REMARK  status: ('A' for Active; 'I' for Inactive)
REMARK    1  A    between atoms: O_2  and  C_24
REMARK    2  A    between atoms: O_2  and  C_25
REMARK    3  A    between atoms: N_3  and  C_12
REMARK    4  A    between atoms: N_6  and  C_23
REMARK    5  A    between atoms: C_8  and  C_14
REMARK    6  A    between atoms: C_12  and  C_13
REMARK    7  A    between atoms: C_13  and  C_15
REMARK    8  A    between atoms: C_13  and  C_16
REMARK    9  A    between atoms: C_17  and  C_18
REMARK   10  A    between atoms: C_23  and  C_24
REMARK                            x       y       z     vdW  Elec       q    Type
REMARK                         _______ _______ _______ _____ _____    ______ ____
ROOT
ATOM      1  O   UNL     1      -2.372 -10.644  14.769  0.00  0.00    -0.336 OA
ATOM      4  N   UNL     1      -4.605 -10.819  14.742  0.00  0.00    -0.190 NA
ATOM      5  N   UNL     1      -2.783 -10.584  16.106  0.00  0.00    -0.056 NA
ATOM     14  C   UNL     1      -3.505 -10.783  14.032  0.00  0.00    +0.245 A 
ATOM     17  C   UNL     1      -4.112 -10.694  16.008  0.00  0.00    +0.202 A 
ENDROOT
BRANCH  17  18
ATOM      6  N   UNL     1      -8.270  -9.426  18.139  0.00  0.00    -0.327 N 
ATOM      7  N   UNL     1      -6.656 -10.657  19.386  0.00  0.00    -0.240 NA
ATOM     18  C   UNL     1      -4.974 -10.680  17.154  0.00  0.00    +0.027 A 
ATOM     19  C   UNL     1      -6.213 -10.053  17.088  0.00  0.00    +0.055 A 
ATOM     20  C   UNL     1      -4.574 -11.295  18.336  0.00  0.00    +0.031 A 
ATOM     21  C   UNL     1      -7.010 -10.070  18.221  0.00  0.00    +0.119 A 
ATOM     22  C   UNL     1      -5.444 -11.256  19.413  0.00  0.00    +0.113 A 
ATOM     26  H   UNL     1      -8.845  -9.448  18.973  0.00  0.00    +0.148 HD
BRANCH   6  23
ATOM     23  C   UNL     1      -8.728  -8.780  16.952  0.00  0.00    +0.131 C 
BRANCH  23  24
ATOM     24  C   UNL     1      -9.897  -7.866  17.276  0.00  0.00    +0.178 C 
BRANCH  24   2
ATOM      2  O   UNL     1     -10.248  -7.118  16.118  0.00  0.00    -0.381 OA
ATOM     25  C   UNL     1     -10.567  -7.968  15.024  0.00  0.00    +0.194 C 
ENDBRANCH  24   2
ENDBRANCH  23  24
ENDBRANCH   6  23
ENDBRANCH  17  18
BRANCH  14   8
ATOM      3  N   UNL     1      -4.146  -9.883  11.802  0.00  0.00    -0.291 NA
ATOM      8  C   UNL     1      -3.328 -10.873  12.531  0.00  0.00    +0.146 C 
ATOM      9  C   UNL     1      -1.882 -10.591  12.085  0.00  0.00    +0.030 C 
ATOM     10  C   UNL     1      -3.422  -9.577  10.568  0.00  0.00    +0.085 C 
ATOM     11  C   UNL     1      -1.993  -9.469  11.062  0.00  0.00    +0.017 C 
BRANCH   3  12
ATOM     12  C   UNL     1      -5.505 -10.341  11.542  0.00  0.00    +0.088 C 
BRANCH  12  13
ATOM     13  C   UNL     1      -6.553  -9.244  11.793  0.00  0.00    -0.003 C 
ATOM     15  C   UNL     1      -7.341  -8.978  10.508  0.00  0.00    +0.008 C 
ATOM     16  C   UNL     1      -7.520  -9.604  12.925  0.00  0.00    +0.008 C 
ENDBRANCH  12  13
ENDBRANCH   3  12
ENDBRANCH  14   8
TORSDOF 7
ENDMDL
MODEL 3
REMARK VINA RESULT:      -5.8      4.275      7.765
REMARK  Name = 45783276
REMARK  10 active torsions:
REMARK  status: ('A' for Active; 'I' for Inactive)
REMARK    1  A    between atoms: O_2  and  C_24
REMARK    2  A    between atoms: O_2  and  C_25
REMARK    3  A    between atoms: N_3  and  C_12
REMARK    4  A    between atoms: N_6  and  C_23
REMARK    5  A    between atoms: C_8  and  C_14
REMARK    6  A    between atoms: C_12  and  C_13
REMARK    7  A    between atoms: C_13  and  C_15
REMARK    8  A    between atoms: C_13  and  C_16
REMARK    9  A    between atoms: C_17  and  C_18
REMARK   10  A    between atoms: C_23  and  C_24
REMARK                            x       y       z     vdW  Elec       q    Type
REMARK                         _______ _______ _______ _____ _____    ______ ____
ROOT
ATOM      1  O   UNL     1      13.082   9.751  15.029  0.00  0.00    -0.336 OA
ATOM      4  N   UNL     1      13.564  10.510  17.081  0.00  0.00    -0.190 NA
ATOM      5  N   UNL     1      12.604   8.786  15.923  0.00  0.00    -0.056 NA
ATOM     14  C   UNL     1      13.632  10.732  15.792  0.00  0.00    +0.245 A 
ATOM     17  C   UNL     1      12.925   9.305  17.113  0.00  0.00    +0.202 A 
ENDROOT
BRANCH  17  18
ATOM      6  N   UNL     1      14.254   6.485  20.817  0.00  0.00    -0.327 N 
ATOM      7  N   UNL     1      12.040   7.361  20.763  0.00  0.00    -0.240 NA
ATOM     18  C   UNL     1      12.625   8.644  18.350  0.00  0.00    +0.027 A 
ATOM     19  C   UNL     1      13.595   7.879  18.986  0.00  0.00    +0.055 A 
ATOM     20  C   UNL     1      11.362   8.769  18.918  0.00  0.00    +0.031 A 
ATOM     21  C   UNL     1      13.256   7.263  20.181  0.00  0.00    +0.119 A 
ATOM     22  C   UNL     1      11.122   8.114  20.115  0.00  0.00    +0.113 A 
ATOM     26  H   UNL     1      13.995   6.044  21.692  0.00  0.00    +0.148 HD
BRANCH   6  23
ATOM     23  C   UNL     1      15.565   6.324  20.277  0.00  0.00    +0.131 C 
BRANCH  23  24
ATOM     24  C   UNL     1      16.581   7.029  21.159  0.00  0.00    +0.178 C 
BRANCH  24   2
ATOM      2  O   UNL     1      17.801   6.298  21.152  0.00  0.00    -0.381 OA
ATOM     25  C   UNL     1      18.236   6.020  19.828  0.00  0.00    +0.194 C 
ENDBRANCH  24   2
ENDBRANCH  23  24
ENDBRANCH   6  23
ENDBRANCH  17  18
BRANCH  14   8
ATOM      3  N   UNL     1      15.562  11.612  14.491  0.00  0.00    -0.291 NA
ATOM      8  C   UNL     1      14.229  11.910  15.051  0.00  0.00    +0.146 C 
ATOM      9  C   UNL     1      13.382  12.341  13.840  0.00  0.00    +0.030 C 
ATOM     10  C   UNL     1      15.704  12.448  13.298  0.00  0.00    +0.085 C 
ATOM     11  C   UNL     1      14.338  12.313  12.656  0.00  0.00    +0.017 C 
BRANCH   3  12
ATOM     12  C   UNL     1      16.645  11.825  15.442  0.00  0.00    +0.088 C 
BRANCH  12  13
ATOM     13  C   UNL     1      17.864  12.509  14.800  0.00  0.00    -0.003 C 
ATOM     15  C   UNL     1      18.349  13.650  15.699  0.00  0.00    +0.008 C 
ATOM     16  C   UNL     1      19.015  11.534  14.540  0.00  0.00    +0.008 C 
ENDBRANCH  12  13
ENDBRANCH   3  12
ENDBRANCH  14   8
TORSDOF 7
ENDMDL
MODEL 4
REMARK VINA RESULT:      -5.8      2.377      3.542
REMARK  Name = 45783276
REMARK  10 active torsions:
REMARK  status: ('A' for Active; 'I' for Inactive)
REMARK    1  A    between atoms: O_2  and  C_24
REMARK    2  A    between atoms: O_2  and  C_25
REMARK    3  A    between atoms: N_3  and  C_12
REMARK    4  A    between atoms: N_6  and  C_23
REMARK    5  A    between atoms: C_8  and  C_14
REMARK    6  A    between atoms: C_12  and  C_13
REMARK    7  A    between atoms: C_13  and  C_15
REMARK    8  A    between atoms: C_13  and  C_16
REMARK    9  A    between atoms: C_17  and  C_18
REMARK   10  A    between atoms: C_23  and  C_24
REMARK                            x       y       z     vdW  Elec       q    Type
REMARK                         _______ _______ _______ _____ _____    ______ ____
ROOT
ATOM      1  O   UNL     1      15.388   6.743  18.863  0.00  0.00    -0.336 OA
ATOM      4  N   UNL     1      16.720   7.858  20.277  0.00  0.00    -0.190 NA
ATOM      5  N   UNL     1      16.498   5.919  19.083  0.00  0.00    -0.056 NA
ATOM     14  C   UNL     1      15.598   7.864  19.602  0.00  0.00    +0.245 A 
ATOM     17  C   UNL     1      17.238   6.645  19.927  0.00  0.00    +0.202 A 
ENDROOT
BRANCH  17  18
ATOM      6  N   UNL     1      20.852   6.965  23.132  0.00  0.00    -0.327 N 
ATOM      7  N   UNL     1      20.953   5.298  21.433  0.00  0.00    -0.240 NA
ATOM     18  C   UNL     1      18.498   6.190  20.437  0.00  0.00    +0.027 A 
ATOM     19  C   UNL     1      19.066   6.805  21.546  0.00  0.00    +0.055 A 
ATOM     20  C   UNL     1      19.156   5.129  19.824  0.00  0.00    +0.031 A 
ATOM     21  C   UNL     1      20.285   6.326  22.002  0.00  0.00    +0.119 A 
ATOM     22  C   UNL     1      20.370   4.724  20.357  0.00  0.00    +0.113 A 
ATOM     26  H   UNL     1      21.741   6.603  23.458  0.00  0.00    +0.148 HD
BRANCH   6  23
ATOM     23  C   UNL     1      20.219   8.057  23.798  0.00  0.00    +0.131 C 
BRANCH  23  24
ATOM     24  C   UNL     1      21.026   9.327  23.595  0.00  0.00    +0.178 C 
BRANCH  24   2
ATOM      2  O   UNL     1      20.151  10.449  23.589  0.00  0.00    -0.381 OA
ATOM     25  C   UNL     1      19.263  10.412  22.480  0.00  0.00    +0.194 C 
ENDBRANCH  24   2
ENDBRANCH  23  24
ENDBRANCH   6  23
ENDBRANCH  17  18
BRANCH  14   8
ATOM      3  N   UNL     1      14.075   9.367  20.872  0.00  0.00    -0.291 NA
ATOM      8  C   UNL     1      14.523   8.928  19.535  0.00  0.00    +0.146 C 
ATOM      9  C   UNL     1      15.003  10.215  18.840  0.00  0.00    +0.030 C 
ATOM     10  C   UNL     1      13.644  10.758  20.727  0.00  0.00    +0.085 C 
ATOM     11  C   UNL     1      14.730  11.331  19.839  0.00  0.00    +0.017 C 
BRANCH   3  12
ATOM     12  C   UNL     1      13.027   8.524  21.433  0.00  0.00    +0.088 C 
BRANCH  12  13
ATOM     13  C   UNL     1      11.626   9.133  21.255  0.00  0.00    -0.003 C 
ATOM     15  C   UNL     1      10.892   8.416  20.118  0.00  0.00    +0.008 C 
ATOM     16  C   UNL     1      10.788   9.060  22.535  0.00  0.00    +0.008 C 
ENDBRANCH  12  13
ENDBRANCH   3  12
ENDBRANCH  14   8
TORSDOF 7
ENDMDL
MODEL 5
REMARK VINA RESULT:      -5.7     16.686     20.397
REMARK  Name = 45783276
REMARK  10 active torsions:
REMARK  status: ('A' for Active; 'I' for Inactive)
REMARK    1  A    between atoms: O_2  and  C_24
REMARK    2  A    between atoms: O_2  and  C_25
REMARK    3  A    between atoms: N_3  and  C_12
REMARK    4  A    between atoms: N_6  and  C_23
REMARK    5  A    between atoms: C_8  and  C_14
REMARK    6  A    between atoms: C_12  and  C_13
REMARK    7  A    between atoms: C_13  and  C_15
REMARK    8  A    between atoms: C_13  and  C_16
REMARK    9  A    between atoms: C_17  and  C_18
REMARK   10  A    between atoms: C_23  and  C_24
REMARK                            x       y       z     vdW  Elec       q    Type
REMARK                         _______ _______ _______ _____ _____    ______ ____
ROOT
ATOM      1  O   UNL     1      10.904   5.788  -0.017  0.00  0.00    -0.336 OA
ATOM      4  N   UNL     1      11.245   5.433   2.168  0.00  0.00    -0.190 NA
ATOM      5  N   UNL     1       9.952   6.563   0.656  0.00  0.00    -0.056 NA
ATOM     14  C   UNL     1      11.625   5.155   0.946  0.00  0.00    +0.245 A 
ATOM     17  C   UNL     1      10.217   6.300   1.940  0.00  0.00    +0.202 A 
ENDROOT
BRANCH  17  18
ATOM      6  N   UNL     1       8.978   6.445   6.617  0.00  0.00    -0.327 N 
ATOM      7  N   UNL     1       8.025   8.030   5.116  0.00  0.00    -0.240 NA
ATOM     18  C   UNL     1       9.472   6.886   3.017  0.00  0.00    +0.027 A 
ATOM     19  C   UNL     1       9.589   6.375   4.304  0.00  0.00    +0.055 A 
ATOM     20  C   UNL     1       8.633   7.968   2.777  0.00  0.00    +0.031 A 
ATOM     21  C   UNL     1       8.851   6.978   5.311  0.00  0.00    +0.119 A 
ATOM     22  C   UNL     1       7.938   8.500   3.851  0.00  0.00    +0.113 A 
ATOM     26  H   UNL     1       8.436   6.897   7.345  0.00  0.00    +0.148 HD
BRANCH   6  23
ATOM     23  C   UNL     1       9.824   5.336   6.918  0.00  0.00    +0.131 C 
BRANCH  23  24
ATOM     24  C   UNL     1      10.290   5.414   8.361  0.00  0.00    +0.178 C 
BRANCH  24   2
ATOM      2  O   UNL     1       9.867   4.249   9.058  0.00  0.00    -0.381 OA
ATOM     25  C   UNL     1       9.049   4.576  10.173  0.00  0.00    +0.194 C 
ENDBRANCH  24   2
ENDBRANCH  23  24
ENDBRANCH   6  23
ENDBRANCH  17  18
BRANCH  14   8
ATOM      3  N   UNL     1      13.951   4.984   0.080  0.00  0.00    -0.291 NA
ATOM      8  C   UNL     1      12.735   4.243   0.470  0.00  0.00    +0.146 C 
ATOM      9  C   UNL     1      13.207   3.262   1.558  0.00  0.00    +0.030 C 
ATOM     10  C   UNL     1      15.080   4.087   0.329  0.00  0.00    +0.085 C 
ATOM     11  C   UNL     1      14.709   3.482   1.668  0.00  0.00    +0.017 C 
BRANCH   3  12
ATOM     12  C   UNL     1      13.919   5.455  -1.299  0.00  0.00    +0.088 C 
BRANCH  12  13
ATOM     13  C   UNL     1      14.504   4.429  -2.284  0.00  0.00    -0.003 C 
ATOM     15  C   UNL     1      13.379   3.824  -3.128  0.00  0.00    +0.008 C 
ATOM     16  C   UNL     1      15.567   5.038  -3.203  0.00  0.00    +0.008 C 
ENDBRANCH  12  13
ENDBRANCH   3  12
ENDBRANCH  14   8
TORSDOF 7
ENDMDL
MODEL 6
REMARK VINA RESULT:      -5.6      2.509      8.996
REMARK  Name = 45783276
REMARK  10 active torsions:
REMARK  status: ('A' for Active; 'I' for Inactive)
REMARK    1  A    between atoms: O_2  and  C_24
REMARK    2  A    between atoms: O_2  and  C_25
REMARK    3  A    between atoms: N_3  and  C_12
REMARK    4  A    between atoms: N_6  and  C_23
REMARK    5  A    between atoms: C_8  and  C_14
REMARK    6  A    between atoms: C_12  and  C_13
REMARK    7  A    between atoms: C_13  and  C_15
REMARK    8  A    between atoms: C_13  and  C_16
REMARK    9  A    between atoms: C_17  and  C_18
REMARK   10  A    between atoms: C_23  and  C_24
REMARK                            x       y       z     vdW  Elec       q    Type
REMARK                         _______ _______ _______ _____ _____    ______ ____
ROOT
ATOM      1  O   UNL     1      20.446   8.239  22.983  0.00  0.00    -0.336 OA
ATOM      4  N   UNL     1      19.807   6.167  22.421  0.00  0.00    -0.190 NA
ATOM      5  N   UNL     1      19.357   8.389  22.117  0.00  0.00    -0.056 NA
ATOM     14  C   UNL     1      20.645   6.900  23.109  0.00  0.00    +0.245 A 
ATOM     17  C   UNL     1      19.036   7.124  21.828  0.00  0.00    +0.202 A 
ENDROOT
BRANCH  17  18
ATOM      6  N   UNL     1      14.324   7.207  20.719  0.00  0.00    -0.327 N 
ATOM      7  N   UNL     1      15.844   6.121  19.241  0.00  0.00    -0.240 NA
ATOM     18  C   UNL     1      17.954   6.783  20.952  0.00  0.00    +0.027 A 
ATOM     19  C   UNL     1      16.654   7.164  21.266  0.00  0.00    +0.055 A 
ATOM     20  C   UNL     1      18.200   6.070  19.783  0.00  0.00    +0.031 A 
ATOM     21  C   UNL     1      15.644   6.813  20.385  0.00  0.00    +0.119 A 
ATOM     22  C   UNL     1      17.121   5.767  18.969  0.00  0.00    +0.113 A 
ATOM     26  H   UNL     1      13.595   6.947  20.065  0.00  0.00    +0.148 HD
BRANCH   6  23
ATOM     23  C   UNL     1      14.017   7.938  21.905  0.00  0.00    +0.131 C 
BRANCH  23  24
ATOM     24  C   UNL     1      12.610   8.505  21.816  0.00  0.00    +0.178 C 
BRANCH  24   2
ATOM      2  O   UNL     1      12.354   8.930  20.483  0.00  0.00    -0.381 OA
ATOM     25  C   UNL     1      11.047   8.567  20.062  0.00  0.00    +0.194 C 
ENDBRANCH  24   2
ENDBRANCH  23  24
ENDBRANCH   6  23
ENDBRANCH  17  18
BRANCH  14   8
ATOM      3  N   UNL     1      22.896   5.850  23.261  0.00  0.00    -0.291 NA
ATOM      8  C   UNL     1      21.784   6.468  24.010  0.00  0.00    +0.146 C 
ATOM      9  C   UNL     1      22.426   7.647  24.762  0.00  0.00    +0.030 C 
ATOM     10  C   UNL     1      24.113   6.127  24.025  0.00  0.00    +0.085 C 
ATOM     11  C   UNL     1      23.909   7.575  24.424  0.00  0.00    +0.017 C 
BRANCH   3  12
ATOM     12  C   UNL     1      22.708   4.423  23.028  0.00  0.00    +0.088 C 
BRANCH  12  13
ATOM     13  C   UNL     1      22.781   4.057  21.536  0.00  0.00    -0.003 C 
ATOM     15  C   UNL     1      21.518   3.292  21.129  0.00  0.00    +0.008 C 
ATOM     16  C   UNL     1      22.950   5.285  20.638  0.00  0.00    +0.008 C 
ENDBRANCH  12  13
ENDBRANCH   3  12
ENDBRANCH  14   8
TORSDOF 7
ENDMDL
MODEL 7
REMARK VINA RESULT:      -5.6      4.269      7.320
REMARK  Name = 45783276
REMARK  10 active torsions:
REMARK  status: ('A' for Active; 'I' for Inactive)
REMARK    1  A    between atoms: O_2  and  C_24
REMARK    2  A    between atoms: O_2  and  C_25
REMARK    3  A    between atoms: N_3  and  C_12
REMARK    4  A    between atoms: N_6  and  C_23
REMARK    5  A    between atoms: C_8  and  C_14
REMARK    6  A    between atoms: C_12  and  C_13
REMARK    7  A    between atoms: C_13  and  C_15
REMARK    8  A    between atoms: C_13  and  C_16
REMARK    9  A    between atoms: C_17  and  C_18
REMARK   10  A    between atoms: C_23  and  C_24
REMARK                            x       y       z     vdW  Elec       q    Type
REMARK                         _______ _______ _______ _____ _____    ______ ____
ROOT
ATOM      1  O   UNL     1      13.016   9.947  14.951  0.00  0.00    -0.336 OA
ATOM      4  N   UNL     1      14.520   9.947  16.611  0.00  0.00    -0.190 NA
ATOM      5  N   UNL     1      12.540   9.042  15.907  0.00  0.00    -0.056 NA
ATOM     14  C   UNL     1      14.186  10.435  15.443  0.00  0.00    +0.245 A 
ATOM     17  C   UNL     1      13.481   9.097  16.855  0.00  0.00    +0.202 A 
ENDROOT
BRANCH  17  18
ATOM      6  N   UNL     1      15.656   6.592  20.381  0.00  0.00    -0.327 N 
ATOM      7  N   UNL     1      13.283   6.796  20.398  0.00  0.00    -0.240 NA
ATOM     18  C   UNL     1      13.414   8.315  18.056  0.00  0.00    +0.027 A 
ATOM     19  C   UNL     1      14.579   7.830  18.638  0.00  0.00    +0.055 A 
ATOM     20  C   UNL     1      12.183   8.042  18.642  0.00  0.00    +0.031 A 
ATOM     21  C   UNL     1      14.461   7.082  19.799  0.00  0.00    +0.119 A 
ATOM     22  C   UNL     1      12.172   7.285  19.803  0.00  0.00    +0.113 A 
ATOM     26  H   UNL     1      15.557   6.050  21.231  0.00  0.00    +0.148 HD
BRANCH   6  23
ATOM     23  C   UNL     1      16.944   6.843  19.820  0.00  0.00    +0.131 C 
BRANCH  23  24
ATOM     24  C   UNL     1      17.430   5.618  19.065  0.00  0.00    +0.178 C 
BRANCH  24   2
ATOM      2  O   UNL     1      18.692   5.213  19.580  0.00  0.00    -0.381 OA
ATOM     25  C   UNL     1      19.206   6.162  20.505  0.00  0.00    +0.194 C 
ENDBRANCH  24   2
ENDBRANCH  23  24
ENDBRANCH   6  23
ENDBRANCH  17  18
BRANCH  14   8
ATOM      3  N   UNL     1      14.596  12.842  14.963  0.00  0.00    -0.291 NA
ATOM      8  C   UNL     1      14.909  11.450  14.583  0.00  0.00    +0.146 C 
ATOM      9  C   UNL     1      16.441  11.346  14.702  0.00  0.00    +0.030 C 
ATOM     10  C   UNL     1      15.776  13.638  14.624  0.00  0.00    +0.085 C 
ATOM     11  C   UNL     1      16.904  12.741  15.095  0.00  0.00    +0.017 C 
BRANCH   3  12
ATOM     12  C   UNL     1      13.389  13.353  14.327  0.00  0.00    +0.088 C 
BRANCH  12  13
ATOM     13  C   UNL     1      13.222  12.840  12.886  0.00  0.00    -0.003 C 
ATOM     15  C   UNL     1      11.806  12.287  12.696  0.00  0.00    +0.008 C 
ATOM     16  C   UNL     1      13.495  13.925  11.842  0.00  0.00    +0.008 C 
ENDBRANCH  12  13
ENDBRANCH   3  12
ENDBRANCH  14   8
TORSDOF 7
ENDMDL
MODEL 8
REMARK VINA RESULT:      -5.5     26.375     29.386
REMARK  Name = 45783276
REMARK  10 active torsions:
REMARK  status: ('A' for Active; 'I' for Inactive)
REMARK    1  A    between atoms: O_2  and  C_24
REMARK    2  A    between atoms: O_2  and  C_25
REMARK    3  A    between atoms: N_3  and  C_12
REMARK    4  A    between atoms: N_6  and  C_23
REMARK    5  A    between atoms: C_8  and  C_14
REMARK    6  A    between atoms: C_12  and  C_13
REMARK    7  A    between atoms: C_13  and  C_15
REMARK    8  A    between atoms: C_13  and  C_16
REMARK    9  A    between atoms: C_17  and  C_18
REMARK   10  A    between atoms: C_23  and  C_24
REMARK                            x       y       z     vdW  Elec       q    Type
REMARK                         _______ _______ _______ _____ _____    ______ ____
ROOT
ATOM      1  O   UNL     1      -6.903 -11.801  16.559  0.00  0.00    -0.336 OA
ATOM      4  N   UNL     1      -5.443 -10.197  17.120  0.00  0.00    -0.190 NA
ATOM      5  N   UNL     1      -5.790 -11.979  15.728  0.00  0.00    -0.056 NA
ATOM     14  C   UNL     1      -6.616 -10.731  17.348  0.00  0.00    +0.245 A 
ATOM     17  C   UNL     1      -4.973 -10.996  16.118  0.00  0.00    +0.202 A 
ENDROOT
BRANCH  17  18
ATOM      6  N   UNL     1      -2.182 -10.313  12.222  0.00  0.00    -0.327 N 
ATOM      7  N   UNL     1      -1.171 -10.364  14.377  0.00  0.00    -0.240 NA
ATOM     18  C   UNL     1      -3.684 -10.783  15.528  0.00  0.00    +0.027 A 
ATOM     19  C   UNL     1      -3.560 -10.651  14.150  0.00  0.00    +0.055 A 
ATOM     20  C   UNL     1      -2.552 -10.706  16.332  0.00  0.00    +0.031 A 
ATOM     21  C   UNL     1      -2.293 -10.444  13.628  0.00  0.00    +0.119 A 
ATOM     22  C   UNL     1      -1.330 -10.497  15.714  0.00  0.00    +0.113 A 
ATOM     26  H   UNL     1      -1.251 -10.159  11.853  0.00  0.00    +0.148 HD
BRANCH   6  23
ATOM     23  C   UNL     1      -3.311 -10.385  11.351  0.00  0.00    +0.131 C 
BRANCH  23  24
ATOM     24  C   UNL     1      -3.184  -9.347  10.250  0.00  0.00    +0.178 C 
BRANCH  24   2
ATOM      2  O   UNL     1      -4.399  -8.614  10.149  0.00  0.00    -0.381 OA
ATOM     25  C   UNL     1      -5.275  -8.905  11.229  0.00  0.00    +0.194 C 
ENDBRANCH  24   2
ENDBRANCH  23  24
ENDBRANCH   6  23
ENDBRANCH  17  18
BRANCH  14   8
ATOM      3  N   UNL     1      -8.969 -10.008  17.713  0.00  0.00    -0.291 NA
ATOM      8  C   UNL     1      -7.676 -10.329  18.351  0.00  0.00    +0.146 C 
ATOM      9  C   UNL     1      -8.002 -11.451  19.354  0.00  0.00    +0.030 C 
ATOM     10  C   UNL     1     -10.005 -10.331  18.695  0.00  0.00    +0.085 C 
ATOM     11  C   UNL     1      -9.508 -11.650  19.253  0.00  0.00    +0.017 C 
BRANCH   3  12
ATOM     12  C   UNL     1      -9.057  -8.627  17.257  0.00  0.00    +0.088 C 
BRANCH  12  13
ATOM     13  C   UNL     1      -9.668  -8.511  15.851  0.00  0.00    -0.003 C 
ATOM     15  C   UNL     1      -9.465  -9.824  15.089  0.00  0.00    +0.008 C 
ATOM     16  C   UNL     1     -11.159  -8.162  15.886  0.00  0.00    +0.008 C 
ENDBRANCH  12  13
ENDBRANCH   3  12
ENDBRANCH  14   8
TORSDOF 7
ENDMDL
MODEL 9
REMARK VINA RESULT:      -5.4     27.294     30.236
REMARK  Name = 45783276
REMARK  10 active torsions:
REMARK  status: ('A' for Active; 'I' for Inactive)
REMARK    1  A    between atoms: O_2  and  C_24
REMARK    2  A    between atoms: O_2  and  C_25
REMARK    3  A    between atoms: N_3  and  C_12
REMARK    4  A    between atoms: N_6  and  C_23
REMARK    5  A    between atoms: C_8  and  C_14
REMARK    6  A    between atoms: C_12  and  C_13
REMARK    7  A    between atoms: C_13  and  C_15
REMARK    8  A    between atoms: C_13  and  C_16
REMARK    9  A    between atoms: C_17  and  C_18
REMARK   10  A    between atoms: C_23  and  C_24
REMARK                            x       y       z     vdW  Elec       q    Type
REMARK                         _______ _______ _______ _____ _____    ______ ____
ROOT
ATOM      1  O   UNL     1      -5.732 -11.992  14.033  0.00  0.00    -0.336 OA
ATOM      4  N   UNL     1      -5.203 -10.278  15.375  0.00  0.00    -0.190 NA
ATOM      5  N   UNL     1      -6.297 -12.285  15.280  0.00  0.00    -0.056 NA
ATOM     14  C   UNL     1      -5.107 -10.793  14.175  0.00  0.00    +0.245 A 
ATOM     17  C   UNL     1      -5.941 -11.228  16.018  0.00  0.00    +0.202 A 
ENDROOT
BRANCH  17  18
ATOM      6  N   UNL     1      -9.301 -10.632  19.451  0.00  0.00    -0.327 N 
ATOM      7  N   UNL     1      -7.015 -10.832  20.089  0.00  0.00    -0.240 NA
ATOM     18  C   UNL     1      -6.305 -11.092  17.398  0.00  0.00    +0.027 A 
ATOM     19  C   UNL     1      -7.638 -10.926  17.755  0.00  0.00    +0.055 A 
ATOM     20  C   UNL     1      -5.326 -11.128  18.384  0.00  0.00    +0.031 A 
ATOM     21  C   UNL     1      -7.939 -10.802  19.103  0.00  0.00    +0.119 A 
ATOM     22  C   UNL     1      -5.729 -10.994  19.704  0.00  0.00    +0.113 A 
ATOM     26  H   UNL     1      -9.508 -10.546  20.440  0.00  0.00    +0.148 HD
BRANCH   6  23
ATOM     23  C   UNL     1     -10.345 -10.588  18.479  0.00  0.00    +0.131 C 
BRANCH  23  24
ATOM     24  C   UNL     1     -10.849  -9.164  18.321  0.00  0.00    +0.178 C 
BRANCH  24   2
ATOM      2  O   UNL     1     -10.695  -8.755  16.968  0.00  0.00    -0.381 OA
ATOM     25  C   UNL     1     -10.656  -7.339  16.853  0.00  0.00    +0.194 C 
ENDBRANCH  24   2
ENDBRANCH  23  24
ENDBRANCH   6  23
ENDBRANCH  17  18
BRANCH  14   8
ATOM      3  N   UNL     1      -3.130 -10.931  12.670  0.00  0.00    -0.291 NA
ATOM      8  C   UNL     1      -4.408 -10.246  12.947  0.00  0.00    +0.146 C 
ATOM      9  C   UNL     1      -5.236 -10.427  11.662  0.00  0.00    +0.030 C 
ATOM     10  C   UNL     1      -2.930 -10.863  11.222  0.00  0.00    +0.085 C 
ATOM     11  C   UNL     1      -4.320 -11.170  10.701  0.00  0.00    +0.017 C 
BRANCH   3  12
ATOM     12  C   UNL     1      -2.005 -10.367  13.406  0.00  0.00    +0.088 C 
BRANCH  12  13
ATOM     13  C   UNL     1      -1.443 -11.339  14.456  0.00  0.00    -0.003 C 
ATOM     15  C   UNL     1      -1.698 -10.785  15.861  0.00  0.00    +0.008 C 
ATOM     16  C   UNL     1      -2.045 -12.741  14.340  0.00  0.00    +0.008 C 
ENDBRANCH  12  13
ENDBRANCH   3  12
ENDBRANCH  14   8
TORSDOF 7
ENDMDL
MODEL 10
REMARK VINA RESULT:      -5.4     29.842     33.369
REMARK  Name = 45783276
REMARK  10 active torsions:
REMARK  status: ('A' for Active; 'I' for Inactive)
REMARK    1  A    between atoms: O_2  and  C_24
REMARK    2  A    between atoms: O_2  and  C_25
REMARK    3  A    between atoms: N_3  and  C_12
REMARK    4  A    between atoms: N_6  and  C_23
REMARK    5  A    between atoms: C_8  and  C_14
REMARK    6  A    between atoms: C_12  and  C_13
REMARK    7  A    between atoms: C_13  and  C_15
REMARK    8  A    between atoms: C_13  and  C_16
REMARK    9  A    between atoms: C_17  and  C_18
REMARK   10  A    between atoms: C_23  and  C_24
REMARK                            x       y       z     vdW  Elec       q    Type
REMARK                         _______ _______ _______ _____ _____    ______ ____
ROOT
ATOM      1  O   UNL     1     -15.959   5.760  31.480  0.00  0.00    -0.336 OA
ATOM      4  N   UNL     1     -14.021   5.485  32.569  0.00  0.00    -0.190 NA
ATOM      5  N   UNL     1     -15.428   7.043  31.659  0.00  0.00    -0.056 NA
ATOM     14  C   UNL     1     -15.068   4.902  32.044  0.00  0.00    +0.245 A 
ATOM     17  C   UNL     1     -14.285   6.798  32.308  0.00  0.00    +0.202 A 
ENDROOT
BRANCH  17  18
ATOM      6  N   UNL     1     -11.592  10.683  31.260  0.00  0.00    -0.327 N 
ATOM      7  N   UNL     1     -11.643   9.878  33.501  0.00  0.00    -0.240 NA
ATOM     18  C   UNL     1     -13.388   7.842  32.712  0.00  0.00    +0.027 A 
ATOM     19  C   UNL     1     -12.923   8.762  31.780  0.00  0.00    +0.055 A 
ATOM     20  C   UNL     1     -12.982   7.938  34.039  0.00  0.00    +0.031 A 
ATOM     21  C   UNL     1     -12.060   9.753  32.221  0.00  0.00    +0.119 A 
ATOM     22  C   UNL     1     -12.116   8.965  34.379  0.00  0.00    +0.113 A 
ATOM     26  H   UNL     1     -10.965  11.404  31.596  0.00  0.00    +0.148 HD
BRANCH   6  23
ATOM     23  C   UNL     1     -11.977  10.629  29.887  0.00  0.00    +0.131 C 
BRANCH  23  24
ATOM     24  C   UNL     1     -10.999  11.425  29.041  0.00  0.00    +0.178 C 
BRANCH  24   2
ATOM      2  O   UNL     1     -11.246  11.169  27.664  0.00  0.00    -0.381 OA
ATOM     25  C   UNL     1     -10.719   9.912  27.265  0.00  0.00    +0.194 C 
ENDBRANCH  24   2
ENDBRANCH  23  24
ENDBRANCH   6  23
ENDBRANCH  17  18
BRANCH  14   8
ATOM      3  N   UNL     1     -14.356   2.622  31.346  0.00  0.00    -0.291 NA
ATOM      8  C   UNL     1     -15.417   3.429  31.981  0.00  0.00    +0.146 C 
ATOM      9  C   UNL     1     -15.606   2.803  33.374  0.00  0.00    +0.030 C 
ATOM     10  C   UNL     1     -14.438   1.289  31.944  0.00  0.00    +0.085 C 
ATOM     11  C   UNL     1     -14.654   1.615  33.408  0.00  0.00    +0.017 C 
BRANCH   3  12
ATOM     12  C   UNL     1     -14.459   2.579  29.893  0.00  0.00    +0.088 C 
BRANCH  12  13
ATOM     13  C   UNL     1     -15.918   2.562  29.408  0.00  0.00    -0.003 C 
ATOM     15  C   UNL     1     -16.126   3.661  28.361  0.00  0.00    +0.008 C 
ATOM     16  C   UNL     1     -16.327   1.209  28.821  0.00  0.00    +0.008 C 
ENDBRANCH  12  13
ENDBRANCH   3  12
ENDBRANCH  14   8
TORSDOF 7
ENDMDL
