MODEL 1
REMARK VINA RESULT:      -6.6      0.000      0.000
REMARK  Name = 75536854
REMARK  6 active torsions:
REMARK  status: ('A' for Active; 'I' for Inactive)
REMARK    1  A    between atoms: O_2  and  C_8
REMARK    2  A    between atoms: O_2  and  C_16
REMARK    3  A    between atoms: N_5  and  C_18
REMARK    4  A    between atoms: C_13  and  C_14
REMARK    5  A    between atoms: C_17  and  C_20
REMARK    6  A    between atoms: C_21  and  C_24
REMARK                            x       y       z     vdW  Elec       q    Type
REMARK                         _______ _______ _______ _____ _____    ______ ____
ROOT
ATOM      1  O   UNL     1      10.582   8.372  22.690  0.00  0.00    -0.375 OA
ATOM      3  O   UNL     1      12.990   6.552  18.923  0.00  0.00    -0.268 OA
ATOM      4  N   UNL     1      12.789   8.303  20.466  0.00  0.00    -0.291 N 
ATOM      8  C   UNL     1      12.008  10.215  21.967  0.00  0.00    +0.218 C 
ATOM      9  C   UNL     1      12.774   9.748  20.726  0.00  0.00    +0.155 C 
ATOM     10  C   UNL     1      12.534   7.393  21.583  0.00  0.00    +0.136 C 
ATOM     11  C   UNL     1      10.594   9.646  22.051  0.00  0.00    +0.206 C 
ATOM     12  C   UNL     1      11.043   7.295  21.880  0.00  0.00    +0.179 C 
ATOM     13  C   UNL     1      13.001   7.753  19.191  0.00  0.00    +0.265 C 
ENDROOT
BRANCH  13  14
ATOM      5  N   UNL     1      12.345   9.038  17.124  0.00  0.00    -0.262 N 
ATOM      6  N   UNL     1      12.832   9.886  16.202  0.00  0.00    -0.176 NA
ATOM     14  C   UNL     1      13.257   8.668  18.068  0.00  0.00    +0.123 A 
ATOM     15  C   UNL     1      14.421   9.320  17.741  0.00  0.00    +0.057 A 
ATOM     17  C   UNL     1      14.100  10.055  16.585  0.00  0.00    +0.061 A 
ATOM     18  C   UNL     1      10.967   8.614  17.036  0.00  0.00    +0.173 C 
ATOM     20  C   UNL     1      14.987  10.939  15.809  0.00  0.00    +0.067 C 
ENDBRANCH  13  14
BRANCH   8   2
ATOM      2  O   UNL     1      11.932  11.639  21.892  0.00  0.00    -0.469 OA
BRANCH   2  16
ATOM      7  N   UNL     1      10.624  13.332  22.785  0.00  0.00    -0.218 NA
ATOM     16  C   UNL     1      11.451  12.284  22.999  0.00  0.00    +0.215 A 
ATOM     19  C   UNL     1      11.830  11.839  24.255  0.00  0.00    +0.067 A 
ATOM     21  C   UNL     1      10.157  13.961  23.886  0.00  0.00    +0.042 A 
ATOM     22  C   UNL     1      11.330  12.512  25.363  0.00  0.00    +0.007 A 
ATOM     23  C   UNL     1      10.475  13.595  25.183  0.00  0.00    +0.023 A 
ATOM     24  C   UNL     1       9.245  15.121  23.657  0.00  0.00    +0.066 C 
ENDBRANCH   2  16
ENDBRANCH   8   2
TORSDOF 3
ENDMDL
MODEL 2
REMARK VINA RESULT:      -6.6      3.676      6.861
REMARK  Name = 75536854
REMARK  6 active torsions:
REMARK  status: ('A' for Active; 'I' for Inactive)
REMARK    1  A    between atoms: O_2  and  C_8
REMARK    2  A    between atoms: O_2  and  C_16
REMARK    3  A    between atoms: N_5  and  C_18
REMARK    4  A    between atoms: C_13  and  C_14
REMARK    5  A    between atoms: C_17  and  C_20
REMARK    6  A    between atoms: C_21  and  C_24
REMARK                            x       y       z     vdW  Elec       q    Type
REMARK                         _______ _______ _______ _____ _____    ______ ____
ROOT
ATOM      1  O   UNL     1      10.953   8.504  18.256  0.00  0.00    -0.375 OA
ATOM      3  O   UNL     1      13.725   8.143  22.193  0.00  0.00    -0.268 OA
ATOM      4  N   UNL     1      13.519   8.947  20.001  0.00  0.00    -0.291 N 
ATOM      8  C   UNL     1      13.143   9.265  17.496  0.00  0.00    +0.218 C 
ATOM      9  C   UNL     1      14.115   9.127  18.672  0.00  0.00    +0.155 C 
ATOM     10  C   UNL     1      12.138   9.385  20.209  0.00  0.00    +0.136 C 
ATOM     11  C   UNL     1      12.084   8.165  17.459  0.00  0.00    +0.206 C 
ATOM     12  C   UNL     1      11.151   8.364  19.660  0.00  0.00    +0.179 C 
ATOM     13  C   UNL     1      14.196   8.342  21.073  0.00  0.00    +0.265 C 
ENDROOT
BRANCH  13  14
ATOM      5  N   UNL     1      16.698   8.646  21.118  0.00  0.00    -0.262 N 
ATOM      6  N   UNL     1      17.850   8.012  20.840  0.00  0.00    -0.176 NA
ATOM     14  C   UNL     1      15.584   7.901  20.863  0.00  0.00    +0.123 A 
ATOM     15  C   UNL     1      16.039   6.697  20.384  0.00  0.00    +0.057 A 
ATOM     17  C   UNL     1      17.440   6.822  20.392  0.00  0.00    +0.061 A 
ATOM     18  C   UNL     1      16.741   9.993  21.638  0.00  0.00    +0.173 C 
ATOM     20  C   UNL     1      18.433   5.817  19.975  0.00  0.00    +0.067 C 
ENDBRANCH  13  14
BRANCH   8   2
ATOM      2  O   UNL     1      13.927   9.196  16.304  0.00  0.00    -0.469 OA
BRANCH   2  16
ATOM      7  N   UNL     1      13.234  10.765  14.744  0.00  0.00    -0.218 NA
ATOM     16  C   UNL     1      14.156  10.377  15.654  0.00  0.00    +0.215 A 
ATOM     19  C   UNL     1      15.298  11.100  15.957  0.00  0.00    +0.067 A 
ATOM     21  C   UNL     1      13.473  11.933  14.108  0.00  0.00    +0.042 A 
ATOM     22  C   UNL     1      15.510  12.297  15.282  0.00  0.00    +0.007 A 
ATOM     23  C   UNL     1      14.583  12.729  14.339  0.00  0.00    +0.023 A 
ATOM     24  C   UNL     1      12.460  12.365  13.100  0.00  0.00    +0.066 C 
ENDBRANCH   2  16
ENDBRANCH   8   2
TORSDOF 3
ENDMDL
MODEL 3
REMARK VINA RESULT:      -6.6      3.861      6.529
REMARK  Name = 75536854
REMARK  6 active torsions:
REMARK  status: ('A' for Active; 'I' for Inactive)
REMARK    1  A    between atoms: O_2  and  C_8
REMARK    2  A    between atoms: O_2  and  C_16
REMARK    3  A    between atoms: N_5  and  C_18
REMARK    4  A    between atoms: C_13  and  C_14
REMARK    5  A    between atoms: C_17  and  C_20
REMARK    6  A    between atoms: C_21  and  C_24
REMARK                            x       y       z     vdW  Elec       q    Type
REMARK                         _______ _______ _______ _____ _____    ______ ____
ROOT
ATOM      1  O   UNL     1      13.155   7.598  21.958  0.00  0.00    -0.375 OA
ATOM      3  O   UNL     1      11.592   8.501  17.480  0.00  0.00    -0.268 OA
ATOM      4  N   UNL     1      13.415   7.979  18.859  0.00  0.00    -0.291 N 
ATOM      8  C   UNL     1      15.209   7.873  20.671  0.00  0.00    +0.218 C 
ATOM      9  C   UNL     1      14.811   8.227  19.235  0.00  0.00    +0.155 C 
ATOM     10  C   UNL     1      12.646   7.006  19.638  0.00  0.00    +0.136 C 
ATOM     11  C   UNL     1      14.264   8.458  21.719  0.00  0.00    +0.206 C 
ATOM     12  C   UNL     1      12.155   7.617  20.944  0.00  0.00    +0.179 C 
ATOM     13  C   UNL     1      12.769   8.654  17.810  0.00  0.00    +0.265 C 
ENDROOT
BRANCH  13  14
ATOM      5  N   UNL     1      13.790  10.921  17.394  0.00  0.00    -0.262 N 
ATOM      6  N   UNL     1      14.521  11.608  16.501  0.00  0.00    -0.176 NA
ATOM     14  C   UNL     1      13.541   9.631  17.027  0.00  0.00    +0.123 A 
ATOM     15  C   UNL     1      14.152   9.463  15.808  0.00  0.00    +0.057 A 
ATOM     17  C   UNL     1      14.740  10.712  15.535  0.00  0.00    +0.061 A 
ATOM     18  C   UNL     1      13.354  11.578  18.605  0.00  0.00    +0.173 C 
ATOM     20  C   UNL     1      15.525  11.093  14.348  0.00  0.00    +0.067 C 
ENDBRANCH  13  14
BRANCH   8   2
ATOM      2  O   UNL     1      16.518   8.404  20.879  0.00  0.00    -0.469 OA
BRANCH   2  16
ATOM      7  N   UNL     1      18.595   7.712  21.642  0.00  0.00    -0.218 NA
ATOM     16  C   UNL     1      17.557   7.517  20.798  0.00  0.00    +0.215 A 
ATOM     19  C   UNL     1      17.491   6.486  19.874  0.00  0.00    +0.067 A 
ATOM     21  C   UNL     1      19.615   6.829  21.551  0.00  0.00    +0.042 A 
ATOM     22  C   UNL     1      18.559   5.599  19.810  0.00  0.00    +0.007 A 
ATOM     23  C   UNL     1      19.645   5.767  20.663  0.00  0.00    +0.023 A 
ATOM     24  C   UNL     1      20.766   7.041  22.478  0.00  0.00    +0.066 C 
ENDBRANCH   2  16
ENDBRANCH   8   2
TORSDOF 3
ENDMDL
MODEL 4
REMARK VINA RESULT:      -6.4      2.759      6.426
REMARK  Name = 75536854
REMARK  6 active torsions:
REMARK  status: ('A' for Active; 'I' for Inactive)
REMARK    1  A    between atoms: O_2  and  C_8
REMARK    2  A    between atoms: O_2  and  C_16
REMARK    3  A    between atoms: N_5  and  C_18
REMARK    4  A    between atoms: C_13  and  C_14
REMARK    5  A    between atoms: C_17  and  C_20
REMARK    6  A    between atoms: C_21  and  C_24
REMARK                            x       y       z     vdW  Elec       q    Type
REMARK                         _______ _______ _______ _____ _____    ______ ____
ROOT
ATOM      1  O   UNL     1      11.668   6.203  20.576  0.00  0.00    -0.375 OA
ATOM      3  O   UNL     1      10.848  10.132  23.259  0.00  0.00    -0.268 OA
ATOM      4  N   UNL     1      11.642   9.268  21.230  0.00  0.00    -0.291 N 
ATOM      8  C   UNL     1      12.829   7.980  19.373  0.00  0.00    +0.218 C 
ATOM      9  C   UNL     1      12.676   9.268  20.189  0.00  0.00    +0.155 C 
ATOM     10  C   UNL     1      10.542   8.308  21.119  0.00  0.00    +0.136 C 
ATOM     11  C   UNL     1      12.948   6.729  20.241  0.00  0.00    +0.206 C 
ATOM     12  C   UNL     1      10.974   6.925  21.589  0.00  0.00    +0.179 C 
ATOM     13  C   UNL     1      11.675  10.119  22.347  0.00  0.00    +0.265 C 
ENDROOT
BRANCH  13  14
ATOM      5  N   UNL     1      12.761  12.367  21.996  0.00  0.00    -0.262 N 
ATOM      6  N   UNL     1      13.900  13.043  22.223  0.00  0.00    -0.176 NA
ATOM     14  C   UNL     1      12.781  11.084  22.458  0.00  0.00    +0.123 A 
ATOM     15  C   UNL     1      14.019  10.908  23.025  0.00  0.00    +0.057 A 
ATOM     17  C   UNL     1      14.665  12.146  22.852  0.00  0.00    +0.061 A 
ATOM     18  C   UNL     1      11.671  13.029  21.318  0.00  0.00    +0.173 C 
ATOM     20  C   UNL     1      16.026  12.515  23.277  0.00  0.00    +0.067 C 
ENDBRANCH  13  14
BRANCH   8   2
ATOM      2  O   UNL     1      14.019   8.123  18.598  0.00  0.00    -0.469 OA
BRANCH   2  16
ATOM      7  N   UNL     1      15.714   8.733  20.058  0.00  0.00    -0.218 NA
ATOM     16  C   UNL     1      15.196   7.807  19.220  0.00  0.00    +0.215 A 
ATOM     19  C   UNL     1      15.783   6.578  18.963  0.00  0.00    +0.067 A 
ATOM     21  C   UNL     1      16.877   8.409  20.665  0.00  0.00    +0.042 A 
ATOM     22  C   UNL     1      16.979   6.281  19.606  0.00  0.00    +0.007 A 
ATOM     23  C   UNL     1      17.543   7.209  20.476  0.00  0.00    +0.023 A 
ATOM     24  C   UNL     1      17.455   9.429  21.589  0.00  0.00    +0.066 C 
ENDBRANCH   2  16
ENDBRANCH   8   2
TORSDOF 3
ENDMDL
MODEL 5
REMARK VINA RESULT:      -6.3     13.907     18.807
REMARK  Name = 75536854
REMARK  6 active torsions:
REMARK  status: ('A' for Active; 'I' for Inactive)
REMARK    1  A    between atoms: O_2  and  C_8
REMARK    2  A    between atoms: O_2  and  C_16
REMARK    3  A    between atoms: N_5  and  C_18
REMARK    4  A    between atoms: C_13  and  C_14
REMARK    5  A    between atoms: C_17  and  C_20
REMARK    6  A    between atoms: C_21  and  C_24
REMARK                            x       y       z     vdW  Elec       q    Type
REMARK                         _______ _______ _______ _____ _____    ______ ____
ROOT
ATOM      1  O   UNL     1       9.427   8.568   2.109  0.00  0.00    -0.375 OA
ATOM      3  O   UNL     1      10.786   9.411   6.664  0.00  0.00    -0.268 OA
ATOM      4  N   UNL     1      10.912   7.987   4.806  0.00  0.00    -0.291 N 
ATOM      8  C   UNL     1      10.461   6.470   2.804  0.00  0.00    +0.218 C 
ATOM      9  C   UNL     1      10.873   6.621   4.271  0.00  0.00    +0.155 C 
ATOM     10  C   UNL     1      11.047   9.100   3.865  0.00  0.00    +0.136 C 
ATOM     11  C   UNL     1       9.171   7.212   2.462  0.00  0.00    +0.206 C 
ATOM     12  C   UNL     1       9.712   9.426   3.209  0.00  0.00    +0.179 C 
ATOM     13  C   UNL     1      10.791   8.282   6.175  0.00  0.00    +0.265 C 
ENDROOT
BRANCH  13  14
ATOM      5  N   UNL     1      11.683   6.420   7.621  0.00  0.00    -0.262 N 
ATOM      6  N   UNL     1      11.293   5.453   8.469  0.00  0.00    -0.176 NA
ATOM     14  C   UNL     1      10.655   7.163   7.121  0.00  0.00    +0.123 A 
ATOM     15  C   UNL     1       9.512   6.646   7.679  0.00  0.00    +0.057 A 
ATOM     17  C   UNL     1       9.965   5.597   8.500  0.00  0.00    +0.061 A 
ATOM     18  C   UNL     1      13.090   6.578   7.331  0.00  0.00    +0.173 C 
ATOM     20  C   UNL     1       9.153   4.699   9.339  0.00  0.00    +0.067 C 
ENDBRANCH  13  14
BRANCH   8   2
ATOM      2  O   UNL     1      10.270   5.074   2.572  0.00  0.00    -0.469 OA
BRANCH   2  16
ATOM      7  N   UNL     1      10.698   4.514   0.363  0.00  0.00    -0.218 NA
ATOM     16  C   UNL     1      11.099   4.488   1.654  0.00  0.00    +0.215 A 
ATOM     19  C   UNL     1      12.281   3.910   2.089  0.00  0.00    +0.067 A 
ATOM     21  C   UNL     1      11.525   3.931  -0.533  0.00  0.00    +0.042 A 
ATOM     22  C   UNL     1      13.105   3.320   1.138  0.00  0.00    +0.007 A 
ATOM     23  C   UNL     1      12.727   3.327  -0.201  0.00  0.00    +0.023 A 
ATOM     24  C   UNL     1      11.088   3.953  -1.960  0.00  0.00    +0.066 C 
ENDBRANCH   2  16
ENDBRANCH   8   2
TORSDOF 3
ENDMDL
MODEL 6
REMARK VINA RESULT:      -6.3     26.483     28.530
REMARK  Name = 75536854
REMARK  6 active torsions:
REMARK  status: ('A' for Active; 'I' for Inactive)
REMARK    1  A    between atoms: O_2  and  C_8
REMARK    2  A    between atoms: O_2  and  C_16
REMARK    3  A    between atoms: N_5  and  C_18
REMARK    4  A    between atoms: C_13  and  C_14
REMARK    5  A    between atoms: C_17  and  C_20
REMARK    6  A    between atoms: C_21  and  C_24
REMARK                            x       y       z     vdW  Elec       q    Type
REMARK                         _______ _______ _______ _____ _____    ______ ____
ROOT
ATOM      1  O   UNL     1      -8.696 -11.569  19.069  0.00  0.00    -0.375 OA
ATOM      3  O   UNL     1      -3.878 -11.866  19.047  0.00  0.00    -0.268 OA
ATOM      4  N   UNL     1      -5.783 -10.772  18.232  0.00  0.00    -0.291 N 
ATOM      8  C   UNL     1      -8.034 -10.128  17.215  0.00  0.00    +0.218 C 
ATOM      9  C   UNL     1      -6.510 -10.207  17.089  0.00  0.00    +0.155 C 
ATOM     10  C   UNL     1      -6.434 -10.763  19.543  0.00  0.00    +0.136 C 
ATOM     11  C   UNL     1      -8.671 -11.446  17.650  0.00  0.00    +0.206 C 
ATOM     12  C   UNL     1      -7.443 -11.897  19.661  0.00  0.00    +0.179 C 
ATOM     13  C   UNL     1      -4.509 -11.353  18.123  0.00  0.00    +0.265 C 
ENDROOT
BRANCH  13  14
ATOM      5  N   UNL     1      -4.017 -12.320  15.847  0.00  0.00    -0.262 N 
ATOM      6  N   UNL     1      -3.307 -12.096  14.729  0.00  0.00    -0.176 NA
ATOM     14  C   UNL     1      -3.856 -11.362  16.804  0.00  0.00    +0.123 A 
ATOM     15  C   UNL     1      -2.978 -10.448  16.276  0.00  0.00    +0.057 A 
ATOM     17  C   UNL     1      -2.674 -10.950  14.997  0.00  0.00    +0.061 A 
ATOM     18  C   UNL     1      -4.848 -13.499  15.931  0.00  0.00    +0.173 C 
ATOM     20  C   UNL     1      -1.775 -10.359  13.991  0.00  0.00    +0.067 C 
ENDBRANCH  13  14
BRANCH   8   2
ATOM      2  O   UNL     1      -8.536  -9.773  15.926  0.00  0.00    -0.469 OA
BRANCH   2  16
ATOM      7  N   UNL     1     -10.313  -8.820  14.781  0.00  0.00    -0.218 NA
ATOM     16  C   UNL     1      -9.548  -8.853  15.896  0.00  0.00    +0.215 A 
ATOM     19  C   UNL     1      -9.733  -8.021  16.988  0.00  0.00    +0.067 A 
ATOM     21  C   UNL     1     -11.308  -7.906  14.764  0.00  0.00    +0.042 A 
ATOM     22  C   UNL     1     -10.766  -7.094  16.933  0.00  0.00    +0.007 A 
ATOM     23  C   UNL     1     -11.575  -7.029  15.803  0.00  0.00    +0.023 A 
ATOM     24  C   UNL     1     -12.154  -7.861  13.535  0.00  0.00    +0.066 C 
ENDBRANCH   2  16
ENDBRANCH   8   2
TORSDOF 3
ENDMDL
MODEL 7
REMARK VINA RESULT:      -6.0     13.876     18.529
REMARK  Name = 75536854
REMARK  6 active torsions:
REMARK  status: ('A' for Active; 'I' for Inactive)
REMARK    1  A    between atoms: O_2  and  C_8
REMARK    2  A    between atoms: O_2  and  C_16
REMARK    3  A    between atoms: N_5  and  C_18
REMARK    4  A    between atoms: C_13  and  C_14
REMARK    5  A    between atoms: C_17  and  C_20
REMARK    6  A    between atoms: C_21  and  C_24
REMARK                            x       y       z     vdW  Elec       q    Type
REMARK                         _______ _______ _______ _____ _____    ______ ____
ROOT
ATOM      1  O   UNL     1      12.150   8.975   2.512  0.00  0.00    -0.375 OA
ATOM      3  O   UNL     1      11.917   9.158   7.331  0.00  0.00    -0.268 OA
ATOM      4  N   UNL     1      12.131   7.814   5.423  0.00  0.00    -0.291 N 
ATOM      8  C   UNL     1      11.882   6.641   3.169  0.00  0.00    +0.218 C 
ATOM      9  C   UNL     1      11.737   6.603   4.693  0.00  0.00    +0.155 C 
ATOM     10  C   UNL     1      13.056   8.746   4.775  0.00  0.00    +0.136 C 
ATOM     11  C   UNL     1      11.246   7.875   2.534  0.00  0.00    +0.206 C 
ATOM     12  C   UNL     1      12.329   9.625   3.767  0.00  0.00    +0.179 C 
ATOM     13  C   UNL     1      11.638   8.140   6.697  0.00  0.00    +0.265 C 
ENDROOT
BRANCH  13  14
ATOM      5  N   UNL     1       9.349   7.302   7.338  0.00  0.00    -0.262 N 
ATOM      6  N   UNL     1       8.728   6.316   8.009  0.00  0.00    -0.176 NA
ATOM     14  C   UNL     1      10.709   7.202   7.348  0.00  0.00    +0.123 A 
ATOM     15  C   UNL     1      10.998   6.074   8.075  0.00  0.00    +0.057 A 
ATOM     17  C   UNL     1       9.741   5.570   8.456  0.00  0.00    +0.061 A 
ATOM     18  C   UNL     1       8.558   8.328   6.699  0.00  0.00    +0.173 C 
ATOM     20  C   UNL     1       9.463   4.364   9.256  0.00  0.00    +0.067 C 
ENDBRANCH  13  14
BRANCH   8   2
ATOM      2  O   UNL     1      11.235   5.473   2.664  0.00  0.00    -0.469 OA
BRANCH   2  16
ATOM      7  N   UNL     1      13.201   4.536   1.868  0.00  0.00    -0.218 NA
ATOM     16  C   UNL     1      11.888   4.792   1.673  0.00  0.00    +0.215 A 
ATOM     19  C   UNL     1      11.182   4.410   0.543  0.00  0.00    +0.067 A 
ATOM     21  C   UNL     1      13.834   3.864   0.880  0.00  0.00    +0.042 A 
ATOM     22  C   UNL     1      11.868   3.721  -0.451  0.00  0.00    +0.007 A 
ATOM     23  C   UNL     1      13.220   3.438  -0.286  0.00  0.00    +0.023 A 
ATOM     24  C   UNL     1      15.285   3.581   1.088  0.00  0.00    +0.066 C 
ENDBRANCH   2  16
ENDBRANCH   8   2
TORSDOF 3
ENDMDL
MODEL 8
REMARK VINA RESULT:      -5.8     26.697     28.408
REMARK  Name = 75536854
REMARK  6 active torsions:
REMARK  status: ('A' for Active; 'I' for Inactive)
REMARK    1  A    between atoms: O_2  and  C_8
REMARK    2  A    between atoms: O_2  and  C_16
REMARK    3  A    between atoms: N_5  and  C_18
REMARK    4  A    between atoms: C_13  and  C_14
REMARK    5  A    between atoms: C_17  and  C_20
REMARK    6  A    between atoms: C_21  and  C_24
REMARK                            x       y       z     vdW  Elec       q    Type
REMARK                         _______ _______ _______ _____ _____    ______ ____
ROOT
ATOM      1  O   UNL     1      -2.428 -12.530  14.814  0.00  0.00    -0.375 OA
ATOM      3  O   UNL     1      -2.639  -9.922  10.756  0.00  0.00    -0.268 OA
ATOM      4  N   UNL     1      -3.554 -10.342  12.872  0.00  0.00    -0.291 N 
ATOM      8  C   UNL     1      -4.561 -11.357  14.987  0.00  0.00    +0.218 C 
ATOM      9  C   UNL     1      -4.747 -10.542  13.703  0.00  0.00    +0.155 C 
ATOM     10  C   UNL     1      -2.238 -10.472  13.501  0.00  0.00    +0.136 C 
ATOM     11  C   UNL     1      -3.843 -12.685  14.758  0.00  0.00    +0.206 C 
ATOM     12  C   UNL     1      -1.848 -11.936  13.656  0.00  0.00    +0.179 C 
ATOM     13  C   UNL     1      -3.612 -10.066  11.496  0.00  0.00    +0.265 C 
ENDROOT
BRANCH  13  14
ATOM      5  N   UNL     1      -5.659 -10.958  10.326  0.00  0.00    -0.262 N 
ATOM      6  N   UNL     1      -6.839 -10.574   9.809  0.00  0.00    -0.176 NA
ATOM     14  C   UNL     1      -4.935  -9.936  10.865  0.00  0.00    +0.123 A 
ATOM     15  C   UNL     1      -5.692  -8.804  10.687  0.00  0.00    +0.057 A 
ATOM     17  C   UNL     1      -6.853  -9.257  10.033  0.00  0.00    +0.061 A 
ATOM     18  C   UNL     1      -5.283 -12.352  10.268  0.00  0.00    +0.173 C 
ATOM     20  C   UNL     1      -8.010  -8.455   9.601  0.00  0.00    +0.067 C 
ENDBRANCH  13  14
BRANCH   8   2
ATOM      2  O   UNL     1      -5.867 -11.617  15.502  0.00  0.00    -0.469 OA
BRANCH   2  16
ATOM      7  N   UNL     1      -6.992 -12.338  17.397  0.00  0.00    -0.218 NA
ATOM     16  C   UNL     1      -6.005 -11.584  16.863  0.00  0.00    +0.215 A 
ATOM     19  C   UNL     1      -5.143 -10.794  17.606  0.00  0.00    +0.067 A 
ATOM     21  C   UNL     1      -7.118 -12.294  18.742  0.00  0.00    +0.042 A 
ATOM     22  C   UNL     1      -5.305 -10.775  18.987  0.00  0.00    +0.007 A 
ATOM     23  C   UNL     1      -6.309 -11.538  19.574  0.00  0.00    +0.023 A 
ATOM     24  C   UNL     1      -8.208 -13.122  19.338  0.00  0.00    +0.066 C 
ENDBRANCH   2  16
ENDBRANCH   8   2
TORSDOF 3
ENDMDL
MODEL 9
REMARK VINA RESULT:      -5.8     10.248     14.494
REMARK  Name = 75536854
REMARK  6 active torsions:
REMARK  status: ('A' for Active; 'I' for Inactive)
REMARK    1  A    between atoms: O_2  and  C_8
REMARK    2  A    between atoms: O_2  and  C_16
REMARK    3  A    between atoms: N_5  and  C_18
REMARK    4  A    between atoms: C_13  and  C_14
REMARK    5  A    between atoms: C_17  and  C_20
REMARK    6  A    between atoms: C_21  and  C_24
REMARK                            x       y       z     vdW  Elec       q    Type
REMARK                         _______ _______ _______ _____ _____    ______ ____
ROOT
ATOM      1  O   UNL     1       9.661  10.481   4.828  0.00  0.00    -0.375 OA
ATOM      3  O   UNL     1      11.075  13.684   8.152  0.00  0.00    -0.268 OA
ATOM      4  N   UNL     1      10.493  11.462   7.686  0.00  0.00    -0.291 N 
ATOM      8  C   UNL     1       9.380   9.290   6.939  0.00  0.00    +0.218 C 
ATOM      9  C   UNL     1       9.749  10.256   8.068  0.00  0.00    +0.155 C 
ATOM     10  C   UNL     1      11.241  11.448   6.428  0.00  0.00    +0.136 C 
ATOM     11  C   UNL     1       8.704   9.978   5.755  0.00  0.00    +0.206 C 
ATOM     12  C   UNL     1      10.318  11.676   5.239  0.00  0.00    +0.179 C 
ATOM     13  C   UNL     1      10.493  12.641   8.450  0.00  0.00    +0.265 C 
ENDROOT
BRANCH  13  14
ATOM      5  N   UNL     1       8.429  13.004   9.851  0.00  0.00    -0.262 N 
ATOM      6  N   UNL     1       7.977  12.933  11.115  0.00  0.00    -0.176 NA
ATOM     14  C   UNL     1       9.740  12.654   9.714  0.00  0.00    +0.123 A 
ATOM     15  C   UNL     1      10.177  12.333  10.976  0.00  0.00    +0.057 A 
ATOM     17  C   UNL     1       9.050  12.522  11.797  0.00  0.00    +0.061 A 
ATOM     18  C   UNL     1       7.529  13.425   8.803  0.00  0.00    +0.173 C 
ATOM     20  C   UNL     1       8.956  12.319  13.253  0.00  0.00    +0.067 C 
ENDBRANCH  13  14
BRANCH   8   2
ATOM      2  O   UNL     1       8.479   8.331   7.495  0.00  0.00    -0.469 OA
BRANCH   2  16
ATOM      7  N   UNL     1       8.932   6.478   8.812  0.00  0.00    -0.218 NA
ATOM     16  C   UNL     1       8.935   7.044   7.585  0.00  0.00    +0.215 A 
ATOM     19  C   UNL     1       9.367   6.403   6.435  0.00  0.00    +0.067 A 
ATOM     21  C   UNL     1       9.387   5.207   8.887  0.00  0.00    +0.042 A 
ATOM     22  C   UNL     1       9.828   5.097   6.552  0.00  0.00    +0.007 A 
ATOM     23  C   UNL     1       9.840   4.479   7.798  0.00  0.00    +0.023 A 
ATOM     24  C   UNL     1       9.389   4.576  10.240  0.00  0.00    +0.066 C 
ENDBRANCH   2  16
ENDBRANCH   8   2
TORSDOF 3
ENDMDL
MODEL 10
REMARK VINA RESULT:      -5.8     29.415     32.015
REMARK  Name = 75536854
REMARK  6 active torsions:
REMARK  status: ('A' for Active; 'I' for Inactive)
REMARK    1  A    between atoms: O_2  and  C_8
REMARK    2  A    between atoms: O_2  and  C_16
REMARK    3  A    between atoms: N_5  and  C_18
REMARK    4  A    between atoms: C_13  and  C_14
REMARK    5  A    between atoms: C_17  and  C_20
REMARK    6  A    between atoms: C_21  and  C_24
REMARK                            x       y       z     vdW  Elec       q    Type
REMARK                         _______ _______ _______ _____ _____    ______ ____
ROOT
ATOM      1  O   UNL     1      -6.136  -9.685  41.013  0.00  0.00    -0.375 OA
ATOM      3  O   UNL     1      -9.682  -7.161  38.923  0.00  0.00    -0.268 OA
ATOM      4  N   UNL     1      -7.485  -7.159  39.739  0.00  0.00    -0.291 N 
ATOM      8  C   UNL     1      -5.344  -7.379  41.113  0.00  0.00    +0.218 C 
ATOM      9  C   UNL     1      -6.441  -6.487  40.522  0.00  0.00    +0.155 C 
ATOM     10  C   UNL     1      -7.187  -8.471  39.164  0.00  0.00    +0.136 C 
ATOM     11  C   UNL     1      -5.894  -8.580  41.879  0.00  0.00    +0.206 C 
ATOM     12  C   UNL     1      -7.309  -9.569  40.214  0.00  0.00    +0.179 C 
ATOM     13  C   UNL     1      -8.767  -6.620  39.544  0.00  0.00    +0.265 C 
ENDROOT
BRANCH  13  14
ATOM      5  N   UNL     1      -9.606  -5.079  41.355  0.00  0.00    -0.262 N 
ATOM      6  N   UNL     1      -9.781  -3.779  41.646  0.00  0.00    -0.176 NA
ATOM     14  C   UNL     1      -9.066  -5.300  40.122  0.00  0.00    +0.123 A 
ATOM     15  C   UNL     1      -8.875  -4.058  39.568  0.00  0.00    +0.057 A 
ATOM     17  C   UNL     1      -9.332  -3.160  40.551  0.00  0.00    +0.061 A 
ATOM     18  C   UNL     1      -9.987  -6.078  42.326  0.00  0.00    +0.173 C 
ATOM     20  C   UNL     1      -9.357  -1.689  40.481  0.00  0.00    +0.067 C 
ENDBRANCH  13  14
BRANCH   8   2
ATOM      2  O   UNL     1      -4.588  -6.563  42.007  0.00  0.00    -0.469 OA
BRANCH   2  16
ATOM      7  N   UNL     1      -3.162  -4.736  42.089  0.00  0.00    -0.218 NA
ATOM     16  C   UNL     1      -3.534  -5.878  41.467  0.00  0.00    +0.215 A 
ATOM     19  C   UNL     1      -2.916  -6.381  40.334  0.00  0.00    +0.067 A 
ATOM     21  C   UNL     1      -2.121  -4.069  41.544  0.00  0.00    +0.042 A 
ATOM     22  C   UNL     1      -1.848  -5.666  39.803  0.00  0.00    +0.007 A 
ATOM     23  C   UNL     1      -1.436  -4.487  40.415  0.00  0.00    +0.023 A 
ATOM     24  C   UNL     1      -1.708  -2.806  42.224  0.00  0.00    +0.066 C 
ENDBRANCH   2  16
ENDBRANCH   8   2
TORSDOF 3
ENDMDL
