MODEL 1
REMARK VINA RESULT:      -7.3      0.000      0.000
REMARK  Name = 51136664
REMARK  9 active torsions:
REMARK  status: ('A' for Active; 'I' for Inactive)
REMARK    1  A    between atoms: O_3  and  C_18
REMARK    2  A    between atoms: O_5  and  C_27
REMARK    3  A    between atoms: O_5  and  C_31
REMARK    4  A    between atoms: C_8  and  C_13
REMARK    5  A    between atoms: C_9  and  C_14
REMARK    6  A    between atoms: C_13  and  C_15
REMARK    7  A    between atoms: C_14  and  C_18
REMARK    8  A    between atoms: C_16  and  C_19
REMARK    9  A    between atoms: C_19  and  C_25
REMARK                            x       y       z     vdW  Elec       q    Type
REMARK                         _______ _______ _______ _____ _____    ______ ____
ROOT
ATOM      2  O   UNL     1      13.126   8.818  15.072  0.00  0.00    -0.275 OA
ATOM      6  N   UNL     1      12.921   9.379  17.318  0.00  0.00    -0.301 N 
ATOM      8  C   UNL     1      13.665   9.226  19.684  0.00  0.00    +0.016 C 
ATOM      9  C   UNL     1      12.475   8.272  19.959  0.00  0.00    +0.006 C 
ATOM     10  C   UNL     1      12.045   7.524  18.684  0.00  0.00    +0.023 C 
ATOM     11  C   UNL     1      13.332  10.150  18.498  0.00  0.00    +0.112 C 
ATOM     12  C   UNL     1      11.778   8.492  17.535  0.00  0.00    +0.108 C 
ATOM     16  C   UNL     1      13.507   9.459  16.056  0.00  0.00    +0.220 C 
ENDROOT
BRANCH   8  13
ATOM     13  C   UNL     1      14.997   8.506  19.440  0.00  0.00    +0.061 C 
BRANCH  13  15
ATOM      7  N   UNL     1      15.804  10.104  21.042  0.00  0.00    -0.287 NA
ATOM     15  C   UNL     1      16.028   8.986  20.434  0.00  0.00    +0.044 C 
ATOM     17  C   UNL     1      17.243   8.161  20.659  0.00  0.00    -0.001 A 
ATOM     20  C   UNL     1      18.333   8.796  21.267  0.00  0.00    -0.033 A 
ATOM     21  C   UNL     1      18.210  10.246  21.632  0.00  0.00    +0.059 C 
ATOM     22  C   UNL     1      16.776  10.539  22.051  0.00  0.00    +0.146 C 
ATOM     23  C   UNL     1      17.326   6.820  20.278  0.00  0.00    +0.013 A 
ATOM     24  C   UNL     1      19.520   8.087  21.469  0.00  0.00    +0.050 A 
ATOM     26  C   UNL     1      18.510   6.115  20.499  0.00  0.00    +0.046 A 
ATOM     27  C   UNL     1      19.605   6.747  21.090  0.00  0.00    +0.120 A 
BRANCH  27   5
ATOM      5  O   UNL     1      20.759   6.055  21.296  0.00  0.00    -0.495 OA
ATOM     31  C   UNL     1      20.923   4.836  20.570  0.00  0.00    +0.277 C 
ENDBRANCH  27   5
ENDBRANCH  13  15
ENDBRANCH   8  13
BRANCH   9  14
ATOM     14  C   UNL     1      12.743   7.289  21.097  0.00  0.00    +0.124 C 
BRANCH  14  18
ATOM      4  O   UNL     1      10.435   7.179  21.873  0.00  0.00    -0.251 OA
ATOM     18  C   UNL     1      11.479   6.623  21.565  0.00  0.00    +0.305 C 
BRANCH  18   3
ATOM      3  O   UNL     1      11.657   5.277  21.600  0.00  0.00    -0.481 OA
ATOM     32  H   UNL     1      11.019   4.840  22.203  0.00  0.00    +0.295 HD
ENDBRANCH  18   3
ENDBRANCH  14  18
ENDBRANCH   9  14
BRANCH  16  19
ATOM     19  C   UNL     1      14.682  10.393  15.914  0.00  0.00    +0.138 C 
BRANCH  19  25
ATOM      1  S   UNL     1      14.480  13.128  16.327  0.00  0.00    -0.101 S 
ATOM     25  C   UNL     1      14.240  11.721  15.382  0.00  0.00    -0.001 A 
ATOM     28  C   UNL     1      13.632  12.003  14.178  0.00  0.00    +0.011 A 
ATOM     29  C   UNL     1      13.361  13.393  14.030  0.00  0.00    +0.008 A 
ATOM     30  C   UNL     1      13.771  14.121  15.125  0.00  0.00    +0.045 A 
ENDBRANCH  19  25
ENDBRANCH  16  19
TORSDOF 8
ENDMDL
MODEL 2
REMARK VINA RESULT:      -6.7     28.077     29.781
REMARK  Name = 51136664
REMARK  9 active torsions:
REMARK  status: ('A' for Active; 'I' for Inactive)
REMARK    1  A    between atoms: O_3  and  C_18
REMARK    2  A    between atoms: O_5  and  C_27
REMARK    3  A    between atoms: O_5  and  C_31
REMARK    4  A    between atoms: C_8  and  C_13
REMARK    5  A    between atoms: C_9  and  C_14
REMARK    6  A    between atoms: C_13  and  C_15
REMARK    7  A    between atoms: C_14  and  C_18
REMARK    8  A    between atoms: C_16  and  C_19
REMARK    9  A    between atoms: C_19  and  C_25
REMARK                            x       y       z     vdW  Elec       q    Type
REMARK                         _______ _______ _______ _____ _____    ______ ____
ROOT
ATOM      2  O   UNL     1     -10.813 -10.104  17.190  0.00  0.00    -0.275 OA
ATOM      6  N   UNL     1      -8.512  -9.934  17.466  0.00  0.00    -0.301 N 
ATOM      8  C   UNL     1      -6.195 -10.720  17.028  0.00  0.00    +0.016 C 
ATOM      9  C   UNL     1      -6.178 -11.345  18.446  0.00  0.00    +0.006 C 
ATOM     10  C   UNL     1      -7.597 -11.698  18.925  0.00  0.00    +0.023 C 
ATOM     11  C   UNL     1      -7.181  -9.538  16.989  0.00  0.00    +0.112 C 
ATOM     12  C   UNL     1      -8.534 -10.498  18.815  0.00  0.00    +0.108 C 
ATOM     16  C   UNL     1      -9.702  -9.786  16.756  0.00  0.00    +0.220 C 
ENDROOT
BRANCH   8  13
ATOM     13  C   UNL     1      -6.519 -11.719  15.910  0.00  0.00    +0.061 C 
BRANCH  13  15
ATOM      7  N   UNL     1      -4.392 -12.600  15.227  0.00  0.00    -0.287 NA
ATOM     15  C   UNL     1      -5.364 -11.797  14.942  0.00  0.00    +0.044 C 
ATOM     17  C   UNL     1      -5.396 -10.952  13.721  0.00  0.00    -0.001 A 
ATOM     20  C   UNL     1      -4.177 -10.751  13.060  0.00  0.00    -0.033 A 
ATOM     21  C   UNL     1      -2.939 -11.382  13.626  0.00  0.00    +0.059 C 
ATOM     22  C   UNL     1      -3.299 -12.720  14.256  0.00  0.00    +0.146 C 
ATOM     23  C   UNL     1      -6.567 -10.360  13.242  0.00  0.00    +0.013 A 
ATOM     24  C   UNL     1      -4.132  -9.933  11.928  0.00  0.00    +0.050 A 
ATOM     26  C   UNL     1      -6.515  -9.557  12.102  0.00  0.00    +0.046 A 
ATOM     27  C   UNL     1      -5.301  -9.341  11.449  0.00  0.00    +0.120 A 
BRANCH  27   5
ATOM      5  O   UNL     1      -5.257  -8.550  10.341  0.00  0.00    -0.495 OA
ATOM     31  C   UNL     1      -4.185  -8.774   9.426  0.00  0.00    +0.277 C 
ENDBRANCH  27   5
ENDBRANCH  13  15
ENDBRANCH   8  13
BRANCH   9  14
ATOM     14  C   UNL     1      -5.254 -12.557  18.557  0.00  0.00    +0.124 C 
BRANCH  14  18
ATOM      4  O   UNL     1      -3.349 -12.232  20.042  0.00  0.00    -0.251 OA
ATOM     18  C   UNL     1      -3.854 -12.155  18.933  0.00  0.00    +0.305 C 
BRANCH  18   3
ATOM      3  O   UNL     1      -3.206 -11.678  17.839  0.00  0.00    -0.481 OA
ATOM     32  H   UNL     1      -3.391 -10.727  17.690  0.00  0.00    +0.295 HD
ENDBRANCH  18   3
ENDBRANCH  14  18
ENDBRANCH   9  14
BRANCH  16  19
ATOM     19  C   UNL     1      -9.594  -9.200  15.371  0.00  0.00    +0.138 C 
BRANCH  19  25
ATOM      1  S   UNL     1     -11.797  -8.065  14.126  0.00  0.00    -0.101 S 
ATOM     25  C   UNL     1     -10.490  -8.008  15.230  0.00  0.00    -0.001 A 
ATOM     28  C   UNL     1     -10.421  -6.801  15.890  0.00  0.00    +0.011 A 
ATOM     29  C   UNL     1     -11.457  -5.911  15.484  0.00  0.00    +0.008 A 
ATOM     30  C   UNL     1     -12.277  -6.471  14.530  0.00  0.00    +0.045 A 
ENDBRANCH  19  25
ENDBRANCH  16  19
TORSDOF 8
ENDMDL
MODEL 3
REMARK VINA RESULT:      -6.7     26.459     29.508
REMARK  Name = 51136664
REMARK  9 active torsions:
REMARK  status: ('A' for Active; 'I' for Inactive)
REMARK    1  A    between atoms: O_3  and  C_18
REMARK    2  A    between atoms: O_5  and  C_27
REMARK    3  A    between atoms: O_5  and  C_31
REMARK    4  A    between atoms: C_8  and  C_13
REMARK    5  A    between atoms: C_9  and  C_14
REMARK    6  A    between atoms: C_13  and  C_15
REMARK    7  A    between atoms: C_14  and  C_18
REMARK    8  A    between atoms: C_16  and  C_19
REMARK    9  A    between atoms: C_19  and  C_25
REMARK                            x       y       z     vdW  Elec       q    Type
REMARK                         _______ _______ _______ _____ _____    ______ ____
ROOT
ATOM      2  O   UNL     1      -8.341 -11.301  18.186  0.00  0.00    -0.275 OA
ATOM      6  N   UNL     1      -6.545 -10.301  17.105  0.00  0.00    -0.301 N 
ATOM      8  C   UNL     1      -4.733 -10.321  15.405  0.00  0.00    +0.016 C 
ATOM      9  C   UNL     1      -3.716 -10.587  16.544  0.00  0.00    +0.006 C 
ATOM     10  C   UNL     1      -4.380 -11.294  17.740  0.00  0.00    +0.023 C 
ATOM     11  C   UNL     1      -5.963  -9.584  15.963  0.00  0.00    +0.112 C 
ATOM     12  C   UNL     1      -5.620 -10.540  18.212  0.00  0.00    +0.108 C 
ATOM     16  C   UNL     1      -7.870 -10.722  17.204  0.00  0.00    +0.220 C 
ENDROOT
BRANCH   8  13
ATOM     13  C   UNL     1      -5.166 -11.584  14.649  0.00  0.00    +0.061 C 
BRANCH  13  15
ATOM      7  N   UNL     1      -3.595 -12.405  13.028  0.00  0.00    -0.287 NA
ATOM     15  C   UNL     1      -4.564 -11.583  13.264  0.00  0.00    +0.044 C 
ATOM     17  C   UNL     1      -5.106 -10.643  12.249  0.00  0.00    -0.001 A 
ATOM     20  C   UNL     1      -4.302 -10.390  11.130  0.00  0.00    -0.033 A 
ATOM     21  C   UNL     1      -2.964 -11.062  11.039  0.00  0.00    +0.059 C 
ATOM     22  C   UNL     1      -3.052 -12.447  11.666  0.00  0.00    +0.146 C 
ATOM     23  C   UNL     1      -6.347 -10.017  12.386  0.00  0.00    +0.013 A 
ATOM     24  C   UNL     1      -4.737  -9.484  10.159  0.00  0.00    +0.050 A 
ATOM     26  C   UNL     1      -6.780  -9.126  11.403  0.00  0.00    +0.046 A 
ATOM     27  C   UNL     1      -5.976  -8.857  10.294  0.00  0.00    +0.120 A 
BRANCH  27   5
ATOM      5  O   UNL     1      -6.401  -7.981   9.343  0.00  0.00    -0.495 OA
ATOM     31  C   UNL     1      -7.772  -8.060   8.955  0.00  0.00    +0.277 C 
ENDBRANCH  27   5
ENDBRANCH  13  15
ENDBRANCH   8  13
BRANCH   9  14
ATOM     14  C   UNL     1      -2.481 -11.358  16.080  0.00  0.00    +0.124 C 
BRANCH  14  18
ATOM      4  O   UNL     1      -1.571  -9.964  14.300  0.00  0.00    -0.251 OA
ATOM     18  C   UNL     1      -1.480 -10.453  15.415  0.00  0.00    +0.305 C 
BRANCH  18   3
ATOM      3  O   UNL     1      -0.427 -10.246  16.247  0.00  0.00    -0.481 OA
ATOM     32  H   UNL     1       0.271  -9.703  15.824  0.00  0.00    +0.295 HD
ENDBRANCH  18   3
ENDBRANCH  14  18
ENDBRANCH   9  14
BRANCH  16  19
ATOM     19  C   UNL     1      -8.759 -10.442  16.019  0.00  0.00    +0.138 C 
BRANCH  19  25
ATOM      1  S   UNL     1     -11.415  -9.642  16.051  0.00  0.00    -0.101 S 
ATOM     25  C   UNL     1      -9.751  -9.368  16.345  0.00  0.00    -0.001 A 
ATOM     28  C   UNL     1      -9.517  -8.119  16.876  0.00  0.00    +0.011 A 
ATOM     29  C   UNL     1     -10.722  -7.377  17.045  0.00  0.00    +0.008 A 
ATOM     30  C   UNL     1     -11.829  -8.087  16.636  0.00  0.00    +0.045 A 
ENDBRANCH  19  25
ENDBRANCH  16  19
TORSDOF 8
ENDMDL
MODEL 4
REMARK VINA RESULT:      -6.6     26.611     29.487
REMARK  Name = 51136664
REMARK  9 active torsions:
REMARK  status: ('A' for Active; 'I' for Inactive)
REMARK    1  A    between atoms: O_3  and  C_18
REMARK    2  A    between atoms: O_5  and  C_27
REMARK    3  A    between atoms: O_5  and  C_31
REMARK    4  A    between atoms: C_8  and  C_13
REMARK    5  A    between atoms: C_9  and  C_14
REMARK    6  A    between atoms: C_13  and  C_15
REMARK    7  A    between atoms: C_14  and  C_18
REMARK    8  A    between atoms: C_16  and  C_19
REMARK    9  A    between atoms: C_19  and  C_25
REMARK                            x       y       z     vdW  Elec       q    Type
REMARK                         _______ _______ _______ _____ _____    ______ ____
ROOT
ATOM      2  O   UNL     1      -1.423  -9.789  12.374  0.00  0.00    -0.275 OA
ATOM      6  N   UNL     1      -2.311 -11.353  13.845  0.00  0.00    -0.301 N 
ATOM      8  C   UNL     1      -4.120 -12.159  15.346  0.00  0.00    +0.016 C 
ATOM      9  C   UNL     1      -3.264 -11.712  16.558  0.00  0.00    +0.006 C 
ATOM     10  C   UNL     1      -2.306 -10.568  16.182  0.00  0.00    +0.023 C 
ATOM     11  C   UNL     1      -3.206 -12.476  14.149  0.00  0.00    +0.112 C 
ATOM     12  C   UNL     1      -1.465 -10.927  14.961  0.00  0.00    +0.108 C 
ATOM     16  C   UNL     1      -2.203 -10.716  12.610  0.00  0.00    +0.220 C 
ENDROOT
BRANCH   8  13
ATOM     13  C   UNL     1      -5.199 -11.147  14.938  0.00  0.00    +0.061 C 
BRANCH  13  15
ATOM      7  N   UNL     1      -6.810 -12.928  14.902  0.00  0.00    -0.287 NA
ATOM     15  C   UNL     1      -6.568 -11.706  15.245  0.00  0.00    +0.044 C 
ATOM     17  C   UNL     1      -7.564 -10.832  15.915  0.00  0.00    -0.001 A 
ATOM     20  C   UNL     1      -8.906 -11.228  15.836  0.00  0.00    -0.033 A 
ATOM     21  C   UNL     1      -9.243 -12.479  15.082  0.00  0.00    +0.059 C 
ATOM     22  C   UNL     1      -8.118 -13.490  15.255  0.00  0.00    +0.146 C 
ATOM     23  C   UNL     1      -7.210  -9.658  16.584  0.00  0.00    +0.013 A 
ATOM     24  C   UNL     1      -9.896 -10.427  16.410  0.00  0.00    +0.050 A 
ATOM     26  C   UNL     1      -8.205  -8.873  17.168  0.00  0.00    +0.046 A 
ATOM     27  C   UNL     1      -9.545  -9.254  17.079  0.00  0.00    +0.120 A 
BRANCH  27   5
ATOM      5  O   UNL     1     -10.510  -8.479  17.645  0.00  0.00    -0.495 OA
ATOM     31  C   UNL     1     -10.933  -7.330  16.912  0.00  0.00    +0.277 C 
ENDBRANCH  27   5
ENDBRANCH  13  15
ENDBRANCH   8  13
BRANCH   9  14
ATOM     14  C   UNL     1      -4.103 -11.334  17.779  0.00  0.00    +0.124 C 
BRANCH  14  18
ATOM      4  O   UNL     1      -3.399 -12.144  19.967  0.00  0.00    -0.251 OA
ATOM     18  C   UNL     1      -3.945 -12.334  18.891  0.00  0.00    +0.305 C 
BRANCH  18   3
ATOM      3  O   UNL     1      -4.507 -13.515  18.528  0.00  0.00    -0.481 OA
ATOM     32  H   UNL     1      -4.671 -13.561  17.562  0.00  0.00    +0.295 HD
ENDBRANCH  18   3
ENDBRANCH  14  18
ENDBRANCH   9  14
BRANCH  16  19
ATOM     19  C   UNL     1      -3.112 -11.211  11.513  0.00  0.00    +0.138 C 
BRANCH  19  25
ATOM      1  S   UNL     1      -3.743  -9.235   9.672  0.00  0.00    -0.101 S 
ATOM     25  C   UNL     1      -4.065 -10.135  11.092  0.00  0.00    -0.001 A 
ATOM     28  C   UNL     1      -5.230  -9.733  11.708  0.00  0.00    +0.011 A 
ATOM     29  C   UNL     1      -5.867  -8.672  11.002  0.00  0.00    +0.008 A 
ATOM     30  C   UNL     1      -5.165  -8.303   9.876  0.00  0.00    +0.045 A 
ENDBRANCH  19  25
ENDBRANCH  16  19
TORSDOF 8
ENDMDL
MODEL 5
REMARK VINA RESULT:      -6.6      3.811      7.362
REMARK  Name = 51136664
REMARK  9 active torsions:
REMARK  status: ('A' for Active; 'I' for Inactive)
REMARK    1  A    between atoms: O_3  and  C_18
REMARK    2  A    between atoms: O_5  and  C_27
REMARK    3  A    between atoms: O_5  and  C_31
REMARK    4  A    between atoms: C_8  and  C_13
REMARK    5  A    between atoms: C_9  and  C_14
REMARK    6  A    between atoms: C_13  and  C_15
REMARK    7  A    between atoms: C_14  and  C_18
REMARK    8  A    between atoms: C_16  and  C_19
REMARK    9  A    between atoms: C_19  and  C_25
REMARK                            x       y       z     vdW  Elec       q    Type
REMARK                         _______ _______ _______ _____ _____    ______ ____
ROOT
ATOM      2  O   UNL     1      12.286   6.896  17.859  0.00  0.00    -0.275 OA
ATOM      6  N   UNL     1      13.939   8.527  17.935  0.00  0.00    -0.301 N 
ATOM      8  C   UNL     1      14.753  10.784  18.583  0.00  0.00    +0.016 C 
ATOM      9  C   UNL     1      14.575  11.231  17.110  0.00  0.00    +0.006 C 
ATOM     10  C   UNL     1      13.498  10.399  16.392  0.00  0.00    +0.023 C 
ATOM     11  C   UNL     1      14.993   9.264  18.643  0.00  0.00    +0.112 C 
ATOM     12  C   UNL     1      13.768   8.903  16.532  0.00  0.00    +0.108 C 
ATOM     16  C   UNL     1      13.148   7.519  18.484  0.00  0.00    +0.220 C 
ENDROOT
BRANCH   8  13
ATOM     13  C   UNL     1      13.585  11.175  19.498  0.00  0.00    +0.061 C 
BRANCH  13  15
ATOM      7  N   UNL     1      15.368  11.369  21.095  0.00  0.00    -0.287 NA
ATOM     15  C   UNL     1      14.092  11.428  20.897  0.00  0.00    +0.044 C 
ATOM     17  C   UNL     1      13.110  11.725  21.971  0.00  0.00    -0.001 A 
ATOM     20  C   UNL     1      13.553  11.572  23.291  0.00  0.00    -0.033 A 
ATOM     21  C   UNL     1      14.961  11.112  23.529  0.00  0.00    +0.059 C 
ATOM     22  C   UNL     1      15.865  11.675  22.440  0.00  0.00    +0.146 C 
ATOM     23  C   UNL     1      11.799  12.125  21.706  0.00  0.00    +0.013 A 
ATOM     24  C   UNL     1      12.666  11.796  24.347  0.00  0.00    +0.050 A 
ATOM     26  C   UNL     1      10.924  12.362  22.768  0.00  0.00    +0.046 A 
ATOM     27  C   UNL     1      11.356  12.195  24.084  0.00  0.00    +0.120 A 
BRANCH  27   5
ATOM      5  O   UNL     1      10.495  12.422  25.115  0.00  0.00    -0.495 OA
ATOM     31  C   UNL     1      10.575  13.692  25.761  0.00  0.00    +0.277 C 
ENDBRANCH  27   5
ENDBRANCH  13  15
ENDBRANCH   8  13
BRANCH   9  14
ATOM     14  C   UNL     1      14.288  12.725  16.966  0.00  0.00    +0.124 C 
BRANCH  14  18
ATOM      4  O   UNL     1      15.481  13.268  14.911  0.00  0.00    -0.251 OA
ATOM     18  C   UNL     1      14.438  13.184  15.542  0.00  0.00    +0.305 C 
BRANCH  18   3
ATOM      3  O   UNL     1      13.221  13.506  15.034  0.00  0.00    -0.481 OA
ATOM     32  H   UNL     1      13.067  14.474  15.039  0.00  0.00    +0.295 HD
ENDBRANCH  18   3
ENDBRANCH  14  18
ENDBRANCH   9  14
BRANCH  16  19
ATOM     19  C   UNL     1      13.383   7.192  19.938  0.00  0.00    +0.138 C 
BRANCH  19  25
ATOM      1  S   UNL     1      11.336   6.175  21.508  0.00  0.00    -0.101 S 
ATOM     25  C   UNL     1      12.154   7.472  20.747  0.00  0.00    -0.001 A 
ATOM     28  C   UNL     1      11.544   8.683  20.986  0.00  0.00    +0.011 A 
ATOM     29  C   UNL     1      10.388   8.544  21.808  0.00  0.00    +0.008 A 
ATOM     30  C   UNL     1      10.159   7.234  22.164  0.00  0.00    +0.045 A 
ENDBRANCH  19  25
ENDBRANCH  16  19
TORSDOF 8
ENDMDL
MODEL 6
REMARK VINA RESULT:      -6.3     28.464     31.027
REMARK  Name = 51136664
REMARK  9 active torsions:
REMARK  status: ('A' for Active; 'I' for Inactive)
REMARK    1  A    between atoms: O_3  and  C_18
REMARK    2  A    between atoms: O_5  and  C_27
REMARK    3  A    between atoms: O_5  and  C_31
REMARK    4  A    between atoms: C_8  and  C_13
REMARK    5  A    between atoms: C_9  and  C_14
REMARK    6  A    between atoms: C_13  and  C_15
REMARK    7  A    between atoms: C_14  and  C_18
REMARK    8  A    between atoms: C_16  and  C_19
REMARK    9  A    between atoms: C_19  and  C_25
REMARK                            x       y       z     vdW  Elec       q    Type
REMARK                         _______ _______ _______ _____ _____    ______ ____
ROOT
ATOM      2  O   UNL     1      -6.452  -9.260  12.811  0.00  0.00    -0.275 OA
ATOM      6  N   UNL     1      -6.554 -10.739  14.599  0.00  0.00    -0.301 N 
ATOM      8  C   UNL     1      -6.840 -11.222  17.020  0.00  0.00    +0.016 C 
ATOM      9  C   UNL     1      -5.307 -11.422  17.125  0.00  0.00    +0.006 C 
ATOM     10  C   UNL     1      -4.558 -10.624  16.042  0.00  0.00    +0.023 C 
ATOM     11  C   UNL     1      -7.310 -11.521  15.585  0.00  0.00    +0.112 C 
ATOM     12  C   UNL     1      -5.104 -10.930  14.650  0.00  0.00    +0.108 C 
ATOM     16  C   UNL     1      -7.109  -9.887  13.645  0.00  0.00    +0.220 C 
ENDROOT
BRANCH   8  13
ATOM     13  C   UNL     1      -7.318  -9.832  17.458  0.00  0.00    +0.061 C 
BRANCH  13  15
ATOM      7  N   UNL     1      -8.905 -10.776  18.994  0.00  0.00    -0.287 NA
ATOM     15  C   UNL     1      -8.709  -9.928  18.039  0.00  0.00    +0.044 C 
ATOM     17  C   UNL     1      -9.777  -9.055  17.487  0.00  0.00    -0.001 A 
ATOM     20  C   UNL     1     -11.099  -9.427  17.760  0.00  0.00    -0.033 A 
ATOM     21  C   UNL     1     -11.347 -10.668  18.566  0.00  0.00    +0.059 C 
ATOM     22  C   UNL     1     -10.240 -10.826  19.600  0.00  0.00    +0.146 C 
ATOM     23  C   UNL     1      -9.503  -7.922  16.718  0.00  0.00    +0.013 A 
ATOM     24  C   UNL     1     -12.151  -8.671  17.235  0.00  0.00    +0.050 A 
ATOM     26  C   UNL     1     -10.561  -7.164  16.211  0.00  0.00    +0.046 A 
ATOM     27  C   UNL     1     -11.880  -7.539  16.466  0.00  0.00    +0.120 A 
BRANCH  27   5
ATOM      5  O   UNL     1     -12.906  -6.799  15.962  0.00  0.00    -0.495 OA
ATOM     31  C   UNL     1     -12.582  -5.847  14.950  0.00  0.00    +0.277 C 
ENDBRANCH  27   5
ENDBRANCH  13  15
ENDBRANCH   8  13
BRANCH   9  14
ATOM     14  C   UNL     1      -4.752 -11.101  18.512  0.00  0.00    +0.124 C 
BRANCH  14  18
ATOM      4  O   UNL     1      -3.208 -12.245  20.011  0.00  0.00    -0.251 OA
ATOM     18  C   UNL     1      -4.027 -12.277  19.106  0.00  0.00    +0.305 C 
BRANCH  18   3
ATOM      3  O   UNL     1      -4.417 -13.418  18.480  0.00  0.00    -0.481 OA
ATOM     32  H   UNL     1      -4.047 -14.217  18.912  0.00  0.00    +0.295 HD
ENDBRANCH  18   3
ENDBRANCH  14  18
ENDBRANCH   9  14
BRANCH  16  19
ATOM     19  C   UNL     1      -8.609  -9.742  13.661  0.00  0.00    +0.138 C 
BRANCH  19  25
ATOM      1  S   UNL     1      -8.913 -11.919  11.970  0.00  0.00    -0.101 S 
ATOM     25  C   UNL     1      -9.206 -10.288  12.401  0.00  0.00    -0.001 A 
ATOM     28  C   UNL     1     -10.001  -9.643  11.479  0.00  0.00    +0.011 A 
ATOM     29  C   UNL     1     -10.376 -10.501  10.405  0.00  0.00    +0.008 A 
ATOM     30  C   UNL     1      -9.852 -11.767  10.545  0.00  0.00    +0.045 A 
ENDBRANCH  19  25
ENDBRANCH  16  19
TORSDOF 8
ENDMDL
MODEL 7
REMARK VINA RESULT:      -6.2     27.448     29.884
REMARK  Name = 51136664
REMARK  9 active torsions:
REMARK  status: ('A' for Active; 'I' for Inactive)
REMARK    1  A    between atoms: O_3  and  C_18
REMARK    2  A    between atoms: O_5  and  C_27
REMARK    3  A    between atoms: O_5  and  C_31
REMARK    4  A    between atoms: C_8  and  C_13
REMARK    5  A    between atoms: C_9  and  C_14
REMARK    6  A    between atoms: C_13  and  C_15
REMARK    7  A    between atoms: C_14  and  C_18
REMARK    8  A    between atoms: C_16  and  C_19
REMARK    9  A    between atoms: C_19  and  C_25
REMARK                            x       y       z     vdW  Elec       q    Type
REMARK                         _______ _______ _______ _____ _____    ______ ____
ROOT
ATOM      2  O   UNL     1      -2.610  -9.924  12.103  0.00  0.00    -0.275 OA
ATOM      6  N   UNL     1      -3.706 -11.200  13.706  0.00  0.00    -0.301 N 
ATOM      8  C   UNL     1      -5.191 -11.414  15.687  0.00  0.00    +0.016 C 
ATOM      9  C   UNL     1      -3.932 -11.656  16.559  0.00  0.00    +0.006 C 
ATOM     10  C   UNL     1      -2.683 -11.004  15.940  0.00  0.00    +0.023 C 
ATOM     11  C   UNL     1      -4.913 -11.847  14.236  0.00  0.00    +0.112 C 
ATOM     12  C   UNL     1      -2.493 -11.436  14.489  0.00  0.00    +0.108 C 
ATOM     16  C   UNL     1      -3.644 -10.436  12.542  0.00  0.00    +0.220 C 
ENDROOT
BRANCH   8  13
ATOM     13  C   UNL     1      -5.705  -9.969  15.723  0.00  0.00    +0.061 C 
BRANCH  13  15
ATOM      7  N   UNL     1      -7.720  -9.754  14.433  0.00  0.00    -0.287 NA
ATOM     15  C   UNL     1      -7.210  -9.958  15.603  0.00  0.00    +0.044 C 
ATOM     17  C   UNL     1      -8.027 -10.175  16.825  0.00  0.00    -0.001 A 
ATOM     20  C   UNL     1      -9.370  -9.781  16.764  0.00  0.00    -0.033 A 
ATOM     21  C   UNL     1      -9.883  -9.166  15.496  0.00  0.00    +0.059 C 
ATOM     22  C   UNL     1      -9.180  -9.804  14.306  0.00  0.00    +0.146 C 
ATOM     23  C   UNL     1      -7.502 -10.727  17.995  0.00  0.00    +0.013 A 
ATOM     24  C   UNL     1     -10.181  -9.921  17.893  0.00  0.00    +0.050 A 
ATOM     26  C   UNL     1      -8.325 -10.877  19.113  0.00  0.00    +0.046 A 
ATOM     27  C   UNL     1      -9.659 -10.472  19.064  0.00  0.00    +0.120 A 
BRANCH  27   5
ATOM      5  O   UNL     1     -10.453 -10.615  20.160  0.00  0.00    -0.495 OA
ATOM     31  C   UNL     1     -11.212 -11.819  20.259  0.00  0.00    +0.277 C 
ENDBRANCH  27   5
ENDBRANCH  13  15
ENDBRANCH   8  13
BRANCH   9  14
ATOM     14  C   UNL     1      -4.111 -11.209  18.009  0.00  0.00    +0.124 C 
BRANCH  14  18
ATOM      4  O   UNL     1      -3.263 -12.274  20.031  0.00  0.00    -0.251 OA
ATOM     18  C   UNL     1      -3.867 -12.339  18.971  0.00  0.00    +0.305 C 
BRANCH  18   3
ATOM      3  O   UNL     1      -4.425 -13.479  18.490  0.00  0.00    -0.481 OA
ATOM     32  H   UNL     1      -4.395 -13.516  17.510  0.00  0.00    +0.295 HD
ENDBRANCH  18   3
ENDBRANCH  14  18
ENDBRANCH   9  14
BRANCH  16  19
ATOM     19  C   UNL     1      -4.938 -10.237  11.794  0.00  0.00    +0.138 C 
BRANCH  19  25
ATOM      1  S   UNL     1      -5.022 -12.508  10.205  0.00  0.00    -0.101 S 
ATOM     25  C   UNL     1      -4.847 -10.819  10.417  0.00  0.00    -0.001 A 
ATOM     28  C   UNL     1      -4.630 -10.166   9.224  0.00  0.00    +0.011 A 
ATOM     29  C   UNL     1      -4.609 -11.065   8.119  0.00  0.00    +0.008 A 
ATOM     30  C   UNL     1      -4.809 -12.371   8.510  0.00  0.00    +0.045 A 
ENDBRANCH  19  25
ENDBRANCH  16  19
TORSDOF 8
ENDMDL
MODEL 8
REMARK VINA RESULT:      -6.1     12.091     14.144
REMARK  Name = 51136664
REMARK  9 active torsions:
REMARK  status: ('A' for Active; 'I' for Inactive)
REMARK    1  A    between atoms: O_3  and  C_18
REMARK    2  A    between atoms: O_5  and  C_27
REMARK    3  A    between atoms: O_5  and  C_31
REMARK    4  A    between atoms: C_8  and  C_13
REMARK    5  A    between atoms: C_9  and  C_14
REMARK    6  A    between atoms: C_13  and  C_15
REMARK    7  A    between atoms: C_14  and  C_18
REMARK    8  A    between atoms: C_16  and  C_19
REMARK    9  A    between atoms: C_19  and  C_25
REMARK                            x       y       z     vdW  Elec       q    Type
REMARK                         _______ _______ _______ _____ _____    ______ ____
ROOT
ATOM      2  O   UNL     1      10.588   4.329   2.784  0.00  0.00    -0.275 OA
ATOM      6  N   UNL     1       9.922   5.688   4.546  0.00  0.00    -0.301 N 
ATOM      8  C   UNL     1      10.424   7.059   6.558  0.00  0.00    +0.016 C 
ATOM      9  C   UNL     1       9.891   5.898   7.437  0.00  0.00    +0.006 C 
ATOM     10  C   UNL     1      10.031   4.541   6.726  0.00  0.00    +0.023 C 
ATOM     11  C   UNL     1       9.763   7.009   5.169  0.00  0.00    +0.112 C 
ATOM     12  C   UNL     1       9.400   4.574   5.337  0.00  0.00    +0.108 C 
ATOM     16  C   UNL     1      10.489   5.447   3.296  0.00  0.00    +0.220 C 
ENDROOT
BRANCH   8  13
ATOM     13  C   UNL     1      11.952   7.085   6.421  0.00  0.00    +0.061 C 
BRANCH  13  15
ATOM      7  N   UNL     1      11.653   9.274   7.362  0.00  0.00    -0.287 NA
ATOM     15  C   UNL     1      12.479   8.443   6.816  0.00  0.00    +0.044 C 
ATOM     17  C   UNL     1      13.906   8.760   6.554  0.00  0.00    -0.001 A 
ATOM     20  C   UNL     1      14.264  10.115   6.565  0.00  0.00    -0.033 A 
ATOM     21  C   UNL     1      13.198  11.139   6.822  0.00  0.00    +0.059 C 
ATOM     22  C   UNL     1      12.180  10.571   7.801  0.00  0.00    +0.146 C 
ATOM     23  C   UNL     1      14.863   7.777   6.292  0.00  0.00    +0.013 A 
ATOM     24  C   UNL     1      15.583  10.482   6.286  0.00  0.00    +0.050 A 
ATOM     26  C   UNL     1      16.181   8.153   6.030  0.00  0.00    +0.046 A 
ATOM     27  C   UNL     1      16.540   9.502   6.024  0.00  0.00    +0.120 A 
BRANCH  27   5
ATOM      5  O   UNL     1      17.826   9.861   5.760  0.00  0.00    -0.495 OA
ATOM     31  C   UNL     1      18.853   9.141   6.442  0.00  0.00    +0.277 C 
ENDBRANCH  27   5
ENDBRANCH  13  15
ENDBRANCH   8  13
BRANCH   9  14
ATOM     14  C   UNL     1      10.533   5.850   8.823  0.00  0.00    +0.124 C 
BRANCH  14  18
ATOM      4  O   UNL     1      10.115   4.141  10.509  0.00  0.00    -0.251 OA
ATOM     18  C   UNL     1       9.712   5.039   9.787  0.00  0.00    +0.305 C 
BRANCH  18   3
ATOM      3  O   UNL     1       8.418   5.452   9.746  0.00  0.00    -0.481 OA
ATOM     32  H   UNL     1       8.288   6.296  10.227  0.00  0.00    +0.295 HD
ENDBRANCH  18   3
ENDBRANCH  14  18
ENDBRANCH   9  14
BRANCH  16  19
ATOM     19  C   UNL     1      11.008   6.648   2.546  0.00  0.00    +0.138 C 
BRANCH  19  25
ATOM      1  S   UNL     1      13.104   5.873   0.904  0.00  0.00    -0.101 S 
ATOM     25  C   UNL     1      12.489   6.549   2.351  0.00  0.00    -0.001 A 
ATOM     28  C   UNL     1      13.494   6.940   3.209  0.00  0.00    +0.011 A 
ATOM     29  C   UNL     1      14.787   6.683   2.668  0.00  0.00    +0.008 A 
ATOM     30  C   UNL     1      14.721   6.104   1.420  0.00  0.00    +0.045 A 
ENDBRANCH  19  25
ENDBRANCH  16  19
TORSDOF 8
ENDMDL
MODEL 9
REMARK VINA RESULT:      -6.1     27.669     30.339
REMARK  Name = 51136664
REMARK  9 active torsions:
REMARK  status: ('A' for Active; 'I' for Inactive)
REMARK    1  A    between atoms: O_3  and  C_18
REMARK    2  A    between atoms: O_5  and  C_27
REMARK    3  A    between atoms: O_5  and  C_31
REMARK    4  A    between atoms: C_8  and  C_13
REMARK    5  A    between atoms: C_9  and  C_14
REMARK    6  A    between atoms: C_13  and  C_15
REMARK    7  A    between atoms: C_14  and  C_18
REMARK    8  A    between atoms: C_16  and  C_19
REMARK    9  A    between atoms: C_19  and  C_25
REMARK                            x       y       z     vdW  Elec       q    Type
REMARK                         _______ _______ _______ _____ _____    ______ ____
ROOT
ATOM      2  O   UNL     1      -2.591 -10.466  13.736  0.00  0.00    -0.275 OA
ATOM      6  N   UNL     1      -4.341 -11.395  14.950  0.00  0.00    -0.301 N 
ATOM      8  C   UNL     1      -6.672 -11.345  15.810  0.00  0.00    +0.016 C 
ATOM      9  C   UNL     1      -6.113 -10.936  17.196  0.00  0.00    +0.006 C 
ATOM     10  C   UNL     1      -4.762 -10.209  17.069  0.00  0.00    +0.023 C 
ATOM     11  C   UNL     1      -5.607 -12.135  15.029  0.00  0.00    +0.112 C 
ATOM     12  C   UNL     1      -3.770 -11.023  16.244  0.00  0.00    +0.108 C 
ATOM     16  C   UNL     1      -3.668 -11.067  13.774  0.00  0.00    +0.220 C 
ENDROOT
BRANCH   8  13
ATOM     13  C   UNL     1      -7.181 -10.165  14.971  0.00  0.00    +0.061 C 
BRANCH  13  15
ATOM      7  N   UNL     1      -8.969 -11.482  14.058  0.00  0.00    -0.287 NA
ATOM     15  C   UNL     1      -8.637 -10.371  14.628  0.00  0.00    +0.044 C 
ATOM     17  C   UNL     1      -9.607  -9.295  14.953  0.00  0.00    -0.001 A 
ATOM     20  C   UNL     1     -10.842  -9.338  14.292  0.00  0.00    -0.033 A 
ATOM     21  C   UNL     1     -11.093 -10.441  13.307  0.00  0.00    +0.059 C 
ATOM     22  C   UNL     1     -10.392 -11.708  13.780  0.00  0.00    +0.146 C 
ATOM     23  C   UNL     1      -9.323  -8.269  15.856  0.00  0.00    +0.013 A 
ATOM     24  C   UNL     1     -11.783  -8.332  14.523  0.00  0.00    +0.050 A 
ATOM     26  C   UNL     1     -10.276  -7.277  16.092  0.00  0.00    +0.046 A 
ATOM     27  C   UNL     1     -11.502  -7.306  15.425  0.00  0.00    +0.120 A 
BRANCH  27   5
ATOM      5  O   UNL     1     -12.423  -6.331  15.655  0.00  0.00    -0.495 OA
ATOM     31  C   UNL     1     -13.773  -6.748  15.854  0.00  0.00    +0.277 C 
ENDBRANCH  27   5
ENDBRANCH  13  15
ENDBRANCH   8  13
BRANCH   9  14
ATOM     14  C   UNL     1      -7.097 -10.106  18.020  0.00  0.00    +0.124 C 
BRANCH  14  18
ATOM      4  O   UNL     1      -8.001 -11.535  19.775  0.00  0.00    -0.251 OA
ATOM     18  C   UNL     1      -7.245 -10.646  19.416  0.00  0.00    +0.305 C 
BRANCH  18   3
ATOM      3  O   UNL     1      -6.399  -9.991  20.252  0.00  0.00    -0.481 OA
ATOM     32  H   UNL     1      -5.483 -10.334  20.188  0.00  0.00    +0.295 HD
ENDBRANCH  18   3
ENDBRANCH  14  18
ENDBRANCH   9  14
BRANCH  16  19
ATOM     19  C   UNL     1      -4.325 -11.483  12.481  0.00  0.00    +0.138 C 
BRANCH  19  25
ATOM      1  S   UNL     1      -5.570  -9.165  11.605  0.00  0.00    -0.101 S 
ATOM     25  C   UNL     1      -4.336 -10.347  11.505  0.00  0.00    -0.001 A 
ATOM     28  C   UNL     1      -3.455 -10.092  10.477  0.00  0.00    +0.011 A 
ATOM     29  C   UNL     1      -3.798  -8.908   9.763  0.00  0.00    +0.008 A 
ATOM     30  C   UNL     1      -4.927  -8.305  10.271  0.00  0.00    +0.045 A 
ENDBRANCH  19  25
ENDBRANCH  16  19
TORSDOF 8
ENDMDL
MODEL 10
REMARK VINA RESULT:      -6.1      3.777      5.711
REMARK  Name = 51136664
REMARK  9 active torsions:
REMARK  status: ('A' for Active; 'I' for Inactive)
REMARK    1  A    between atoms: O_3  and  C_18
REMARK    2  A    between atoms: O_5  and  C_27
REMARK    3  A    between atoms: O_5  and  C_31
REMARK    4  A    between atoms: C_8  and  C_13
REMARK    5  A    between atoms: C_9  and  C_14
REMARK    6  A    between atoms: C_13  and  C_15
REMARK    7  A    between atoms: C_14  and  C_18
REMARK    8  A    between atoms: C_16  and  C_19
REMARK    9  A    between atoms: C_19  and  C_25
REMARK                            x       y       z     vdW  Elec       q    Type
REMARK                         _______ _______ _______ _____ _____    ______ ____
ROOT
ATOM      2  O   UNL     1      12.375   6.594  19.413  0.00  0.00    -0.275 OA
ATOM      6  N   UNL     1      11.980   8.755  20.170  0.00  0.00    -0.301 N 
ATOM      8  C   UNL     1      12.402  10.628  21.748  0.00  0.00    +0.016 C 
ATOM      9  C   UNL     1      11.063  10.288  22.452  0.00  0.00    +0.006 C 
ATOM     10  C   UNL     1      10.689   8.806  22.269  0.00  0.00    +0.023 C 
ATOM     11  C   UNL     1      12.350  10.172  20.279  0.00  0.00    +0.112 C 
ATOM     12  C   UNL     1      10.705   8.407  20.796  0.00  0.00    +0.108 C 
ATOM     16  C   UNL     1      12.721   7.774  19.513  0.00  0.00    +0.220 C 
ENDROOT
BRANCH   8  13
ATOM     13  C   UNL     1      13.637  10.043  22.444  0.00  0.00    +0.061 C 
BRANCH  13  15
ATOM      7  N   UNL     1      14.528  11.586  24.055  0.00  0.00    -0.287 NA
ATOM     15  C   UNL     1      14.578  11.157  22.837  0.00  0.00    +0.044 C 
ATOM     17  C   UNL     1      15.505  11.704  21.814  0.00  0.00    -0.001 A 
ATOM     20  C   UNL     1      16.071  12.957  22.081  0.00  0.00    -0.033 A 
ATOM     21  C   UNL     1      15.701  13.658  23.354  0.00  0.00    +0.059 C 
ATOM     22  C   UNL     1      15.484  12.626  24.452  0.00  0.00    +0.146 C 
ATOM     23  C   UNL     1      15.803  11.030  20.627  0.00  0.00    +0.013 A 
ATOM     24  C   UNL     1      16.920  13.546  21.140  0.00  0.00    +0.050 A 
ATOM     26  C   UNL     1      16.664  11.620  19.700  0.00  0.00    +0.046 A 
ATOM     27  C   UNL     1      17.219  12.875  19.954  0.00  0.00    +0.120 A 
BRANCH  27   5
ATOM      5  O   UNL     1      18.052  13.446  19.041  0.00  0.00    -0.495 OA
ATOM     31  C   UNL     1      19.356  12.883  18.911  0.00  0.00    +0.277 C 
ENDBRANCH  27   5
ENDBRANCH  13  15
ENDBRANCH   8  13
BRANCH   9  14
ATOM     14  C   UNL     1      11.048  10.670  23.932  0.00  0.00    +0.124 C 
BRANCH  14  18
ATOM      4  O   UNL     1      10.351  12.966  23.502  0.00  0.00    -0.251 OA
ATOM     18  C   UNL     1      11.034  12.162  24.119  0.00  0.00    +0.305 C 
BRANCH  18   3
ATOM      3  O   UNL     1      11.910  12.509  25.097  0.00  0.00    -0.481 OA
ATOM     32  H   UNL     1      12.675  13.010  24.742  0.00  0.00    +0.295 HD
ENDBRANCH  18   3
ENDBRANCH  14  18
ENDBRANCH   9  14
BRANCH  16  19
ATOM     19  C   UNL     1      14.026   8.212  18.896  0.00  0.00    +0.138 C 
BRANCH  19  25
ATOM      1  S   UNL     1      15.475   7.439  21.131  0.00  0.00    -0.101 S 
ATOM     25  C   UNL     1      15.165   7.411  19.447  0.00  0.00    -0.001 A 
ATOM     28  C   UNL     1      16.056   6.609  18.769  0.00  0.00    +0.011 A 
ATOM     29  C   UNL     1      17.006   6.008  19.644  0.00  0.00    +0.008 A 
ATOM     30  C   UNL     1      16.805   6.373  20.956  0.00  0.00    +0.045 A 
ENDBRANCH  19  25
ENDBRANCH  16  19
TORSDOF 8
ENDMDL
