MODEL 1
REMARK VINA RESULT:      -6.4      0.000      0.000
REMARK  Name = 38026882
REMARK  12 active torsions:
REMARK  status: ('A' for Active; 'I' for Inactive)
REMARK    1  A    between atoms: N_5  and  C_16
REMARK    2  A    between atoms: N_7  and  C_27
REMARK    3  A    between atoms: C_8  and  C_12
REMARK    4  A    between atoms: C_9  and  C_16
REMARK    5  A    between atoms: C_11  and  C_15
REMARK    6  A    between atoms: C_12  and  C_17
REMARK    7  A    between atoms: C_12  and  C_18
REMARK    8  A    between atoms: C_13  and  C_19
REMARK    9  A    between atoms: C_15  and  C_20
REMARK   10  A    between atoms: C_26  and  C_28
REMARK   11  A    between atoms: C_27  and  C_29
REMARK   12  A    between atoms: C_27  and  C_30
REMARK                            x       y       z     vdW  Elec       q    Type
REMARK                         _______ _______ _______ _____ _____    ______ ____
ROOT
ATOM      8  C   UNL     1      -2.940 -12.537  13.208  0.00  0.00    +0.000 C 
ATOM      9  C   UNL     1      -1.974 -11.333  13.349  0.00  0.00    +0.032 C 
ATOM     10  C   UNL     1      -3.124 -12.907  11.729  0.00  0.00    +0.012 C 
ATOM     11  C   UNL     1      -3.682 -11.734  10.900  0.00  0.00    +0.023 C 
ATOM     13  C   UNL     1      -2.947 -10.441  11.188  0.00  0.00    -0.073 C 
ATOM     14  C   UNL     1      -2.177 -10.285  12.280  0.00  0.00    -0.022 C 
ATOM     19  C   UNL     1      -3.079  -9.345  10.167  0.00  0.00    +0.039 C 
ENDROOT
BRANCH   8  12
ATOM     12  C   UNL     1      -2.445 -13.757  13.991  0.00  0.00    -0.013 C 
ATOM     17  C   UNL     1      -3.611 -14.452  14.686  0.00  0.00    +0.007 C 
ATOM     18  C   UNL     1      -1.714 -14.723  13.062  0.00  0.00    +0.007 C 
ENDBRANCH   8  12
BRANCH  11  15
ATOM     15  C   UNL     1      -5.189 -11.569  11.122  0.00  0.00    +0.103 C 
BRANCH  15  20
ATOM      1  O   UNL     1      -5.827 -12.792   9.194  0.00  0.00    -0.276 OA
ATOM      3  O   UNL     1      -8.186  -6.119   8.197  0.00  0.00    -0.276 OA
ATOM      4  N   UNL     1      -6.669 -10.635   9.380  0.00  0.00    -0.298 N 
ATOM      6  N   UNL     1      -7.291  -8.251   7.981  0.00  0.00    -0.299 N 
ATOM     20  C   UNL     1      -5.921 -11.729   9.813  0.00  0.00    +0.216 C 
ATOM     21  C   UNL     1      -7.407 -10.708   8.116  0.00  0.00    +0.126 C 
ATOM     22  C   UNL     1      -6.861  -9.385  10.127  0.00  0.00    +0.126 C 
ATOM     23  C   UNL     1      -7.099  -9.501   7.234  0.00  0.00    +0.126 C 
ATOM     24  C   UNL     1      -6.553  -8.178   9.244  0.00  0.00    +0.126 C 
ATOM     26  C   UNL     1      -8.040  -7.158   7.549  0.00  0.00    +0.213 C 
ATOM     28  C   UNL     1      -8.707  -7.288   6.202  0.00  0.00    +0.109 C 
ENDBRANCH  15  20
ENDBRANCH  11  15
BRANCH   9  16
ATOM     16  C   UNL     1      -2.098 -10.684  14.732  0.00  0.00    +0.113 C 
BRANCH  16   5
ATOM      2  O   UNL     1      -3.665 -11.359  17.059  0.00  0.00    -0.253 OA
ATOM      5  N   UNL     1      -3.452 -10.308  14.998  0.00  0.00    -0.299 N 
ATOM      7  N   UNL     1      -5.448 -10.179  16.159  0.00  0.00    -0.297 N 
ATOM     25  C   UNL     1      -4.148 -10.678  16.156  0.00  0.00    +0.300 C 
ATOM     31  H   UNL     1      -3.920  -9.688  14.344  0.00  0.00    +0.150 HD
ATOM     32  H   UNL     1      -5.731  -9.567  15.400  0.00  0.00    +0.150 HD
BRANCH   7  27
ATOM     27  C   UNL     1      -6.375 -10.417  17.239  0.00  0.00    +0.068 C 
ATOM     29  C   UNL     1      -6.987 -11.806  17.116  0.00  0.00    +0.027 C 
ATOM     30  C   UNL     1      -7.452  -9.339  17.267  0.00  0.00    +0.027 C 
ENDBRANCH   7  27
ENDBRANCH  16   5
ENDBRANCH   9  16
TORSDOF 6
ENDMDL
MODEL 2
REMARK VINA RESULT:      -6.3      4.928      7.758
REMARK  Name = 38026882
REMARK  12 active torsions:
REMARK  status: ('A' for Active; 'I' for Inactive)
REMARK    1  A    between atoms: N_5  and  C_16
REMARK    2  A    between atoms: N_7  and  C_27
REMARK    3  A    between atoms: C_8  and  C_12
REMARK    4  A    between atoms: C_9  and  C_16
REMARK    5  A    between atoms: C_11  and  C_15
REMARK    6  A    between atoms: C_12  and  C_17
REMARK    7  A    between atoms: C_12  and  C_18
REMARK    8  A    between atoms: C_13  and  C_19
REMARK    9  A    between atoms: C_15  and  C_20
REMARK   10  A    between atoms: C_26  and  C_28
REMARK   11  A    between atoms: C_27  and  C_29
REMARK   12  A    between atoms: C_27  and  C_30
REMARK                            x       y       z     vdW  Elec       q    Type
REMARK                         _______ _______ _______ _____ _____    ______ ____
ROOT
ATOM      8  C   UNL     1      -8.227 -10.238  17.869  0.00  0.00    +0.000 C 
ATOM      9  C   UNL     1      -7.414 -10.259  16.550  0.00  0.00    +0.032 C 
ATOM     10  C   UNL     1      -9.659 -10.735  17.625  0.00  0.00    +0.012 C 
ATOM     11  C   UNL     1     -10.403  -9.882  16.579  0.00  0.00    +0.023 C 
ATOM     13  C   UNL     1      -9.554  -9.632  15.350  0.00  0.00    -0.073 C 
ATOM     14  C   UNL     1      -8.222  -9.819  15.351  0.00  0.00    -0.022 C 
ATOM     19  C   UNL     1     -10.278  -9.206  14.102  0.00  0.00    +0.039 C 
ENDROOT
BRANCH   8  12
ATOM     12  C   UNL     1      -7.562 -11.083  18.959  0.00  0.00    -0.013 C 
ATOM     17  C   UNL     1      -7.056 -12.399  18.377  0.00  0.00    +0.007 C 
ATOM     18  C   UNL     1      -6.423 -10.306  19.614  0.00  0.00    +0.007 C 
ENDBRANCH   8  12
BRANCH  11  15
ATOM     15  C   UNL     1     -10.887  -8.562  17.189  0.00  0.00    +0.103 C 
BRANCH  15  20
ATOM      1  O   UNL     1     -13.175  -9.179  17.148  0.00  0.00    -0.276 OA
ATOM      3  O   UNL     1     -12.602  -3.366  13.029  0.00  0.00    -0.276 OA
ATOM      4  N   UNL     1     -12.629  -7.152  16.152  0.00  0.00    -0.298 N 
ATOM      6  N   UNL     1     -13.135  -5.422  13.967  0.00  0.00    -0.299 N 
ATOM     20  C   UNL     1     -12.334  -8.333  16.833  0.00  0.00    +0.216 C 
ATOM     21  C   UNL     1     -14.012  -6.857  15.767  0.00  0.00    +0.126 C 
ATOM     22  C   UNL     1     -11.666  -6.092  15.829  0.00  0.00    +0.126 C 
ATOM     23  C   UNL     1     -14.099  -6.482  14.290  0.00  0.00    +0.126 C 
ATOM     24  C   UNL     1     -11.753  -5.718  14.351  0.00  0.00    +0.126 C 
ATOM     26  C   UNL     1     -13.431  -4.242  13.288  0.00  0.00    +0.213 C 
ATOM     28  C   UNL     1     -14.865  -4.049  12.861  0.00  0.00    +0.109 C 
ENDBRANCH  15  20
ENDBRANCH  11  15
BRANCH   9  16
ATOM     16  C   UNL     1      -6.154  -9.394  16.662  0.00  0.00    +0.113 C 
BRANCH  16   5
ATOM      2  O   UNL     1      -3.832 -11.031  17.170  0.00  0.00    -0.253 OA
ATOM      5  N   UNL     1      -5.167  -9.808  15.713  0.00  0.00    -0.299 N 
ATOM      7  N   UNL     1      -3.263 -10.859  14.928  0.00  0.00    -0.297 N 
ATOM     25  C   UNL     1      -4.063 -10.606  16.039  0.00  0.00    +0.300 C 
ATOM     31  H   UNL     1      -5.303  -9.566  14.736  0.00  0.00    +0.150 HD
ATOM     32  H   UNL     1      -3.576 -10.524  14.021  0.00  0.00    +0.150 HD
BRANCH   7  27
ATOM     27  C   UNL     1      -2.062 -11.657  14.994  0.00  0.00    +0.068 C 
ATOM     29  C   UNL     1      -0.883 -10.805  15.442  0.00  0.00    +0.027 C 
ATOM     30  C   UNL     1      -1.785 -12.319  13.649  0.00  0.00    +0.027 C 
ENDBRANCH   7  27
ENDBRANCH  16   5
ENDBRANCH   9  16
TORSDOF 6
ENDMDL
MODEL 3
REMARK VINA RESULT:      -6.2     23.267     25.899
REMARK  Name = 38026882
REMARK  12 active torsions:
REMARK  status: ('A' for Active; 'I' for Inactive)
REMARK    1  A    between atoms: N_5  and  C_16
REMARK    2  A    between atoms: N_7  and  C_27
REMARK    3  A    between atoms: C_8  and  C_12
REMARK    4  A    between atoms: C_9  and  C_16
REMARK    5  A    between atoms: C_11  and  C_15
REMARK    6  A    between atoms: C_12  and  C_17
REMARK    7  A    between atoms: C_12  and  C_18
REMARK    8  A    between atoms: C_13  and  C_19
REMARK    9  A    between atoms: C_15  and  C_20
REMARK   10  A    between atoms: C_26  and  C_28
REMARK   11  A    between atoms: C_27  and  C_29
REMARK   12  A    between atoms: C_27  and  C_30
REMARK                            x       y       z     vdW  Elec       q    Type
REMARK                         _______ _______ _______ _____ _____    ______ ____
ROOT
ATOM      8  C   UNL     1       9.022   8.539   5.161  0.00  0.00    +0.000 C 
ATOM      9  C   UNL     1       8.739   9.123   6.568  0.00  0.00    +0.032 C 
ATOM     10  C   UNL     1       8.501   7.097   5.064  0.00  0.00    +0.012 C 
ATOM     11  C   UNL     1       9.146   6.173   6.114  0.00  0.00    +0.023 C 
ATOM     13  C   UNL     1       9.146   6.801   7.493  0.00  0.00    -0.073 C 
ATOM     14  C   UNL     1       8.949   8.118   7.677  0.00  0.00    -0.022 C 
ATOM     19  C   UNL     1       9.332   5.872   8.660  0.00  0.00    +0.039 C 
ENDROOT
BRANCH   8  12
ATOM     12  C   UNL     1       8.394   9.393   4.056  0.00  0.00    -0.013 C 
ATOM     17  C   UNL     1       8.467   8.667   2.716  0.00  0.00    +0.007 C 
ATOM     18  C   UNL     1       6.950   9.740   4.406  0.00  0.00    +0.007 C 
ENDBRANCH   8  12
BRANCH  11  15
ATOM     15  C   UNL     1      10.563   5.767   5.696  0.00  0.00    +0.103 C 
BRANCH  15  20
ATOM      1  O   UNL     1       9.996   3.543   5.105  0.00  0.00    -0.276 OA
ATOM      3  O   UNL     1      13.930   6.099  -0.286  0.00  0.00    -0.276 OA
ATOM      4  N   UNL     1      11.039   4.817   3.467  0.00  0.00    -0.298 N 
ATOM      6  N   UNL     1      12.948   4.807   1.374  0.00  0.00    -0.299 N 
ATOM     20  C   UNL     1      10.502   4.606   4.736  0.00  0.00    +0.216 C 
ATOM     21  C   UNL     1      11.022   3.737   2.476  0.00  0.00    +0.126 C 
ATOM     22  C   UNL     1      11.580   6.090   2.972  0.00  0.00    +0.126 C 
ATOM     23  C   UNL     1      12.407   3.534   1.868  0.00  0.00    +0.126 C 
ATOM     24  C   UNL     1      12.965   5.885   2.364  0.00  0.00    +0.126 C 
ATOM     26  C   UNL     1      13.483   5.019   0.104  0.00  0.00    +0.213 C 
ATOM     28  C   UNL     1      13.495   3.834  -0.829  0.00  0.00    +0.109 C 
ENDBRANCH  15  20
ENDBRANCH  11  15
BRANCH   9  16
ATOM     16  C   UNL     1       9.597  10.365   6.835  0.00  0.00    +0.113 C 
BRANCH  16   5
ATOM      2  O   UNL     1      11.952  10.519   5.175  0.00  0.00    -0.253 OA
ATOM      5  N   UNL     1      10.930   9.994   7.194  0.00  0.00    -0.299 N 
ATOM      7  N   UNL     1      13.205   9.668   6.932  0.00  0.00    -0.297 N 
ATOM     25  C   UNL     1      12.026  10.097   6.328  0.00  0.00    +0.300 C 
ATOM     31  H   UNL     1      11.110   9.696   8.149  0.00  0.00    +0.150 HD
ATOM     32  H   UNL     1      13.176   9.404   7.913  0.00  0.00    +0.150 HD
BRANCH   7  27
ATOM     27  C   UNL     1      14.479   9.673   6.254  0.00  0.00    +0.068 C 
ATOM     29  C   UNL     1      15.135   8.301   6.348  0.00  0.00    +0.027 C 
ATOM     30  C   UNL     1      15.385  10.758   6.824  0.00  0.00    +0.027 C 
ENDBRANCH   7  27
ENDBRANCH  16   5
ENDBRANCH   9  16
TORSDOF 6
ENDMDL
MODEL 4
REMARK VINA RESULT:      -6.2      2.199      3.694
REMARK  Name = 38026882
REMARK  12 active torsions:
REMARK  status: ('A' for Active; 'I' for Inactive)
REMARK    1  A    between atoms: N_5  and  C_16
REMARK    2  A    between atoms: N_7  and  C_27
REMARK    3  A    between atoms: C_8  and  C_12
REMARK    4  A    between atoms: C_9  and  C_16
REMARK    5  A    between atoms: C_11  and  C_15
REMARK    6  A    between atoms: C_12  and  C_17
REMARK    7  A    between atoms: C_12  and  C_18
REMARK    8  A    between atoms: C_13  and  C_19
REMARK    9  A    between atoms: C_15  and  C_20
REMARK   10  A    between atoms: C_26  and  C_28
REMARK   11  A    between atoms: C_27  and  C_29
REMARK   12  A    between atoms: C_27  and  C_30
REMARK                            x       y       z     vdW  Elec       q    Type
REMARK                         _______ _______ _______ _____ _____    ______ ____
ROOT
ATOM      8  C   UNL     1      -4.917 -12.215  16.043  0.00  0.00    +0.000 C 
ATOM      9  C   UNL     1      -4.178 -11.625  17.271  0.00  0.00    +0.032 C 
ATOM     10  C   UNL     1      -3.907 -12.706  14.995  0.00  0.00    +0.012 C 
ATOM     11  C   UNL     1      -2.976 -11.578  14.510  0.00  0.00    +0.023 C 
ATOM     13  C   UNL     1      -2.416 -10.774  15.665  0.00  0.00    -0.073 C 
ATOM     14  C   UNL     1      -2.958 -10.818  16.895  0.00  0.00    -0.022 C 
ATOM     19  C   UNL     1      -1.188  -9.952  15.386  0.00  0.00    +0.039 C 
ENDROOT
BRANCH   8  12
ATOM     12  C   UNL     1      -5.852 -13.361  16.439  0.00  0.00    -0.013 C 
ATOM     17  C   UNL     1      -7.123 -13.326  15.595  0.00  0.00    +0.007 C 
ATOM     18  C   UNL     1      -5.141 -14.703  16.292  0.00  0.00    +0.007 C 
ENDBRANCH   8  12
BRANCH  11  15
ATOM     15  C   UNL     1      -3.689 -10.668  13.504  0.00  0.00    +0.103 C 
BRANCH  15  20
ATOM      1  O   UNL     1      -2.318 -11.692  11.864  0.00  0.00    -0.276 OA
ATOM      3  O   UNL     1      -7.762  -8.702   8.328  0.00  0.00    -0.276 OA
ATOM      4  N   UNL     1      -4.357 -10.853  11.134  0.00  0.00    -0.298 N 
ATOM      6  N   UNL     1      -5.696  -9.481   9.048  0.00  0.00    -0.299 N 
ATOM     20  C   UNL     1      -3.386 -11.121  12.098  0.00  0.00    +0.216 C 
ATOM     21  C   UNL     1      -4.137 -11.258   9.742  0.00  0.00    +0.126 C 
ATOM     22  C   UNL     1      -5.668 -10.243  11.391  0.00  0.00    +0.126 C 
ATOM     23  C   UNL     1      -4.385 -10.091   8.789  0.00  0.00    +0.126 C 
ATOM     24  C   UNL     1      -5.915  -9.077  10.438  0.00  0.00    +0.126 C 
ATOM     26  C   UNL     1      -6.667  -9.215   8.084  0.00  0.00    +0.213 C 
ATOM     28  C   UNL     1      -6.331  -9.596   6.664  0.00  0.00    +0.109 C 
ENDBRANCH  15  20
ENDBRANCH  11  15
BRANCH   9  16
ATOM     16  C   UNL     1      -5.119 -10.763  18.121  0.00  0.00    +0.113 C 
BRANCH  16   5
ATOM      2  O   UNL     1      -8.004 -10.719  18.094  0.00  0.00    -0.253 OA
ATOM      5  N   UNL     1      -5.961  -9.959  17.290  0.00  0.00    -0.299 N 
ATOM      7  N   UNL     1      -7.930  -9.114  16.421  0.00  0.00    -0.297 N 
ATOM     25  C   UNL     1      -7.360  -9.996  17.335  0.00  0.00    +0.300 C 
ATOM     31  H   UNL     1      -5.526  -9.278  16.675  0.00  0.00    +0.150 HD
ATOM     32  H   UNL     1      -7.314  -8.506  15.888  0.00  0.00    +0.150 HD
BRANCH   7  27
ATOM     27  C   UNL     1      -9.357  -8.958  16.268  0.00  0.00    +0.068 C 
ATOM     29  C   UNL     1      -9.718  -8.797  14.797  0.00  0.00    +0.027 C 
ATOM     30  C   UNL     1      -9.858  -7.779  17.092  0.00  0.00    +0.027 C 
ENDBRANCH   7  27
ENDBRANCH  16   5
ENDBRANCH   9  16
TORSDOF 6
ENDMDL
MODEL 5
REMARK VINA RESULT:      -6.1     19.968     23.025
REMARK  Name = 38026882
REMARK  12 active torsions:
REMARK  status: ('A' for Active; 'I' for Inactive)
REMARK    1  A    between atoms: N_5  and  C_16
REMARK    2  A    between atoms: N_7  and  C_27
REMARK    3  A    between atoms: C_8  and  C_12
REMARK    4  A    between atoms: C_9  and  C_16
REMARK    5  A    between atoms: C_11  and  C_15
REMARK    6  A    between atoms: C_12  and  C_17
REMARK    7  A    between atoms: C_12  and  C_18
REMARK    8  A    between atoms: C_13  and  C_19
REMARK    9  A    between atoms: C_15  and  C_20
REMARK   10  A    between atoms: C_26  and  C_28
REMARK   11  A    between atoms: C_27  and  C_29
REMARK   12  A    between atoms: C_27  and  C_30
REMARK                            x       y       z     vdW  Elec       q    Type
REMARK                         _______ _______ _______ _____ _____    ______ ____
ROOT
ATOM      8  C   UNL     1     -11.834  10.021  18.901  0.00  0.00    +0.000 C 
ATOM      9  C   UNL     1     -10.630   9.049  18.808  0.00  0.00    +0.032 C 
ATOM     10  C   UNL     1     -12.409  10.027  20.325  0.00  0.00    +0.012 C 
ATOM     11  C   UNL     1     -12.876   8.628  20.771  0.00  0.00    +0.023 C 
ATOM     13  C   UNL     1     -11.841   7.565  20.464  0.00  0.00    -0.073 C 
ATOM     14  C   UNL     1     -10.837   7.776  19.594  0.00  0.00    -0.022 C 
ATOM     19  C   UNL     1     -11.960   6.267  21.214  0.00  0.00    +0.039 C 
ENDROOT
BRANCH   8  12
ATOM     12  C   UNL     1     -11.447  11.445  18.491  0.00  0.00    -0.013 C 
ATOM     17  C   UNL     1     -11.834  11.705  17.039  0.00  0.00    +0.007 C 
ATOM     18  C   UNL     1     -12.106  12.462  19.418  0.00  0.00    +0.007 C 
ENDBRANCH   8  12
BRANCH  11  15
ATOM     15  C   UNL     1     -14.229   8.273  20.147  0.00  0.00    +0.103 C 
BRANCH  15  20
ATOM      1  O   UNL     1     -15.656   9.412  21.658  0.00  0.00    -0.276 OA
ATOM      3  O   UNL     1     -16.456   2.443  23.027  0.00  0.00    -0.276 OA
ATOM      4  N   UNL     1     -15.848   7.098  21.594  0.00  0.00    -0.298 N 
ATOM      6  N   UNL     1     -16.215   4.749  23.136  0.00  0.00    -0.299 N 
ATOM     20  C   UNL     1     -15.308   8.321  21.199  0.00  0.00    +0.216 C 
ATOM     21  C   UNL     1     -16.899   7.058  22.615  0.00  0.00    +0.126 C 
ATOM     22  C   UNL     1     -15.510   5.790  21.017  0.00  0.00    +0.126 C 
ATOM     23  C   UNL     1     -16.554   6.056  23.714  0.00  0.00    +0.126 C 
ATOM     24  C   UNL     1     -15.165   4.789  22.116  0.00  0.00    +0.126 C 
ATOM     26  C   UNL     1     -16.757   3.527  23.530  0.00  0.00    +0.213 C 
ATOM     28  C   UNL     1     -17.779   3.568  24.639  0.00  0.00    +0.109 C 
ENDBRANCH  15  20
ENDBRANCH  11  15
BRANCH   9  16
ATOM     16  C   UNL     1     -10.310   8.703  17.349  0.00  0.00    +0.113 C 
BRANCH  16   5
ATOM      2  O   UNL     1     -10.985   9.089  14.570  0.00  0.00    -0.253 OA
ATOM      5  N   UNL     1     -11.477   8.230  16.671  0.00  0.00    -0.299 N 
ATOM      7  N   UNL     1     -12.940   7.890  14.913  0.00  0.00    -0.297 N 
ATOM     25  C   UNL     1     -11.735   8.461  15.314  0.00  0.00    +0.300 C 
ATOM     31  H   UNL     1     -12.129   7.641  17.182  0.00  0.00    +0.150 HD
ATOM     32  H   UNL     1     -13.455   7.328  15.584  0.00  0.00    +0.150 HD
BRANCH   7  27
ATOM     27  C   UNL     1     -13.438   7.982  13.561  0.00  0.00    +0.068 C 
ATOM     29  C   UNL     1     -14.579   8.989  13.484  0.00  0.00    +0.027 C 
ATOM     30  C   UNL     1     -13.877   6.612  13.057  0.00  0.00    +0.027 C 
ENDBRANCH   7  27
ENDBRANCH  16   5
ENDBRANCH   9  16
TORSDOF 6
ENDMDL
MODEL 6
REMARK VINA RESULT:      -6.0      2.370      8.877
REMARK  Name = 38026882
REMARK  12 active torsions:
REMARK  status: ('A' for Active; 'I' for Inactive)
REMARK    1  A    between atoms: N_5  and  C_16
REMARK    2  A    between atoms: N_7  and  C_27
REMARK    3  A    between atoms: C_8  and  C_12
REMARK    4  A    between atoms: C_9  and  C_16
REMARK    5  A    between atoms: C_11  and  C_15
REMARK    6  A    between atoms: C_12  and  C_17
REMARK    7  A    between atoms: C_12  and  C_18
REMARK    8  A    between atoms: C_13  and  C_19
REMARK    9  A    between atoms: C_15  and  C_20
REMARK   10  A    between atoms: C_26  and  C_28
REMARK   11  A    between atoms: C_27  and  C_29
REMARK   12  A    between atoms: C_27  and  C_30
REMARK                            x       y       z     vdW  Elec       q    Type
REMARK                         _______ _______ _______ _____ _____    ______ ____
ROOT
ATOM      8  C   UNL     1      -6.397  -9.733   9.970  0.00  0.00    +0.000 C 
ATOM      9  C   UNL     1      -5.515  -9.172   8.826  0.00  0.00    +0.032 C 
ATOM     10  C   UNL     1      -5.924  -9.191  11.327  0.00  0.00    +0.012 C 
ATOM     11  C   UNL     1      -4.455  -9.554  11.620  0.00  0.00    +0.023 C 
ATOM     13  C   UNL     1      -3.559  -9.277  10.431  0.00  0.00    -0.073 C 
ATOM     14  C   UNL     1      -4.051  -9.096   9.193  0.00  0.00    -0.022 C 
ATOM     19  C   UNL     1      -2.084  -9.168  10.705  0.00  0.00    +0.039 C 
ENDROOT
BRANCH   8  12
ATOM     12  C   UNL     1      -7.877  -9.396   9.763  0.00  0.00    -0.013 C 
ATOM     17  C   UNL     1      -8.650  -9.572  11.066  0.00  0.00    +0.007 C 
ATOM     18  C   UNL     1      -8.028  -7.973   9.232  0.00  0.00    +0.007 C 
ENDBRANCH   8  12
BRANCH  11  15
ATOM     15  C   UNL     1      -4.329 -11.012  12.075  0.00  0.00    +0.103 C 
BRANCH  15  20
ATOM      1  O   UNL     1      -2.332 -11.366  13.303  0.00  0.00    -0.276 OA
ATOM      3  O   UNL     1      -7.558 -10.725  18.136  0.00  0.00    -0.276 OA
ATOM      4  N   UNL     1      -4.224 -10.820  14.535  0.00  0.00    -0.298 N 
ATOM      6  N   UNL     1      -5.684 -11.334  16.908  0.00  0.00    -0.299 N 
ATOM     20  C   UNL     1      -3.532 -11.083  13.354  0.00  0.00    +0.216 C 
ATOM     21  C   UNL     1      -3.522 -10.873  15.821  0.00  0.00    +0.126 C 
ATOM     22  C   UNL     1      -5.631 -10.409  14.625  0.00  0.00    +0.126 C 
ATOM     23  C   UNL     1      -4.277 -11.747  16.819  0.00  0.00    +0.126 C 
ATOM     24  C   UNL     1      -6.385 -11.283  15.623  0.00  0.00    +0.126 C 
ATOM     26  C   UNL     1      -6.376 -11.070  18.089  0.00  0.00    +0.213 C 
ATOM     28  C   UNL     1      -5.599 -11.219  19.373  0.00  0.00    +0.109 C 
ENDBRANCH  15  20
ENDBRANCH  11  15
BRANCH   9  16
ATOM     16  C   UNL     1      -5.678  -9.998   7.545  0.00  0.00    +0.113 C 
BRANCH  16   5
ATOM      2  O   UNL     1      -8.107 -10.024   5.987  0.00  0.00    -0.253 OA
ATOM      5  N   UNL     1      -5.999  -9.156   6.435  0.00  0.00    -0.299 N 
ATOM      7  N   UNL     1      -7.255  -8.296   4.694  0.00  0.00    -0.297 N 
ATOM     25  C   UNL     1      -7.204  -9.230   5.726  0.00  0.00    +0.300 C 
ATOM     31  H   UNL     1      -5.346  -8.420   6.182  0.00  0.00    +0.150 HD
ATOM     32  H   UNL     1      -6.488  -7.636   4.603  0.00  0.00    +0.150 HD
BRANCH   7  27
ATOM     27  C   UNL     1      -8.390  -8.166   3.812  0.00  0.00    +0.068 C 
ATOM     29  C   UNL     1      -7.941  -7.681   2.439  0.00  0.00    +0.027 C 
ATOM     30  C   UNL     1      -9.431  -7.230   4.415  0.00  0.00    +0.027 C 
ENDBRANCH   7  27
ENDBRANCH  16   5
ENDBRANCH   9  16
TORSDOF 6
ENDMDL
MODEL 7
REMARK VINA RESULT:      -5.9     24.286     28.977
REMARK  Name = 38026882
REMARK  12 active torsions:
REMARK  status: ('A' for Active; 'I' for Inactive)
REMARK    1  A    between atoms: N_5  and  C_16
REMARK    2  A    between atoms: N_7  and  C_27
REMARK    3  A    between atoms: C_8  and  C_12
REMARK    4  A    between atoms: C_9  and  C_16
REMARK    5  A    between atoms: C_11  and  C_15
REMARK    6  A    between atoms: C_12  and  C_17
REMARK    7  A    between atoms: C_12  and  C_18
REMARK    8  A    between atoms: C_13  and  C_19
REMARK    9  A    between atoms: C_15  and  C_20
REMARK   10  A    between atoms: C_26  and  C_28
REMARK   11  A    between atoms: C_27  and  C_29
REMARK   12  A    between atoms: C_27  and  C_30
REMARK                            x       y       z     vdW  Elec       q    Type
REMARK                         _______ _______ _______ _____ _____    ______ ____
ROOT
ATOM      8  C   UNL     1     -14.009   9.733  32.366  0.00  0.00    +0.000 C 
ATOM      9  C   UNL     1     -12.897  10.346  33.254  0.00  0.00    +0.032 C 
ATOM     10  C   UNL     1     -15.015   8.955  33.227  0.00  0.00    +0.012 C 
ATOM     11  C   UNL     1     -14.345   7.818  34.022  0.00  0.00    +0.023 C 
ATOM     13  C   UNL     1     -13.081   8.285  34.714  0.00  0.00    -0.073 C 
ATOM     14  C   UNL     1     -12.455   9.424  34.367  0.00  0.00    -0.022 C 
ATOM     19  C   UNL     1     -12.575   7.435  35.847  0.00  0.00    +0.039 C 
ENDROOT
BRANCH   8  12
ATOM     12  C   UNL     1     -14.741  10.805  31.553  0.00  0.00    -0.013 C 
ATOM     17  C   UNL     1     -15.219  10.231  30.224  0.00  0.00    +0.007 C 
ATOM     18  C   UNL     1     -15.913  11.370  32.352  0.00  0.00    +0.007 C 
ENDBRANCH   8  12
BRANCH  11  15
ATOM     15  C   UNL     1     -14.065   6.608  33.125  0.00  0.00    +0.103 C 
BRANCH  15  20
ATOM      1  O   UNL     1     -15.430   5.472  34.694  0.00  0.00    -0.276 OA
ATOM      3  O   UNL     1     -13.774   0.684  29.653  0.00  0.00    -0.276 OA
ATOM      4  N   UNL     1     -14.918   4.323  32.741  0.00  0.00    -0.298 N 
ATOM      6  N   UNL     1     -14.230   1.809  31.632  0.00  0.00    -0.299 N 
ATOM     20  C   UNL     1     -14.868   5.422  33.597  0.00  0.00    +0.216 C 
ATOM     21  C   UNL     1     -15.675   3.129  33.128  0.00  0.00    +0.126 C 
ATOM     22  C   UNL     1     -14.323   4.260  31.400  0.00  0.00    +0.126 C 
ATOM     23  C   UNL     1     -14.825   1.871  32.974  0.00  0.00    +0.126 C 
ATOM     24  C   UNL     1     -13.473   3.002  31.247  0.00  0.00    +0.126 C 
ATOM     26  C   UNL     1     -14.282   0.710  30.776  0.00  0.00    +0.213 C 
ATOM     28  C   UNL     1     -15.018  -0.506  31.282  0.00  0.00    +0.109 C 
ENDBRANCH  15  20
ENDBRANCH  11  15
BRANCH   9  16
ATOM     16  C   UNL     1     -11.680  10.753  32.415  0.00  0.00    +0.113 C 
BRANCH  16   5
ATOM      2  O   UNL     1     -11.214  12.074  29.892  0.00  0.00    -0.253 OA
ATOM      5  N   UNL     1     -11.743  10.168  31.112  0.00  0.00    -0.299 N 
ATOM      7  N   UNL     1     -11.631  10.067  28.804  0.00  0.00    -0.297 N 
ATOM     25  C   UNL     1     -11.504  10.879  29.929  0.00  0.00    +0.300 C 
ATOM     31  H   UNL     1     -11.909   9.169  31.037  0.00  0.00    +0.150 HD
ATOM     32  H   UNL     1     -11.803   9.076  28.941  0.00  0.00    +0.150 HD
BRANCH   7  27
ATOM     27  C   UNL     1     -11.435  10.556  27.460  0.00  0.00    +0.068 C 
ATOM     29  C   UNL     1     -12.599  10.141  26.570  0.00  0.00    +0.027 C 
ATOM     30  C   UNL     1     -10.107  10.061  26.899  0.00  0.00    +0.027 C 
ENDBRANCH   7  27
ENDBRANCH  16   5
ENDBRANCH   9  16
TORSDOF 6
ENDMDL
MODEL 8
REMARK VINA RESULT:      -5.8     24.454     29.466
REMARK  Name = 38026882
REMARK  12 active torsions:
REMARK  status: ('A' for Active; 'I' for Inactive)
REMARK    1  A    between atoms: N_5  and  C_16
REMARK    2  A    between atoms: N_7  and  C_27
REMARK    3  A    between atoms: C_8  and  C_12
REMARK    4  A    between atoms: C_9  and  C_16
REMARK    5  A    between atoms: C_11  and  C_15
REMARK    6  A    between atoms: C_12  and  C_17
REMARK    7  A    between atoms: C_12  and  C_18
REMARK    8  A    between atoms: C_13  and  C_19
REMARK    9  A    between atoms: C_15  and  C_20
REMARK   10  A    between atoms: C_26  and  C_28
REMARK   11  A    between atoms: C_27  and  C_29
REMARK   12  A    between atoms: C_27  and  C_30
REMARK                            x       y       z     vdW  Elec       q    Type
REMARK                         _______ _______ _______ _____ _____    ______ ____
ROOT
ATOM      8  C   UNL     1     -12.844   9.340  32.358  0.00  0.00    +0.000 C 
ATOM      9  C   UNL     1     -11.918   9.888  33.473  0.00  0.00    +0.032 C 
ATOM     10  C   UNL     1     -14.137   8.774  32.965  0.00  0.00    +0.012 C 
ATOM     11  C   UNL     1     -13.861   7.641  33.972  0.00  0.00    +0.023 C 
ATOM     13  C   UNL     1     -12.761   8.009  34.946  0.00  0.00    -0.073 C 
ATOM     14  C   UNL     1     -11.911   9.025  34.713  0.00  0.00    -0.022 C 
ATOM     19  C   UNL     1     -12.688   7.211  36.219  0.00  0.00    +0.039 C 
ENDROOT
BRANCH   8  12
ATOM     12  C   UNL     1     -13.183  10.415  31.322  0.00  0.00    -0.013 C 
ATOM     17  C   UNL     1     -14.316   9.942  30.416  0.00  0.00    +0.007 C 
ATOM     18  C   UNL     1     -13.554  11.723  32.015  0.00  0.00    +0.007 C 
ENDBRANCH   8  12
BRANCH  11  15
ATOM     15  C   UNL     1     -13.539   6.329  33.251  0.00  0.00    +0.103 C 
BRANCH  15  20
ATOM      1  O   UNL     1     -15.187   5.406  34.682  0.00  0.00    -0.276 OA
ATOM      3  O   UNL     1     -13.735   0.379  29.814  0.00  0.00    -0.276 OA
ATOM      4  N   UNL     1     -14.656   4.176  32.785  0.00  0.00    -0.298 N 
ATOM      6  N   UNL     1     -14.217   1.579  31.743  0.00  0.00    -0.299 N 
ATOM     20  C   UNL     1     -14.537   5.269  33.643  0.00  0.00    +0.216 C 
ATOM     21  C   UNL     1     -15.602   3.101  33.098  0.00  0.00    +0.126 C 
ATOM     22  C   UNL     1     -13.953   4.017  31.506  0.00  0.00    +0.126 C 
ATOM     23  C   UNL     1     -14.920   1.737  33.023  0.00  0.00    +0.126 C 
ATOM     24  C   UNL     1     -13.272   2.653  31.432  0.00  0.00    +0.126 C 
ATOM     26  C   UNL     1     -14.338   0.488  30.884  0.00  0.00    +0.213 C 
ATOM     28  C   UNL     1     -15.277  -0.611  31.317  0.00  0.00    +0.109 C 
ENDBRANCH  15  20
ENDBRANCH  11  15
BRANCH   9  16
ATOM     16  C   UNL     1     -10.483  10.063  32.964  0.00  0.00    +0.113 C 
BRANCH  16   5
ATOM      2  O   UNL     1      -8.145  11.678  33.469  0.00  0.00    -0.253 OA
ATOM      5  N   UNL     1      -9.543   9.910  34.031  0.00  0.00    -0.299 N 
ATOM      7  N   UNL     1      -7.681  10.366  35.325  0.00  0.00    -0.297 N 
ATOM     25  C   UNL     1      -8.427  10.738  34.209  0.00  0.00    +0.300 C 
ATOM     31  H   UNL     1      -9.724   9.203  34.738  0.00  0.00    +0.150 HD
ATOM     32  H   UNL     1      -8.036   9.620  35.916  0.00  0.00    +0.150 HD
BRANCH   7  27
ATOM     27  C   UNL     1      -6.481  11.059  35.730  0.00  0.00    +0.068 C 
ATOM     29  C   UNL     1      -5.286  10.115  35.692  0.00  0.00    +0.027 C 
ATOM     30  C   UNL     1      -6.658  11.670  37.115  0.00  0.00    +0.027 C 
ENDBRANCH   7  27
ENDBRANCH  16   5
ENDBRANCH   9  16
TORSDOF 6
ENDMDL
MODEL 9
REMARK VINA RESULT:      -5.8     25.779     28.092
REMARK  Name = 38026882
REMARK  12 active torsions:
REMARK  status: ('A' for Active; 'I' for Inactive)
REMARK    1  A    between atoms: N_5  and  C_16
REMARK    2  A    between atoms: N_7  and  C_27
REMARK    3  A    between atoms: C_8  and  C_12
REMARK    4  A    between atoms: C_9  and  C_16
REMARK    5  A    between atoms: C_11  and  C_15
REMARK    6  A    between atoms: C_12  and  C_17
REMARK    7  A    between atoms: C_12  and  C_18
REMARK    8  A    between atoms: C_13  and  C_19
REMARK    9  A    between atoms: C_15  and  C_20
REMARK   10  A    between atoms: C_26  and  C_28
REMARK   11  A    between atoms: C_27  and  C_29
REMARK   12  A    between atoms: C_27  and  C_30
REMARK                            x       y       z     vdW  Elec       q    Type
REMARK                         _______ _______ _______ _____ _____    ______ ____
ROOT
ATOM      8  C   UNL     1      19.872  -3.764  25.116  0.00  0.00    +0.000 C 
ATOM      9  C   UNL     1      19.937  -2.219  25.214  0.00  0.00    +0.032 C 
ATOM     10  C   UNL     1      19.616  -4.200  23.666  0.00  0.00    +0.012 C 
ATOM     11  C   UNL     1      18.304  -3.618  23.105  0.00  0.00    +0.023 C 
ATOM     13  C   UNL     1      18.172  -2.139  23.401  0.00  0.00    -0.073 C 
ATOM     14  C   UNL     1      18.919  -1.528  24.338  0.00  0.00    -0.022 C 
ATOM     19  C   UNL     1      17.191  -1.365  22.564  0.00  0.00    +0.039 C 
ENDROOT
BRANCH   8  12
ATOM     12  C   UNL     1      21.153  -4.421  25.638  0.00  0.00    -0.013 C 
ATOM     17  C   UNL     1      20.843  -5.316  26.834  0.00  0.00    +0.007 C 
ATOM     18  C   UNL     1      21.832  -5.217  24.527  0.00  0.00    +0.007 C 
ENDBRANCH   8  12
BRANCH  11  15
ATOM     15  C   UNL     1      17.090  -4.393  23.629  0.00  0.00    +0.103 C 
BRANCH  15  20
ATOM      1  O   UNL     1      17.717  -6.409  22.552  0.00  0.00    -0.276 OA
ATOM      3  O   UNL     1      15.586  -8.240  29.123  0.00  0.00    -0.276 OA
ATOM      4  N   UNL     1      17.235  -6.552  24.819  0.00  0.00    -0.298 N 
ATOM      6  N   UNL     1      16.004  -8.106  26.843  0.00  0.00    -0.299 N 
ATOM     20  C   UNL     1      17.378  -5.873  23.610  0.00  0.00    +0.216 C 
ATOM     21  C   UNL     1      17.493  -7.993  24.884  0.00  0.00    +0.126 C 
ATOM     22  C   UNL     1      16.905  -5.933  26.110  0.00  0.00    +0.126 C 
ATOM     23  C   UNL     1      16.332  -8.726  25.553  0.00  0.00    +0.126 C 
ATOM     24  C   UNL     1      15.745  -6.666  26.778  0.00  0.00    +0.126 C 
ATOM     26  C   UNL     1      15.862  -8.784  28.052  0.00  0.00    +0.213 C 
ATOM     28  C   UNL     1      16.072 -10.278  28.017  0.00  0.00    +0.109 C 
ENDBRANCH  15  20
ENDBRANCH  11  15
BRANCH   9  16
ATOM     16  C   UNL     1      19.767  -1.748  26.663  0.00  0.00    +0.113 C 
BRANCH  16   5
ATOM      2  O   UNL     1      19.347  -2.226  29.478  0.00  0.00    -0.253 OA
ATOM      5  N   UNL     1      18.635  -2.375  27.271  0.00  0.00    -0.299 N 
ATOM      7  N   UNL     1      17.306  -3.205  28.972  0.00  0.00    -0.297 N 
ATOM     25  C   UNL     1      18.504  -2.572  28.652  0.00  0.00    +0.300 C 
ATOM     31  H   UNL     1      17.851  -2.638  26.681  0.00  0.00    +0.150 HD
ATOM     32  H   UNL     1      16.642  -3.388  28.225  0.00  0.00    +0.150 HD
BRANCH   7  27
ATOM     27  C   UNL     1      16.927  -3.525  30.328  0.00  0.00    +0.068 C 
ATOM     29  C   UNL     1      16.030  -4.755  30.352  0.00  0.00    +0.027 C 
ATOM     30  C   UNL     1      16.246  -2.332  30.988  0.00  0.00    +0.027 C 
ENDBRANCH   7  27
ENDBRANCH  16   5
ENDBRANCH   9  16
TORSDOF 6
ENDMDL
MODEL 10
REMARK VINA RESULT:      -5.7     25.402     29.155
REMARK  Name = 38026882
REMARK  12 active torsions:
REMARK  status: ('A' for Active; 'I' for Inactive)
REMARK    1  A    between atoms: N_5  and  C_16
REMARK    2  A    between atoms: N_7  and  C_27
REMARK    3  A    between atoms: C_8  and  C_12
REMARK    4  A    between atoms: C_9  and  C_16
REMARK    5  A    between atoms: C_11  and  C_15
REMARK    6  A    between atoms: C_12  and  C_17
REMARK    7  A    between atoms: C_12  and  C_18
REMARK    8  A    between atoms: C_13  and  C_19
REMARK    9  A    between atoms: C_15  and  C_20
REMARK   10  A    between atoms: C_26  and  C_28
REMARK   11  A    between atoms: C_27  and  C_29
REMARK   12  A    between atoms: C_27  and  C_30
REMARK                            x       y       z     vdW  Elec       q    Type
REMARK                         _______ _______ _______ _____ _____    ______ ____
ROOT
ATOM      8  C   UNL     1      18.180  -3.444  23.702  0.00  0.00    +0.000 C 
ATOM      9  C   UNL     1      19.085  -4.489  23.001  0.00  0.00    +0.032 C 
ATOM     10  C   UNL     1      19.035  -2.375  24.398  0.00  0.00    +0.012 C 
ATOM     11  C   UNL     1      19.985  -2.981  25.449  0.00  0.00    +0.023 C 
ATOM     13  C   UNL     1      20.720  -4.191  24.912  0.00  0.00    -0.073 C 
ATOM     14  C   UNL     1      20.311  -4.844  23.809  0.00  0.00    -0.022 C 
ATOM     19  C   UNL     1      21.965  -4.609  25.645  0.00  0.00    +0.039 C 
ENDROOT
BRANCH   8  12
ATOM     12  C   UNL     1      17.215  -2.778  22.717  0.00  0.00    -0.013 C 
ATOM     17  C   UNL     1      15.770  -3.027  23.136  0.00  0.00    +0.007 C 
ATOM     18  C   UNL     1      17.501  -1.281  22.623  0.00  0.00    +0.007 C 
ENDBRANCH   8  12
BRANCH  11  15
ATOM     15  C   UNL     1      19.232  -3.324  26.739  0.00  0.00    +0.103 C 
BRANCH  15  20
ATOM      1  O   UNL     1      20.838  -1.946  27.807  0.00  0.00    -0.276 OA
ATOM      3  O   UNL     1      15.528  -2.833  32.508  0.00  0.00    -0.276 OA
ATOM      4  N   UNL     1      18.815  -2.230  28.913  0.00  0.00    -0.298 N 
ATOM      6  N   UNL     1      17.573  -2.604  31.431  0.00  0.00    -0.299 N 
ATOM     20  C   UNL     1      19.707  -2.437  27.862  0.00  0.00    +0.216 C 
ATOM     21  C   UNL     1      19.203  -1.383  30.045  0.00  0.00    +0.126 C 
ATOM     22  C   UNL     1      17.439  -2.738  28.974  0.00  0.00    +0.126 C 
ATOM     23  C   UNL     1      18.949  -2.096  31.371  0.00  0.00    +0.126 C 
ATOM     24  C   UNL     1      17.186  -3.451  30.301  0.00  0.00    +0.126 C 
ATOM     26  C   UNL     1      16.680  -2.396  32.481  0.00  0.00    +0.213 C 
ATOM     28  C   UNL     1      17.184  -1.574  33.642  0.00  0.00    +0.109 C 
ENDBRANCH  15  20
ENDBRANCH  11  15
BRANCH   9  16
ATOM     16  C   UNL     1      18.304  -5.766  22.671  0.00  0.00    +0.113 C 
BRANCH  16   5
ATOM      2  O   UNL     1      18.495  -7.762  24.747  0.00  0.00    -0.253 OA
ATOM      5  N   UNL     1      17.338  -6.047  23.688  0.00  0.00    -0.299 N 
ATOM      7  N   UNL     1      16.413  -7.100  25.528  0.00  0.00    -0.297 N 
ATOM     25  C   UNL     1      17.504  -7.038  24.664  0.00  0.00    +0.300 C 
ATOM     31  H   UNL     1      16.513  -5.459  23.748  0.00  0.00    +0.150 HD
ATOM     32  H   UNL     1      15.674  -6.411  25.422  0.00  0.00    +0.150 HD
BRANCH   7  27
ATOM     27  C   UNL     1      16.335  -8.036  26.623  0.00  0.00    +0.068 C 
ATOM     29  C   UNL     1      15.561  -9.279  26.204  0.00  0.00    +0.027 C 
ATOM     30  C   UNL     1      15.703  -7.379  27.845  0.00  0.00    +0.027 C 
ENDBRANCH   7  27
ENDBRANCH  16   5
ENDBRANCH   9  16
TORSDOF 6
ENDMDL
