REMARK  Name = 75366943
REMARK  7 active torsions:
REMARK  status: ('A' for Active; 'I' for Inactive)
REMARK    1  A    between atoms: O_4  and  C_11
REMARK    2  A    between atoms: N_7  and  C_15
REMARK    3  A    between atoms: C_9  and  C_14
REMARK    4  A    between atoms: C_10  and  C_15
REMARK    5  A    between atoms: C_14  and  C_16
REMARK    6  A    between atoms: C_18  and  C_20
REMARK    7  A    between atoms: C_19  and  C_21
REMARK                            x       y       z     vdW  Elec       q    Type
REMARK                         _______ _______ _______ _____ _____    ______ ____
ROOT
ATOM      3  O   UNL     1       3.350  -0.283   0.685  0.00  0.00    -0.369 OA
ATOM      9  C   UNL     1       3.432  -1.165  -0.437  0.00  0.00    +0.125 C 
ATOM     10  C   UNL     1       4.027   0.971   0.526  0.00  0.00    +0.164 C 
ATOM     11  C   UNL     1       5.503   0.766   0.163  0.00  0.00    +0.145 C 
ATOM     12  C   UNL     1       4.889  -1.491  -0.761  0.00  0.00    +0.034 C 
ATOM     13  C   UNL     1       5.687  -0.211  -0.995  0.00  0.00    +0.036 C 
ENDROOT
BRANCH  11   4
ATOM      4  O   UNL     1       6.187   0.230   1.299  0.00  0.00    -0.389 OA
ATOM     32  H   UNL     1       7.128   0.152   1.065  0.00  0.00    +0.210 HD
ENDBRANCH  11   4
BRANCH   9  14
ATOM     14  C   UNL     1       2.660  -2.430  -0.084  0.00  0.00    +0.090 C 
BRANCH  14  16
ATOM      5  O   UNL     1      -0.483  -1.638   1.493  0.00  0.00    -0.354 OA
ATOM      8  N   UNL     1       0.887  -1.866   1.528  0.00  0.00    -0.083 NA
ATOM     16  C   UNL     1       1.226  -2.130   0.263  0.00  0.00    +0.087 A 
ATOM     17  C   UNL     1       0.123  -2.083  -0.607  0.00  0.00    +0.076 A 
ATOM     19  C   UNL     1      -0.927  -1.770   0.216  0.00  0.00    +0.167 A 
BRANCH  19  21
ATOM      2  F   UNL     1      -6.377  -0.951  -0.541  0.00  0.00    -0.205 F 
ATOM     21  C   UNL     1      -2.332  -1.560   0.021  0.00  0.00    +0.020 A 
ATOM     24  C   UNL     1      -2.883  -1.670  -1.256  0.00  0.00    +0.014 A 
ATOM     25  C   UNL     1      -3.148  -1.244   1.107  0.00  0.00    +0.014 A 
ATOM     28  C   UNL     1      -4.249  -1.465  -1.446  0.00  0.00    +0.039 A 
ATOM     29  C   UNL     1      -4.514  -1.039   0.918  0.00  0.00    +0.039 A 
ATOM     31  C   UNL     1      -5.065  -1.149  -0.359  0.00  0.00    +0.123 A 
ENDBRANCH  19  21
ENDBRANCH  14  16
ENDBRANCH   9  14
BRANCH  10  15
ATOM     15  C   UNL     1       3.289   1.873  -0.461  0.00  0.00    +0.138 C 
BRANCH  15   7
ATOM      6  O   UNL     1       0.990   1.147  -2.020  0.00  0.00    -0.270 OA
ATOM      7  N   UNL     1       1.917   2.031  -0.085  0.00  0.00    -0.309 N 
ATOM     18  C   UNL     1       0.859   1.650  -0.907  0.00  0.00    +0.244 C 
ATOM     33  H   UNL     1       1.738   2.520   0.786  0.00  0.00    +0.149 HD
BRANCH  18  20
ATOM      1  F   UNL     1      -4.305   2.612   1.077  0.00  0.00    -0.205 F 
ATOM     20  C   UNL     1      -0.507   1.905  -0.382  0.00  0.00    +0.037 A 
ATOM     22  C   UNL     1      -1.569   2.100  -1.266  0.00  0.00    +0.016 A 
ATOM     23  C   UNL     1      -0.729   1.949   0.995  0.00  0.00    +0.016 A 
ATOM     26  C   UNL     1      -2.852   2.340  -0.773  0.00  0.00    +0.039 A 
ATOM     27  C   UNL     1      -2.012   2.188   1.487  0.00  0.00    +0.039 A 
ATOM     30  C   UNL     1      -3.073   2.384   0.603  0.00  0.00    +0.123 A 
ENDBRANCH  18  20
ENDBRANCH  15   7
ENDBRANCH  10  15
TORSDOF 7
