MODEL 1
REMARK VINA RESULT:      -7.1      0.000      0.000
REMARK  Name = 40777894
REMARK  11 active torsions:
REMARK  status: ('A' for Active; 'I' for Inactive)
REMARK    1  A    between atoms: S_1  and  N_10
REMARK    2  A    between atoms: S_1  and  C_23
REMARK    3  A    between atoms: O_3  and  C_12
REMARK    4  A    between atoms: O_4  and  C_13
REMARK    5  A    between atoms: O_5  and  C_22
REMARK    6  A    between atoms: O_5  and  C_24
REMARK    7  A    between atoms: N_10  and  C_21
REMARK    8  A    between atoms: C_11  and  C_16
REMARK    9  A    between atoms: C_14  and  C_21
REMARK   10  A    between atoms: C_15  and  C_22
REMARK   11  A    between atoms: C_16  and  C_20
REMARK                            x       y       z     vdW  Elec       q    Type
REMARK                         _______ _______ _______ _____ _____    ______ ____
ROOT
ATOM      2  O   UNL     1      11.653   9.037  20.430  0.00  0.00    -0.366 OA
ATOM     11  C   UNL     1      12.137   7.694  20.256  0.00  0.00    +0.158 C 
ATOM     12  C   UNL     1      12.112   7.066  21.640  0.00  0.00    +0.175 C 
ATOM     13  C   UNL     1      10.875   7.703  22.239  0.00  0.00    +0.175 C 
ATOM     14  C   UNL     1      10.954   9.125  21.693  0.00  0.00    +0.165 C 
ENDROOT
BRANCH  12   3
ATOM      3  O   UNL     1      12.042   5.657  21.581  0.00  0.00    -0.387 OA
ATOM     30  H   UNL     1      11.475   5.364  22.314  0.00  0.00    +0.210 HD
ENDBRANCH  12   3
BRANCH  13   4
ATOM      4  O   UNL     1       9.698   7.091  21.713  0.00  0.00    -0.387 OA
ATOM     31  H   UNL     1       9.031   7.089  22.422  0.00  0.00    +0.210 HD
ENDBRANCH  13   4
BRANCH  11  16
ATOM     16  C   UNL     1      13.523   7.725  19.635  0.00  0.00    +0.130 C 
BRANCH  16  20
ATOM      6  O   UNL     1      12.849   7.258  17.400  0.00  0.00    -0.276 OA
ATOM      9  N   UNL     1      13.995   9.235  17.767  0.00  0.00    -0.296 N 
ATOM     15  C   UNL     1      14.070   9.647  16.362  0.00  0.00    +0.102 C 
ATOM     17  C   UNL     1      15.132  10.748  16.364  0.00  0.00    +0.026 C 
ATOM     18  C   UNL     1      14.679  10.189  18.635  0.00  0.00    +0.108 C 
ATOM     19  C   UNL     1      14.983  11.382  17.741  0.00  0.00    +0.021 C 
ATOM     20  C   UNL     1      13.419   8.039  18.163  0.00  0.00    +0.218 C 
BRANCH  15  22
ATOM     22  C   UNL     1      12.719  10.149  15.856  0.00  0.00    +0.181 C 
BRANCH  22   5
ATOM      5  O   UNL     1      12.050   9.075  15.222  0.00  0.00    -0.381 OA
ATOM     24  C   UNL     1      10.692   8.979  15.637  0.00  0.00    +0.194 C 
ENDBRANCH  22   5
ENDBRANCH  15  22
ENDBRANCH  16  20
ENDBRANCH  11  16
BRANCH  14  21
ATOM     21  C   UNL     1      11.737  10.068  22.595  0.00  0.00    +0.140 C 
BRANCH  21  10
ATOM     10  N   UNL     1      10.890  10.659  23.588  0.00  0.00    -0.187 NA
ATOM     32  H   UNL     1       9.897  10.399  23.556  0.00  0.00    +0.148 HD
BRANCH  10   1
ATOM      1  S   UNL     1      11.290  12.165  24.326  0.00  0.00    +0.058 S 
ATOM      7  O   UNL     1      12.734  12.293  24.359  0.00  0.00    -0.153 OA
ATOM      8  O   UNL     1      10.511  12.352  25.535  0.00  0.00    -0.153 OA
BRANCH   1  23
ATOM     23  C   UNL     1      10.668  13.308  23.129  0.00  0.00    +0.105 A 
ATOM     25  C   UNL     1      11.259  13.389  21.869  0.00  0.00    +0.028 A 
ATOM     26  C   UNL     1       9.588  14.131  23.448  0.00  0.00    +0.028 A 
ATOM     27  C   UNL     1      10.770  14.293  20.926  0.00  0.00    +0.002 A 
ATOM     28  C   UNL     1       9.098  15.034  22.504  0.00  0.00    +0.002 A 
ATOM     29  C   UNL     1       9.688  15.115  21.244  0.00  0.00    +0.000 A 
ENDBRANCH   1  23
ENDBRANCH  10   1
ENDBRANCH  21  10
ENDBRANCH  14  21
TORSDOF 10
ENDMDL
MODEL 2
REMARK VINA RESULT:      -7.0      2.664      3.974
REMARK  Name = 40777894
REMARK  11 active torsions:
REMARK  status: ('A' for Active; 'I' for Inactive)
REMARK    1  A    between atoms: S_1  and  N_10
REMARK    2  A    between atoms: S_1  and  C_23
REMARK    3  A    between atoms: O_3  and  C_12
REMARK    4  A    between atoms: O_4  and  C_13
REMARK    5  A    between atoms: O_5  and  C_22
REMARK    6  A    between atoms: O_5  and  C_24
REMARK    7  A    between atoms: N_10  and  C_21
REMARK    8  A    between atoms: C_11  and  C_16
REMARK    9  A    between atoms: C_14  and  C_21
REMARK   10  A    between atoms: C_15  and  C_22
REMARK   11  A    between atoms: C_16  and  C_20
REMARK                            x       y       z     vdW  Elec       q    Type
REMARK                         _______ _______ _______ _____ _____    ______ ____
ROOT
ATOM      2  O   UNL     1      11.153   8.858  20.244  0.00  0.00    -0.366 OA
ATOM     11  C   UNL     1      11.681   7.527  20.104  0.00  0.00    +0.158 C 
ATOM     12  C   UNL     1      11.899   7.021  21.520  0.00  0.00    +0.175 C 
ATOM     13  C   UNL     1      10.733   7.652  22.252  0.00  0.00    +0.175 C 
ATOM     14  C   UNL     1      10.648   9.024  21.589  0.00  0.00    +0.165 C 
ENDROOT
BRANCH  12   3
ATOM      3  O   UNL     1      11.901   5.610  21.584  0.00  0.00    -0.387 OA
ATOM     30  H   UNL     1      11.245   5.289  20.943  0.00  0.00    +0.210 HD
ENDBRANCH  12   3
BRANCH  13   4
ATOM      4  O   UNL     1       9.526   6.946  21.964  0.00  0.00    -0.387 OA
ATOM     31  H   UNL     1       9.376   6.320  22.692  0.00  0.00    +0.210 HD
ENDBRANCH  13   4
BRANCH  11  16
ATOM     16  C   UNL     1      12.953   7.565  19.275  0.00  0.00    +0.130 C 
BRANCH  16  20
ATOM      6  O   UNL     1      14.558   6.324  20.518  0.00  0.00    -0.276 OA
ATOM      9  N   UNL     1      14.746   8.630  20.557  0.00  0.00    -0.296 N 
ATOM     15  C   UNL     1      15.863   8.690  21.503  0.00  0.00    +0.102 C 
ATOM     17  C   UNL     1      15.880  10.154  21.950  0.00  0.00    +0.026 C 
ATOM     18  C   UNL     1      14.304   9.968  20.173  0.00  0.00    +0.108 C 
ATOM     19  C   UNL     1      15.368  10.903  20.727  0.00  0.00    +0.021 C 
ATOM     20  C   UNL     1      14.157   7.436  20.174  0.00  0.00    +0.218 C 
BRANCH  15  22
ATOM     22  C   UNL     1      17.176   8.273  20.844  0.00  0.00    +0.181 C 
BRANCH  22   5
ATOM      5  O   UNL     1      17.574   7.027  21.385  0.00  0.00    -0.381 OA
ATOM     24  C   UNL     1      18.203   6.204  20.409  0.00  0.00    +0.194 C 
ENDBRANCH  22   5
ENDBRANCH  15  22
ENDBRANCH  16  20
ENDBRANCH  11  16
BRANCH  14  21
ATOM     21  C   UNL     1      11.503  10.075  22.282  0.00  0.00    +0.140 C 
BRANCH  21  10
ATOM     10  N   UNL     1      10.696  11.129  22.820  0.00  0.00    -0.187 NA
ATOM     32  H   UNL     1      10.206  11.723  22.140  0.00  0.00    +0.148 HD
BRANCH  10   1
ATOM      1  S   UNL     1      11.025  11.808  24.369  0.00  0.00    +0.058 S 
ATOM      7  O   UNL     1      11.092  10.733  25.341  0.00  0.00    -0.153 OA
ATOM      8  O   UNL     1      10.169  12.954  24.605  0.00  0.00    -0.153 OA
BRANCH   1  23
ATOM     23  C   UNL     1      12.663  12.429  24.130  0.00  0.00    +0.105 A 
ATOM     25  C   UNL     1      13.704  11.984  24.945  0.00  0.00    +0.028 A 
ATOM     26  C   UNL     1      12.914  13.365  23.126  0.00  0.00    +0.028 A 
ATOM     27  C   UNL     1      14.996  12.476  24.758  0.00  0.00    +0.002 A 
ATOM     28  C   UNL     1      14.206  13.856  22.938  0.00  0.00    +0.002 A 
ATOM     29  C   UNL     1      15.246  13.411  23.753  0.00  0.00    +0.000 A 
ENDBRANCH   1  23
ENDBRANCH  10   1
ENDBRANCH  21  10
ENDBRANCH  14  21
TORSDOF 10
ENDMDL
MODEL 3
REMARK VINA RESULT:      -6.9      2.323      3.528
REMARK  Name = 40777894
REMARK  11 active torsions:
REMARK  status: ('A' for Active; 'I' for Inactive)
REMARK    1  A    between atoms: S_1  and  N_10
REMARK    2  A    between atoms: S_1  and  C_23
REMARK    3  A    between atoms: O_3  and  C_12
REMARK    4  A    between atoms: O_4  and  C_13
REMARK    5  A    between atoms: O_5  and  C_22
REMARK    6  A    between atoms: O_5  and  C_24
REMARK    7  A    between atoms: N_10  and  C_21
REMARK    8  A    between atoms: C_11  and  C_16
REMARK    9  A    between atoms: C_14  and  C_21
REMARK   10  A    between atoms: C_15  and  C_22
REMARK   11  A    between atoms: C_16  and  C_20
REMARK                            x       y       z     vdW  Elec       q    Type
REMARK                         _______ _______ _______ _____ _____    ______ ____
ROOT
ATOM      2  O   UNL     1      11.246   8.859  20.260  0.00  0.00    -0.366 OA
ATOM     11  C   UNL     1      11.629   7.488  20.054  0.00  0.00    +0.158 C 
ATOM     12  C   UNL     1      11.889   6.921  21.439  0.00  0.00    +0.175 C 
ATOM     13  C   UNL     1      10.841   7.641  22.263  0.00  0.00    +0.175 C 
ATOM     14  C   UNL     1      10.849   9.033  21.640  0.00  0.00    +0.165 C 
ENDROOT
BRANCH  12   3
ATOM      3  O   UNL     1      11.755   5.516  21.471  0.00  0.00    -0.387 OA
ATOM     30  H   UNL     1      12.215   5.163  20.691  0.00  0.00    +0.210 HD
ENDBRANCH  12   3
BRANCH  13   4
ATOM      4  O   UNL     1       9.554   7.065  22.042  0.00  0.00    -0.387 OA
ATOM     31  H   UNL     1       9.513   6.796  21.109  0.00  0.00    +0.210 HD
ENDBRANCH  13   4
BRANCH  11  16
ATOM     16  C   UNL     1      12.842   7.427  19.141  0.00  0.00    +0.130 C 
BRANCH  16  20
ATOM      6  O   UNL     1      13.645   9.655  19.370  0.00  0.00    -0.276 OA
ATOM      9  N   UNL     1      14.998   7.957  20.171  0.00  0.00    -0.296 N 
ATOM     15  C   UNL     1      16.126   8.810  20.555  0.00  0.00    +0.102 C 
ATOM     17  C   UNL     1      17.277   7.821  20.754  0.00  0.00    +0.026 C 
ATOM     18  C   UNL     1      15.290   6.548  20.422  0.00  0.00    +0.108 C 
ATOM     19  C   UNL     1      16.577   6.556  21.233  0.00  0.00    +0.021 C 
ATOM     20  C   UNL     1      13.857   8.458  19.565  0.00  0.00    +0.218 C 
BRANCH  15  22
ATOM     22  C   UNL     1      15.819   9.601  21.825  0.00  0.00    +0.181 C 
BRANCH  22   5
ATOM      5  O   UNL     1      16.345  10.907  21.678  0.00  0.00    -0.381 OA
ATOM     24  C   UNL     1      16.512  11.259  20.310  0.00  0.00    +0.194 C 
ENDBRANCH  22   5
ENDBRANCH  15  22
ENDBRANCH  16  20
ENDBRANCH  11  16
BRANCH  14  21
ATOM     21  C   UNL     1      11.848   9.975  22.296  0.00  0.00    +0.140 C 
BRANCH  21  10
ATOM     10  N   UNL     1      12.128  11.102  21.457  0.00  0.00    -0.187 NA
ATOM     32  H   UNL     1      12.257  10.907  20.456  0.00  0.00    +0.148 HD
BRANCH  10   1
ATOM      1  S   UNL     1      12.869  12.526  22.085  0.00  0.00    +0.058 S 
ATOM      7  O   UNL     1      13.521  13.227  20.995  0.00  0.00    -0.153 OA
ATOM      8  O   UNL     1      13.602  12.216  23.297  0.00  0.00    -0.153 OA
BRANCH   1  23
ATOM     23  C   UNL     1      11.451  13.466  22.566  0.00  0.00    +0.105 A 
ATOM     25  C   UNL     1      10.531  13.882  21.604  0.00  0.00    +0.028 A 
ATOM     26  C   UNL     1      11.254  13.792  23.908  0.00  0.00    +0.028 A 
ATOM     27  C   UNL     1       9.413  14.625  21.983  0.00  0.00    +0.002 A 
ATOM     28  C   UNL     1      10.136  14.535  24.288  0.00  0.00    +0.002 A 
ATOM     29  C   UNL     1       9.216  14.951  23.326  0.00  0.00    +0.000 A 
ENDBRANCH   1  23
ENDBRANCH  10   1
ENDBRANCH  21  10
ENDBRANCH  14  21
TORSDOF 10
ENDMDL
MODEL 4
REMARK VINA RESULT:      -6.8      2.900      6.457
REMARK  Name = 40777894
REMARK  11 active torsions:
REMARK  status: ('A' for Active; 'I' for Inactive)
REMARK    1  A    between atoms: S_1  and  N_10
REMARK    2  A    between atoms: S_1  and  C_23
REMARK    3  A    between atoms: O_3  and  C_12
REMARK    4  A    between atoms: O_4  and  C_13
REMARK    5  A    between atoms: O_5  and  C_22
REMARK    6  A    between atoms: O_5  and  C_24
REMARK    7  A    between atoms: N_10  and  C_21
REMARK    8  A    between atoms: C_11  and  C_16
REMARK    9  A    between atoms: C_14  and  C_21
REMARK   10  A    between atoms: C_15  and  C_22
REMARK   11  A    between atoms: C_16  and  C_20
REMARK                            x       y       z     vdW  Elec       q    Type
REMARK                         _______ _______ _______ _____ _____    ______ ____
ROOT
ATOM      2  O   UNL     1      15.292   8.488  19.543  0.00  0.00    -0.366 OA
ATOM     11  C   UNL     1      16.282   8.386  20.582  0.00  0.00    +0.158 C 
ATOM     12  C   UNL     1      16.187   6.962  21.102  0.00  0.00    +0.175 C 
ATOM     13  C   UNL     1      15.863   6.197  19.835  0.00  0.00    +0.175 C 
ATOM     14  C   UNL     1      14.920   7.156  19.118  0.00  0.00    +0.165 C 
ENDROOT
BRANCH  12   3
ATOM      3  O   UNL     1      17.386   6.541  21.717  0.00  0.00    -0.387 OA
ATOM     30  H   UNL     1      17.818   7.331  22.082  0.00  0.00    +0.210 HD
ENDBRANCH  12   3
BRANCH  13   4
ATOM      4  O   UNL     1      17.035   6.045  19.034  0.00  0.00    -0.387 OA
ATOM     31  H   UNL     1      16.815   5.432  18.313  0.00  0.00    +0.210 HD
ENDBRANCH  13   4
BRANCH  11  16
ATOM     16  C   UNL     1      16.017   9.435  21.647  0.00  0.00    +0.130 C 
BRANCH  16  20
ATOM      6  O   UNL     1      13.923   8.563  22.368  0.00  0.00    -0.276 OA
ATOM      9  N   UNL     1      13.955  10.755  21.628  0.00  0.00    -0.296 N 
ATOM     15  C   UNL     1      12.513  10.990  21.739  0.00  0.00    +0.102 C 
ATOM     17  C   UNL     1      12.290  12.268  20.928  0.00  0.00    +0.026 C 
ATOM     18  C   UNL     1      14.643  11.928  21.093  0.00  0.00    +0.108 C 
ATOM     19  C   UNL     1      13.597  13.032  21.105  0.00  0.00    +0.021 C 
ATOM     20  C   UNL     1      14.536   9.531  21.917  0.00  0.00    +0.218 C 
BRANCH  15  22
ATOM     22  C   UNL     1      12.086  11.150  23.197  0.00  0.00    +0.181 C 
BRANCH  22   5
ATOM      5  O   UNL     1      10.972  12.023  23.245  0.00  0.00    -0.381 OA
ATOM     24  C   UNL     1      10.672  12.424  24.577  0.00  0.00    +0.194 C 
ENDBRANCH  22   5
ENDBRANCH  15  22
ENDBRANCH  16  20
ENDBRANCH  11  16
BRANCH  14  21
ATOM     21  C   UNL     1      13.458   6.942  19.484  0.00  0.00    +0.140 C 
BRANCH  21  10
ATOM     10  N   UNL     1      12.627   6.935  18.318  0.00  0.00    -0.187 NA
ATOM     32  H   UNL     1      12.912   6.309  17.555  0.00  0.00    +0.148 HD
BRANCH  10   1
ATOM      1  S   UNL     1      11.658   8.298  17.899  0.00  0.00    +0.058 S 
ATOM      7  O   UNL     1      11.140   8.888  19.119  0.00  0.00    -0.153 OA
ATOM      8  O   UNL     1      10.759   7.958  16.813  0.00  0.00    -0.153 OA
BRANCH   1  23
ATOM     23  C   UNL     1      12.876   9.395  17.237  0.00  0.00    +0.105 A 
ATOM     25  C   UNL     1      13.525   9.078  16.045  0.00  0.00    +0.028 A 
ATOM     26  C   UNL     1      13.187  10.576  17.910  0.00  0.00    +0.028 A 
ATOM     27  C   UNL     1      14.488   9.942  15.524  0.00  0.00    +0.002 A 
ATOM     28  C   UNL     1      14.150  11.442  17.388  0.00  0.00    +0.002 A 
ATOM     29  C   UNL     1      14.799  11.125  16.196  0.00  0.00    +0.000 A 
ENDBRANCH   1  23
ENDBRANCH  10   1
ENDBRANCH  21  10
ENDBRANCH  14  21
TORSDOF 10
ENDMDL
MODEL 5
REMARK VINA RESULT:      -6.7      2.501      7.364
REMARK  Name = 40777894
REMARK  11 active torsions:
REMARK  status: ('A' for Active; 'I' for Inactive)
REMARK    1  A    between atoms: S_1  and  N_10
REMARK    2  A    between atoms: S_1  and  C_23
REMARK    3  A    between atoms: O_3  and  C_12
REMARK    4  A    between atoms: O_4  and  C_13
REMARK    5  A    between atoms: O_5  and  C_22
REMARK    6  A    between atoms: O_5  and  C_24
REMARK    7  A    between atoms: N_10  and  C_21
REMARK    8  A    between atoms: C_11  and  C_16
REMARK    9  A    between atoms: C_14  and  C_21
REMARK   10  A    between atoms: C_15  and  C_22
REMARK   11  A    between atoms: C_16  and  C_20
REMARK                            x       y       z     vdW  Elec       q    Type
REMARK                         _______ _______ _______ _____ _____    ______ ____
ROOT
ATOM      2  O   UNL     1      13.935   8.912  19.754  0.00  0.00    -0.366 OA
ATOM     11  C   UNL     1      13.019   8.422  20.749  0.00  0.00    +0.158 C 
ATOM     12  C   UNL     1      12.892   6.930  20.491  0.00  0.00    +0.175 C 
ATOM     13  C   UNL     1      14.296   6.578  20.045  0.00  0.00    +0.175 C 
ATOM     14  C   UNL     1      14.678   7.796  19.210  0.00  0.00    +0.165 C 
ENDROOT
BRANCH  12   3
ATOM      3  O   UNL     1      12.479   6.226  21.644  0.00  0.00    -0.387 OA
ATOM     30  H   UNL     1      12.349   5.298  21.386  0.00  0.00    +0.210 HD
ENDBRANCH  12   3
BRANCH  13   4
ATOM      4  O   UNL     1      15.173   6.519  21.169  0.00  0.00    -0.387 OA
ATOM     31  H   UNL     1      15.337   7.433  21.458  0.00  0.00    +0.210 HD
ENDBRANCH  13   4
BRANCH  11  16
ATOM     16  C   UNL     1      11.700   9.166  20.641  0.00  0.00    +0.130 C 
BRANCH  16  20
ATOM      6  O   UNL     1      10.874   8.804  22.844  0.00  0.00    -0.276 OA
ATOM      9  N   UNL     1      11.313  10.991  22.226  0.00  0.00    -0.296 N 
ATOM     15  C   UNL     1      10.827  11.614  23.460  0.00  0.00    +0.102 C 
ATOM     17  C   UNL     1      10.681  13.091  23.088  0.00  0.00    +0.026 C 
ATOM     18  C   UNL     1      11.756  11.997  21.264  0.00  0.00    +0.108 C 
ATOM     19  C   UNL     1      11.771  13.302  22.046  0.00  0.00    +0.021 C 
ATOM     20  C   UNL     1      11.254   9.624  22.007  0.00  0.00    +0.218 C 
BRANCH  15  22
ATOM     22  C   UNL     1      11.807  11.404  24.613  0.00  0.00    +0.181 C 
BRANCH  22   5
ATOM      5  O   UNL     1      11.679  12.488  25.514  0.00  0.00    -0.381 OA
ATOM     24  C   UNL     1      12.947  12.997  25.912  0.00  0.00    +0.194 C 
ENDBRANCH  22   5
ENDBRANCH  15  22
ENDBRANCH  16  20
ENDBRANCH  11  16
BRANCH  14  21
ATOM     21  C   UNL     1      14.299   7.656  17.742  0.00  0.00    +0.140 C 
BRANCH  21  10
ATOM     10  N   UNL     1      13.605   8.818  17.273  0.00  0.00    -0.187 NA
ATOM     32  H   UNL     1      12.745   9.073  17.775  0.00  0.00    +0.148 HD
BRANCH  10   1
ATOM      1  S   UNL     1      13.753   9.352  15.640  0.00  0.00    +0.058 S 
ATOM      7  O   UNL     1      12.493   9.943  15.232  0.00  0.00    -0.153 OA
ATOM      8  O   UNL     1      14.372   8.320  14.831  0.00  0.00    -0.153 OA
BRANCH   1  23
ATOM     23  C   UNL     1      14.937  10.653  15.812  0.00  0.00    +0.105 A 
ATOM     25  C   UNL     1      15.773  10.981  14.744  0.00  0.00    +0.028 A 
ATOM     26  C   UNL     1      15.035  11.352  17.015  0.00  0.00    +0.028 A 
ATOM     27  C   UNL     1      16.708  12.007  14.880  0.00  0.00    +0.002 A 
ATOM     28  C   UNL     1      15.970  12.378  17.151  0.00  0.00    +0.002 A 
ATOM     29  C   UNL     1      16.806  12.706  16.084  0.00  0.00    +0.000 A 
ENDBRANCH   1  23
ENDBRANCH  10   1
ENDBRANCH  21  10
ENDBRANCH  14  21
TORSDOF 10
ENDMDL
MODEL 6
REMARK VINA RESULT:      -6.6      2.701      4.095
REMARK  Name = 40777894
REMARK  11 active torsions:
REMARK  status: ('A' for Active; 'I' for Inactive)
REMARK    1  A    between atoms: S_1  and  N_10
REMARK    2  A    between atoms: S_1  and  C_23
REMARK    3  A    between atoms: O_3  and  C_12
REMARK    4  A    between atoms: O_4  and  C_13
REMARK    5  A    between atoms: O_5  and  C_22
REMARK    6  A    between atoms: O_5  and  C_24
REMARK    7  A    between atoms: N_10  and  C_21
REMARK    8  A    between atoms: C_11  and  C_16
REMARK    9  A    between atoms: C_14  and  C_21
REMARK   10  A    between atoms: C_15  and  C_22
REMARK   11  A    between atoms: C_16  and  C_20
REMARK                            x       y       z     vdW  Elec       q    Type
REMARK                         _______ _______ _______ _____ _____    ______ ____
ROOT
ATOM      2  O   UNL     1      11.043   8.798  20.079  0.00  0.00    -0.366 OA
ATOM     11  C   UNL     1      11.643   7.494  19.983  0.00  0.00    +0.158 C 
ATOM     12  C   UNL     1      11.981   7.091  21.409  0.00  0.00    +0.175 C 
ATOM     13  C   UNL     1      10.825   7.698  22.177  0.00  0.00    +0.175 C 
ATOM     14  C   UNL     1      10.613   9.017  21.443  0.00  0.00    +0.165 C 
ENDROOT
BRANCH  12   3
ATOM      3  O   UNL     1      12.075   5.690  21.555  0.00  0.00    -0.387 OA
ATOM     30  H   UNL     1      11.851   5.293  20.697  0.00  0.00    +0.210 HD
ENDBRANCH  12   3
BRANCH  13   4
ATOM      4  O   UNL     1       9.649   6.905  22.012  0.00  0.00    -0.387 OA
ATOM     31  H   UNL     1       8.889   7.511  22.006  0.00  0.00    +0.210 HD
ENDBRANCH  13   4
BRANCH  11  16
ATOM     16  C   UNL     1      12.856   7.555  19.072  0.00  0.00    +0.130 C 
BRANCH  16  20
ATOM      6  O   UNL     1      13.625   9.760  19.535  0.00  0.00    -0.276 OA
ATOM      9  N   UNL     1      14.997   8.007  20.168  0.00  0.00    -0.296 N 
ATOM     15  C   UNL     1      16.110   8.832  20.648  0.00  0.00    +0.102 C 
ATOM     17  C   UNL     1      17.274   7.844  20.753  0.00  0.00    +0.026 C 
ATOM     18  C   UNL     1      15.309   6.584  20.275  0.00  0.00    +0.108 C 
ATOM     19  C   UNL     1      16.590   6.526  21.093  0.00  0.00    +0.021 C 
ATOM     20  C   UNL     1      13.853   8.552  19.608  0.00  0.00    +0.218 C 
BRANCH  15  22
ATOM     22  C   UNL     1      15.783   9.483  21.990  0.00  0.00    +0.181 C 
BRANCH  22   5
ATOM      5  O   UNL     1      15.954  10.883  21.864  0.00  0.00    -0.381 OA
ATOM     24  C   UNL     1      16.585  11.229  20.637  0.00  0.00    +0.194 C 
ENDBRANCH  22   5
ENDBRANCH  15  22
ENDBRANCH  16  20
ENDBRANCH  11  16
BRANCH  14  21
ATOM     21  C   UNL     1      11.442  10.159  22.015  0.00  0.00    +0.140 C 
BRANCH  21  10
ATOM     10  N   UNL     1      10.787  10.764  23.136  0.00  0.00    -0.187 NA
ATOM     32  H   UNL     1       9.962  10.276  23.504  0.00  0.00    +0.148 HD
BRANCH  10   1
ATOM      1  S   UNL     1      10.897  12.459  23.429  0.00  0.00    +0.058 S 
ATOM      7  O   UNL     1      10.066  12.785  24.573  0.00  0.00    -0.153 OA
ATOM      8  O   UNL     1      10.750  13.193  22.187  0.00  0.00    -0.153 OA
BRANCH   1  23
ATOM     23  C   UNL     1      12.588  12.613  23.922  0.00  0.00    +0.105 A 
ATOM     25  C   UNL     1      13.086  11.825  24.960  0.00  0.00    +0.028 A 
ATOM     26  C   UNL     1      13.422  13.524  23.274  0.00  0.00    +0.028 A 
ATOM     27  C   UNL     1      14.420  11.948  25.350  0.00  0.00    +0.002 A 
ATOM     28  C   UNL     1      14.756  13.647  23.664  0.00  0.00    +0.002 A 
ATOM     29  C   UNL     1      15.255  12.859  24.701  0.00  0.00    +0.000 A 
ENDBRANCH   1  23
ENDBRANCH  10   1
ENDBRANCH  21  10
ENDBRANCH  14  21
TORSDOF 10
ENDMDL
MODEL 7
REMARK VINA RESULT:      -6.4     27.156     28.510
REMARK  Name = 40777894
REMARK  11 active torsions:
REMARK  status: ('A' for Active; 'I' for Inactive)
REMARK    1  A    between atoms: S_1  and  N_10
REMARK    2  A    between atoms: S_1  and  C_23
REMARK    3  A    between atoms: O_3  and  C_12
REMARK    4  A    between atoms: O_4  and  C_13
REMARK    5  A    between atoms: O_5  and  C_22
REMARK    6  A    between atoms: O_5  and  C_24
REMARK    7  A    between atoms: N_10  and  C_21
REMARK    8  A    between atoms: C_11  and  C_16
REMARK    9  A    between atoms: C_14  and  C_21
REMARK   10  A    between atoms: C_15  and  C_22
REMARK   11  A    between atoms: C_16  and  C_20
REMARK                            x       y       z     vdW  Elec       q    Type
REMARK                         _______ _______ _______ _____ _____    ______ ____
ROOT
ATOM      2  O   UNL     1      -6.525 -11.827  17.336  0.00  0.00    -0.366 OA
ATOM     11  C   UNL     1      -5.289 -11.499  16.678  0.00  0.00    +0.158 C 
ATOM     12  C   UNL     1      -4.266 -11.325  17.788  0.00  0.00    +0.175 C 
ATOM     13  C   UNL     1      -4.718 -12.372  18.784  0.00  0.00    +0.175 C 
ATOM     14  C   UNL     1      -6.237 -12.274  18.681  0.00  0.00    +0.165 C 
ENDROOT
BRANCH  12   3
ATOM      3  O   UNL     1      -2.946 -11.524  17.329  0.00  0.00    -0.387 OA
ATOM     30  H   UNL     1      -2.634 -10.677  16.967  0.00  0.00    +0.210 HD
ENDBRANCH  12   3
BRANCH  13   4
ATOM      4  O   UNL     1      -4.328 -13.674  18.347  0.00  0.00    -0.387 OA
ATOM     31  H   UNL     1      -4.056 -13.598  17.417  0.00  0.00    +0.210 HD
ENDBRANCH  13   4
BRANCH  11  16
ATOM     16  C   UNL     1      -5.476 -10.253  15.830  0.00  0.00    +0.130 C 
BRANCH  16  20
ATOM      6  O   UNL     1      -3.542 -10.772  14.543  0.00  0.00    -0.276 OA
ATOM      9  N   UNL     1      -5.423 -10.074  13.389  0.00  0.00    -0.296 N 
ATOM     15  C   UNL     1      -4.808 -10.062  12.059  0.00  0.00    +0.102 C 
ATOM     17  C   UNL     1      -5.794  -9.255  11.212  0.00  0.00    +0.026 C 
ATOM     18  C   UNL     1      -6.811  -9.622  13.335  0.00  0.00    +0.108 C 
ATOM     19  C   UNL     1      -7.142  -9.560  11.852  0.00  0.00    +0.021 C 
ATOM     20  C   UNL     1      -4.714 -10.393  14.536  0.00  0.00    +0.218 C 
BRANCH  15  22
ATOM     22  C   UNL     1      -4.610 -11.478  11.523  0.00  0.00    +0.181 C 
BRANCH  22   5
ATOM      5  O   UNL     1      -3.221 -11.731  11.425  0.00  0.00    -0.381 OA
ATOM     24  C   UNL     1      -2.474 -10.529  11.282  0.00  0.00    +0.194 C 
ENDBRANCH  22   5
ENDBRANCH  15  22
ENDBRANCH  16  20
ENDBRANCH  11  16
BRANCH  14  21
ATOM     21  C   UNL     1      -6.837 -11.263  19.647  0.00  0.00    +0.140 C 
BRANCH  21  10
ATOM     10  N   UNL     1      -7.826 -10.453  19.001  0.00  0.00    -0.187 NA
ATOM     32  H   UNL     1      -7.585  -9.465  18.854  0.00  0.00    +0.148 HD
BRANCH  10   1
ATOM      1  S   UNL     1      -9.501 -10.854  19.076  0.00  0.00    +0.058 S 
ATOM      7  O   UNL     1      -9.963 -10.654  20.437  0.00  0.00    -0.153 OA
ATOM      8  O   UNL     1      -9.744 -12.114  18.400  0.00  0.00    -0.153 OA
BRANCH   1  23
ATOM     23  C   UNL     1     -10.204  -9.583  18.069  0.00  0.00    +0.105 A 
ATOM     25  C   UNL     1      -9.377  -8.646  17.450  0.00  0.00    +0.028 A 
ATOM     26  C   UNL     1     -11.586  -9.517  17.894  0.00  0.00    +0.028 A 
ATOM     27  C   UNL     1      -9.932  -7.642  16.657  0.00  0.00    +0.002 A 
ATOM     28  C   UNL     1     -12.142  -8.514  17.100  0.00  0.00    +0.002 A 
ATOM     29  C   UNL     1     -11.315  -7.577  16.481  0.00  0.00    +0.000 A 
ENDBRANCH   1  23
ENDBRANCH  10   1
ENDBRANCH  21  10
ENDBRANCH  14  21
TORSDOF 10
ENDMDL
MODEL 8
REMARK VINA RESULT:      -6.4     25.884     28.583
REMARK  Name = 40777894
REMARK  11 active torsions:
REMARK  status: ('A' for Active; 'I' for Inactive)
REMARK    1  A    between atoms: S_1  and  N_10
REMARK    2  A    between atoms: S_1  and  C_23
REMARK    3  A    between atoms: O_3  and  C_12
REMARK    4  A    between atoms: O_4  and  C_13
REMARK    5  A    between atoms: O_5  and  C_22
REMARK    6  A    between atoms: O_5  and  C_24
REMARK    7  A    between atoms: N_10  and  C_21
REMARK    8  A    between atoms: C_11  and  C_16
REMARK    9  A    between atoms: C_14  and  C_21
REMARK   10  A    between atoms: C_15  and  C_22
REMARK   11  A    between atoms: C_16  and  C_20
REMARK                            x       y       z     vdW  Elec       q    Type
REMARK                         _______ _______ _______ _____ _____    ______ ____
ROOT
ATOM      2  O   UNL     1      -3.759 -10.565  13.902  0.00  0.00    -0.366 OA
ATOM     11  C   UNL     1      -3.610 -10.837  15.306  0.00  0.00    +0.158 C 
ATOM     12  C   UNL     1      -2.196 -11.367  15.474  0.00  0.00    +0.175 C 
ATOM     13  C   UNL     1      -1.442 -10.553  14.443  0.00  0.00    +0.175 C 
ATOM     14  C   UNL     1      -2.447 -10.483  13.298  0.00  0.00    +0.165 C 
ENDROOT
BRANCH  12   3
ATOM      3  O   UNL     1      -1.715 -11.186  16.789  0.00  0.00    -0.387 OA
ATOM     30  H   UNL     1      -0.990 -10.539  16.747  0.00  0.00    +0.210 HD
ENDBRANCH  12   3
BRANCH  13   4
ATOM      4  O   UNL     1      -1.223  -9.226  14.922  0.00  0.00    -0.387 OA
ATOM     31  H   UNL     1      -1.495  -9.206  15.855  0.00  0.00    +0.210 HD
ENDBRANCH  13   4
BRANCH  11  16
ATOM     16  C   UNL     1      -4.678 -11.820  15.753  0.00  0.00    +0.130 C 
BRANCH  16  20
ATOM      6  O   UNL     1      -6.669 -10.517  15.699  0.00  0.00    -0.276 OA
ATOM      9  N   UNL     1      -5.837 -11.088  17.781  0.00  0.00    -0.296 N 
ATOM     15  C   UNL     1      -6.821 -10.337  18.566  0.00  0.00    +0.102 C 
ATOM     17  C   UNL     1      -6.203 -10.281  19.965  0.00  0.00    +0.026 C 
ATOM     18  C   UNL     1      -4.857 -11.739  18.646  0.00  0.00    +0.108 C 
ATOM     19  C   UNL     1      -5.411 -11.580  20.053  0.00  0.00    +0.021 C 
ATOM     20  C   UNL     1      -5.823 -11.078  16.396  0.00  0.00    +0.218 C 
BRANCH  15  22
ATOM     22  C   UNL     1      -8.182 -11.031  18.564  0.00  0.00    +0.181 C 
BRANCH  22   5
ATOM      5  O   UNL     1      -8.745 -10.920  19.858  0.00  0.00    -0.381 OA
ATOM     24  C   UNL     1     -10.053 -11.475  19.915  0.00  0.00    +0.194 C 
ENDBRANCH  22   5
ENDBRANCH  15  22
ENDBRANCH  16  20
ENDBRANCH  11  16
BRANCH  14  21
ATOM     21  C   UNL     1      -2.314 -11.638  12.316  0.00  0.00    +0.140 C 
BRANCH  21  10
ATOM     10  N   UNL     1      -3.512 -12.423  12.273  0.00  0.00    -0.187 NA
ATOM     32  H   UNL     1      -3.573 -13.203  12.939  0.00  0.00    +0.148 HD
BRANCH  10   1
ATOM      1  S   UNL     1      -4.458 -12.537  10.837  0.00  0.00    +0.058 S 
ATOM      7  O   UNL     1      -5.735 -13.139  11.171  0.00  0.00    -0.153 OA
ATOM      8  O   UNL     1      -3.659 -13.073   9.752  0.00  0.00    -0.153 OA
BRANCH   1  23
ATOM     23  C   UNL     1      -4.738 -10.829  10.475  0.00  0.00    +0.105 A 
ATOM     25  C   UNL     1      -5.712 -10.118  11.176  0.00  0.00    +0.028 A 
ATOM     26  C   UNL     1      -3.986 -10.193   9.488  0.00  0.00    +0.028 A 
ATOM     27  C   UNL     1      -5.935  -8.772  10.890  0.00  0.00    +0.002 A 
ATOM     28  C   UNL     1      -4.208  -8.846   9.201  0.00  0.00    +0.002 A 
ATOM     29  C   UNL     1      -5.181  -8.136   9.902  0.00  0.00    +0.000 A 
ENDBRANCH   1  23
ENDBRANCH  10   1
ENDBRANCH  21  10
ENDBRANCH  14  21
TORSDOF 10
ENDMDL
MODEL 9
REMARK VINA RESULT:      -6.4      8.293     11.387
REMARK  Name = 40777894
REMARK  11 active torsions:
REMARK  status: ('A' for Active; 'I' for Inactive)
REMARK    1  A    between atoms: S_1  and  N_10
REMARK    2  A    between atoms: S_1  and  C_23
REMARK    3  A    between atoms: O_3  and  C_12
REMARK    4  A    between atoms: O_4  and  C_13
REMARK    5  A    between atoms: O_5  and  C_22
REMARK    6  A    between atoms: O_5  and  C_24
REMARK    7  A    between atoms: N_10  and  C_21
REMARK    8  A    between atoms: C_11  and  C_16
REMARK    9  A    between atoms: C_14  and  C_21
REMARK   10  A    between atoms: C_15  and  C_22
REMARK   11  A    between atoms: C_16  and  C_20
REMARK                            x       y       z     vdW  Elec       q    Type
REMARK                         _______ _______ _______ _____ _____    ______ ____
ROOT
ATOM      2  O   UNL     1      19.072   6.247  20.121  0.00  0.00    -0.366 OA
ATOM     11  C   UNL     1      18.273   7.099  20.960  0.00  0.00    +0.158 C 
ATOM     12  C   UNL     1      19.152   7.444  22.151  0.00  0.00    +0.175 C 
ATOM     13  C   UNL     1      20.518   7.534  21.504  0.00  0.00    +0.175 C 
ATOM     14  C   UNL     1      20.464   6.400  20.487  0.00  0.00    +0.165 C 
ENDROOT
BRANCH  12   3
ATOM      3  O   UNL     1      18.749   8.643  22.777  0.00  0.00    -0.387 OA
ATOM     30  H   UNL     1      19.448   8.893  23.404  0.00  0.00    +0.210 HD
ENDBRANCH  12   3
BRANCH  13   4
ATOM      4  O   UNL     1      20.648   8.764  20.790  0.00  0.00    -0.387 OA
ATOM     31  H   UNL     1      21.272   8.611  20.060  0.00  0.00    +0.210 HD
ENDBRANCH  13   4
BRANCH  11  16
ATOM     16  C   UNL     1      16.991   6.381  21.345  0.00  0.00    +0.130 C 
BRANCH  16  20
ATOM      6  O   UNL     1      15.895   6.116  19.249  0.00  0.00    -0.276 OA
ATOM      9  N   UNL     1      14.971   7.624  20.742  0.00  0.00    -0.296 N 
ATOM     15  C   UNL     1      13.910   8.108  19.855  0.00  0.00    +0.102 C 
ATOM     17  C   UNL     1      13.427   9.391  20.534  0.00  0.00    +0.026 C 
ATOM     18  C   UNL     1      14.949   8.323  22.024  0.00  0.00    +0.108 C 
ATOM     19  C   UNL     1      13.648   9.112  22.015  0.00  0.00    +0.021 C 
ATOM     20  C   UNL     1      15.909   6.687  20.341  0.00  0.00    +0.218 C 
BRANCH  15  22
ATOM     22  C   UNL     1      12.793   7.077  19.708  0.00  0.00    +0.181 C 
BRANCH  22   5
ATOM      5  O   UNL     1      12.421   7.009  18.343  0.00  0.00    -0.381 OA
ATOM     24  C   UNL     1      13.355   7.683  17.507  0.00  0.00    +0.194 C 
ENDBRANCH  22   5
ENDBRANCH  15  22
ENDBRANCH  16  20
ENDBRANCH  11  16
BRANCH  14  21
ATOM     21  C   UNL     1      20.945   5.070  21.050  0.00  0.00    +0.140 C 
BRANCH  21  10
ATOM     10  N   UNL     1      22.009   4.527  20.259  0.00  0.00    -0.187 NA
ATOM     32  H   UNL     1      21.771   3.730  19.656  0.00  0.00    +0.148 HD
BRANCH  10   1
ATOM      1  S   UNL     1      23.656   4.688  20.741  0.00  0.00    +0.058 S 
ATOM      7  O   UNL     1      23.754   5.777  21.694  0.00  0.00    -0.153 OA
ATOM      8  O   UNL     1      24.523   4.654  19.579  0.00  0.00    -0.153 OA
BRANCH   1  23
ATOM     23  C   UNL     1      23.907   3.173  21.617  0.00  0.00    +0.105 A 
ATOM     25  C   UNL     1      24.309   2.028  20.930  0.00  0.00    +0.028 A 
ATOM     26  C   UNL     1      23.701   3.124  22.996  0.00  0.00    +0.028 A 
ATOM     27  C   UNL     1      24.505   0.833  21.620  0.00  0.00    +0.002 A 
ATOM     28  C   UNL     1      23.898   1.928  23.687  0.00  0.00    +0.002 A 
ATOM     29  C   UNL     1      24.300   0.783  23.000  0.00  0.00    +0.000 A 
ENDBRANCH   1  23
ENDBRANCH  10   1
ENDBRANCH  21  10
ENDBRANCH  14  21
TORSDOF 10
ENDMDL
MODEL 10
REMARK VINA RESULT:      -6.3     27.027     28.451
REMARK  Name = 40777894
REMARK  11 active torsions:
REMARK  status: ('A' for Active; 'I' for Inactive)
REMARK    1  A    between atoms: S_1  and  N_10
REMARK    2  A    between atoms: S_1  and  C_23
REMARK    3  A    between atoms: O_3  and  C_12
REMARK    4  A    between atoms: O_4  and  C_13
REMARK    5  A    between atoms: O_5  and  C_22
REMARK    6  A    between atoms: O_5  and  C_24
REMARK    7  A    between atoms: N_10  and  C_21
REMARK    8  A    between atoms: C_11  and  C_16
REMARK    9  A    between atoms: C_14  and  C_21
REMARK   10  A    between atoms: C_15  and  C_22
REMARK   11  A    between atoms: C_16  and  C_20
REMARK                            x       y       z     vdW  Elec       q    Type
REMARK                         _______ _______ _______ _____ _____    ______ ____
ROOT
ATOM      2  O   UNL     1      -6.469 -11.672  17.313  0.00  0.00    -0.366 OA
ATOM     11  C   UNL     1      -5.196 -11.331  16.736  0.00  0.00    +0.158 C 
ATOM     12  C   UNL     1      -4.199 -11.379  17.882  0.00  0.00    +0.175 C 
ATOM     13  C   UNL     1      -4.742 -12.527  18.708  0.00  0.00    +0.175 C 
ATOM     14  C   UNL     1      -6.248 -12.321  18.587  0.00  0.00    +0.165 C 
ENDROOT
BRANCH  12   3
ATOM      3  O   UNL     1      -2.880 -11.593  17.428  0.00  0.00    -0.387 OA
ATOM     30  H   UNL     1      -2.891 -12.384  16.863  0.00  0.00    +0.210 HD
ENDBRANCH  12   3
BRANCH  13   4
ATOM      4  O   UNL     1      -4.415 -13.775  18.099  0.00  0.00    -0.387 OA
ATOM     31  H   UNL     1      -3.453 -13.893  18.177  0.00  0.00    +0.210 HD
ENDBRANCH  13   4
BRANCH  11  16
ATOM     16  C   UNL     1      -5.284  -9.969  16.070  0.00  0.00    +0.130 C 
BRANCH  16  20
ATOM      6  O   UNL     1      -6.954 -10.003  14.375  0.00  0.00    -0.276 OA
ATOM      9  N   UNL     1      -4.770 -10.392  13.714  0.00  0.00    -0.296 N 
ATOM     15  C   UNL     1      -5.068 -10.665  12.306  0.00  0.00    +0.102 C 
ATOM     17  C   UNL     1      -3.788 -11.321  11.785  0.00  0.00    +0.026 C 
ATOM     18  C   UNL     1      -3.344 -10.540  13.992  0.00  0.00    +0.108 C 
ATOM     19  C   UNL     1      -2.692 -10.675  12.624  0.00  0.00    +0.021 C 
ATOM     20  C   UNL     1      -5.758 -10.122  14.647  0.00  0.00    +0.218 C 
BRANCH  15  22
ATOM     22  C   UNL     1      -5.408  -9.382  11.549  0.00  0.00    +0.181 C 
BRANCH  22   5
ATOM      5  O   UNL     1      -6.610  -9.589  10.831  0.00  0.00    -0.381 OA
ATOM     24  C   UNL     1      -6.730  -8.693   9.732  0.00  0.00    +0.194 C 
ENDBRANCH  22   5
ENDBRANCH  15  22
ENDBRANCH  16  20
ENDBRANCH  11  16
BRANCH  14  21
ATOM     21  C   UNL     1      -6.817 -11.420  19.673  0.00  0.00    +0.140 C 
BRANCH  21  10
ATOM     10  N   UNL     1      -7.767 -10.493  19.134  0.00  0.00    -0.187 NA
ATOM     32  H   UNL     1      -7.488  -9.505  19.123  0.00  0.00    +0.148 HD
BRANCH  10   1
ATOM      1  S   UNL     1      -9.456 -10.837  19.139  0.00  0.00    +0.058 S 
ATOM      7  O   UNL     1      -9.979 -10.564  20.465  0.00  0.00    -0.153 OA
ATOM      8  O   UNL     1      -9.709 -12.116  18.503  0.00  0.00    -0.153 OA
BRANCH   1  23
ATOM     23  C   UNL     1     -10.064  -9.588  18.046  0.00  0.00    +0.105 A 
ATOM     25  C   UNL     1     -11.437  -9.376  17.924  0.00  0.00    +0.028 A 
ATOM     26  C   UNL     1      -9.169  -8.815  17.306  0.00  0.00    +0.028 A 
ATOM     27  C   UNL     1     -11.917  -8.391  17.060  0.00  0.00    +0.002 A 
ATOM     28  C   UNL     1      -9.649  -7.830  16.442  0.00  0.00    +0.002 A 
ATOM     29  C   UNL     1     -11.021  -7.618  16.319  0.00  0.00    +0.000 A 
ENDBRANCH   1  23
ENDBRANCH  10   1
ENDBRANCH  21  10
ENDBRANCH  14  21
TORSDOF 10
ENDMDL
