MODEL 1
REMARK VINA RESULT:      -7.0      0.000      0.000
REMARK  Name = 40779327
REMARK  6 active torsions:
REMARK  status: ('A' for Active; 'I' for Inactive)
REMARK    1  A    between atoms: N_4  and  C_14
REMARK    2  A    between atoms: N_5  and  C_22
REMARK    3  A    between atoms: C_8  and  C_15
REMARK    4  A    between atoms: C_9  and  C_14
REMARK    5  A    between atoms: C_17  and  C_18
REMARK    6  A    between atoms: C_19  and  C_26
REMARK                            x       y       z     vdW  Elec       q    Type
REMARK                         _______ _______ _______ _____ _____    ______ ____
ROOT
ATOM      3  N   UNL     1      -6.174 -10.612  18.131  0.00  0.00    -0.297 NA
ATOM      7  C   UNL     1      -4.469 -12.356  17.217  0.00  0.00    +0.002 C 
ATOM      8  C   UNL     1      -4.103 -10.929  16.724  0.00  0.00    +0.055 C 
ATOM      9  C   UNL     1      -6.897 -11.753  17.511  0.00  0.00    +0.074 C 
ATOM     10  C   UNL     1      -5.911 -12.692  16.783  0.00  0.00    +0.024 C 
ATOM     11  C   UNL     1      -4.460 -12.310  18.760  0.00  0.00    +0.019 C 
ATOM     12  C   UNL     1      -5.267  -9.983  17.137  0.00  0.00    +0.094 C 
ATOM     13  C   UNL     1      -5.345 -11.148  19.238  0.00  0.00    +0.085 C 
ENDROOT
BRANCH   8  15
ATOM      5  N   UNL     1      -2.410 -10.638  14.855  0.00  0.00    -0.270 N 
ATOM      6  N   UNL     1      -2.272 -10.488  13.528  0.00  0.00    -0.168 NA
ATOM     15  C   UNL     1      -3.707 -10.752  15.266  0.00  0.00    +0.044 A 
ATOM     16  C   UNL     1      -4.469 -10.671  14.125  0.00  0.00    +0.056 A 
ATOM     19  C   UNL     1      -3.533 -10.509  13.087  0.00  0.00    +0.128 A 
ATOM     22  C   UNL     1      -1.231 -10.663  15.689  0.00  0.00    +0.172 C 
BRANCH  19  26
ATOM      2  O   UNL     1      -4.848 -11.059  11.027  0.00  0.00    -0.461 OA
ATOM     26  C   UNL     1      -3.856 -10.375  11.655  0.00  0.00    +0.155 A 
ATOM     27  C   UNL     1      -3.204  -9.548  10.771  0.00  0.00    +0.051 A 
ATOM     28  C   UNL     1      -3.836  -9.736   9.518  0.00  0.00    +0.042 A 
ATOM     29  C   UNL     1      -4.829 -10.665   9.726  0.00  0.00    +0.196 A 
ENDBRANCH  19  26
ENDBRANCH   8  15
BRANCH   9  14
ATOM     14  C   UNL     1      -8.031 -11.293  16.591  0.00  0.00    +0.123 C 
BRANCH  14   4
ATOM      1  O   UNL     1      -9.108  -8.855  15.442  0.00  0.00    -0.276 OA
ATOM      4  N   UNL     1      -8.849 -10.315  17.238  0.00  0.00    -0.314 N 
ATOM     18  C   UNL     1      -9.324  -9.167  16.610  0.00  0.00    +0.216 C 
ATOM     30  H   UNL     1      -9.134 -10.513  18.193  0.00  0.00    +0.149 HD
BRANCH  18  17
ATOM     17  C   UNL     1     -10.179  -8.323  17.511  0.00  0.00    +0.075 C 
ATOM     20  C   UNL     1     -10.843  -7.187  16.731  0.00  0.00    +0.013 C 
ATOM     21  C   UNL     1     -11.189  -9.202  18.253  0.00  0.00    +0.013 C 
ATOM     23  C   UNL     1     -12.027  -7.645  15.879  0.00  0.00    +0.001 C 
ATOM     24  C   UNL     1     -12.356  -9.646  17.374  0.00  0.00    +0.001 C 
ATOM     25  C   UNL     1     -13.027  -8.462  16.689  0.00  0.00    +0.000 C 
ENDBRANCH  18  17
ENDBRANCH  14   4
ENDBRANCH   9  14
TORSDOF 5
ENDMDL
MODEL 2
REMARK VINA RESULT:      -6.8      1.680      7.655
REMARK  Name = 40779327
REMARK  6 active torsions:
REMARK  status: ('A' for Active; 'I' for Inactive)
REMARK    1  A    between atoms: N_4  and  C_14
REMARK    2  A    between atoms: N_5  and  C_22
REMARK    3  A    between atoms: C_8  and  C_15
REMARK    4  A    between atoms: C_9  and  C_14
REMARK    5  A    between atoms: C_17  and  C_18
REMARK    6  A    between atoms: C_19  and  C_26
REMARK                            x       y       z     vdW  Elec       q    Type
REMARK                         _______ _______ _______ _____ _____    ______ ____
ROOT
ATOM      3  N   UNL     1      -5.600 -12.551  16.417  0.00  0.00    -0.297 NA
ATOM      7  C   UNL     1      -5.578 -10.313  17.749  0.00  0.00    +0.002 C 
ATOM      8  C   UNL     1      -6.962 -11.007  17.876  0.00  0.00    +0.055 C 
ATOM      9  C   UNL     1      -5.082 -11.453  15.559  0.00  0.00    +0.074 C 
ATOM     10  C   UNL     1      -5.254 -10.087  16.257  0.00  0.00    +0.024 C 
ATOM     11  C   UNL     1      -4.530 -11.307  18.295  0.00  0.00    +0.019 C 
ATOM     12  C   UNL     1      -6.964 -12.219  16.900  0.00  0.00    +0.094 C 
ATOM     13  C   UNL     1      -4.707 -12.665  17.596  0.00  0.00    +0.085 C 
ENDROOT
BRANCH   8  15
ATOM      5  N   UNL     1      -9.286 -10.255  18.568  0.00  0.00    -0.270 N 
ATOM      6  N   UNL     1     -10.287  -9.411  18.273  0.00  0.00    -0.168 NA
ATOM     15  C   UNL     1      -8.211 -10.150  17.733  0.00  0.00    +0.044 A 
ATOM     16  C   UNL     1      -8.535  -9.168  16.829  0.00  0.00    +0.056 A 
ATOM     19  C   UNL     1      -9.823  -8.749  17.209  0.00  0.00    +0.128 A 
ATOM     22  C   UNL     1      -9.428 -11.155  19.689  0.00  0.00    +0.172 C 
BRANCH  19  26
ATOM      2  O   UNL     1     -10.080  -6.666  15.842  0.00  0.00    -0.461 OA
ATOM     26  C   UNL     1     -10.615  -7.699  16.544  0.00  0.00    +0.155 A 
ATOM     27  C   UNL     1     -11.988  -7.625  16.541  0.00  0.00    +0.051 A 
ATOM     28  C   UNL     1     -12.318  -6.471  15.791  0.00  0.00    +0.042 A 
ATOM     29  C   UNL     1     -11.123  -5.922  15.387  0.00  0.00    +0.196 A 
ENDBRANCH  19  26
ENDBRANCH   8  15
BRANCH   9  14
ATOM     14  C   UNL     1      -5.707 -11.462  14.162  0.00  0.00    +0.123 C 
BRANCH  14   4
ATOM      1  O   UNL     1      -5.398  -9.315  12.233  0.00  0.00    -0.276 OA
ATOM      4  N   UNL     1      -4.702 -11.338  13.152  0.00  0.00    -0.314 N 
ATOM     18  C   UNL     1      -4.627 -10.270  12.263  0.00  0.00    +0.216 C 
ATOM     30  H   UNL     1      -3.978 -12.051  13.133  0.00  0.00    +0.149 HD
BRANCH  18  17
ATOM     17  C   UNL     1      -3.461 -10.377  11.322  0.00  0.00    +0.075 C 
ATOM     20  C   UNL     1      -3.406 -11.760  10.672  0.00  0.00    +0.013 C 
ATOM     21  C   UNL     1      -3.506  -9.241  10.297  0.00  0.00    +0.013 C 
ATOM     23  C   UNL     1      -4.440 -11.952   9.562  0.00  0.00    +0.001 C 
ATOM     24  C   UNL     1      -4.551  -9.460   9.206  0.00  0.00    +0.001 C 
ATOM     25  C   UNL     1      -4.393 -10.822   8.540  0.00  0.00    +0.000 C 
ENDBRANCH  18  17
ENDBRANCH  14   4
ENDBRANCH   9  14
TORSDOF 5
ENDMDL
MODEL 3
REMARK VINA RESULT:      -6.8      3.534      7.196
REMARK  Name = 40779327
REMARK  6 active torsions:
REMARK  status: ('A' for Active; 'I' for Inactive)
REMARK    1  A    between atoms: N_4  and  C_14
REMARK    2  A    between atoms: N_5  and  C_22
REMARK    3  A    between atoms: C_8  and  C_15
REMARK    4  A    between atoms: C_9  and  C_14
REMARK    5  A    between atoms: C_17  and  C_18
REMARK    6  A    between atoms: C_19  and  C_26
REMARK                            x       y       z     vdW  Elec       q    Type
REMARK                         _______ _______ _______ _____ _____    ______ ____
ROOT
ATOM      3  N   UNL     1      -6.093 -12.020  17.180  0.00  0.00    -0.297 NA
ATOM      7  C   UNL     1      -6.482 -11.248  19.637  0.00  0.00    +0.002 C 
ATOM      8  C   UNL     1      -7.454 -12.404  19.270  0.00  0.00    +0.055 C 
ATOM      9  C   UNL     1      -6.238 -10.541  17.232  0.00  0.00    +0.074 C 
ATOM     10  C   UNL     1      -6.673 -10.085  18.641  0.00  0.00    +0.024 C 
ATOM     11  C   UNL     1      -5.050 -11.788  19.433  0.00  0.00    +0.019 C 
ATOM     12  C   UNL     1      -7.303 -12.669  17.745  0.00  0.00    +0.094 C 
ATOM     13  C   UNL     1      -4.932 -12.392  18.024  0.00  0.00    +0.085 C 
ENDROOT
BRANCH   8  15
ATOM      5  N   UNL     1      -9.550 -13.223  20.443  0.00  0.00    -0.270 N 
ATOM      6  N   UNL     1     -10.833 -12.926  20.708  0.00  0.00    -0.168 NA
ATOM     15  C   UNL     1      -8.910 -12.279  19.693  0.00  0.00    +0.044 A 
ATOM     16  C   UNL     1      -9.840 -11.298  19.452  0.00  0.00    +0.056 A 
ATOM     19  C   UNL     1     -11.005 -11.749  20.100  0.00  0.00    +0.128 A 
ATOM     22  C   UNL     1      -8.991 -14.454  20.950  0.00  0.00    +0.172 C 
BRANCH  19  26
ATOM      2  O   UNL     1     -13.449 -11.520  19.600  0.00  0.00    -0.461 OA
ATOM     26  C   UNL     1     -12.296 -11.039  20.137  0.00  0.00    +0.155 A 
ATOM     27  C   UNL     1     -12.507  -9.808  20.712  0.00  0.00    +0.051 A 
ATOM     28  C   UNL     1     -13.878  -9.513  20.517  0.00  0.00    +0.042 A 
ATOM     29  C   UNL     1     -14.407 -10.584  19.835  0.00  0.00    +0.196 A 
ENDBRANCH  19  26
ENDBRANCH   8  15
BRANCH   9  14
ATOM     14  C   UNL     1      -7.175 -10.008  16.146  0.00  0.00    +0.123 C 
BRANCH  14   4
ATOM      1  O   UNL     1      -9.435  -8.782  14.797  0.00  0.00    -0.276 OA
ATOM      4  N   UNL     1      -8.111  -9.075  16.691  0.00  0.00    -0.314 N 
ATOM     18  C   UNL     1      -9.171  -8.532  15.970  0.00  0.00    +0.216 C 
ATOM     30  H   UNL     1      -8.014  -8.848  17.676  0.00  0.00    +0.149 HD
BRANCH  18  17
ATOM     17  C   UNL     1     -10.013  -7.597  16.790  0.00  0.00    +0.075 C 
ATOM     20  C   UNL     1     -10.778  -6.620  15.895  0.00  0.00    +0.013 C 
ATOM     21  C   UNL     1     -10.933  -8.394  17.718  0.00  0.00    +0.013 C 
ATOM     23  C   UNL     1     -11.985  -7.250  15.200  0.00  0.00    +0.001 C 
ATOM     24  C   UNL     1     -12.125  -9.014  16.993  0.00  0.00    +0.001 C 
ATOM     25  C   UNL     1     -12.894  -7.975  16.185  0.00  0.00    +0.000 C 
ENDBRANCH  18  17
ENDBRANCH  14   4
ENDBRANCH   9  14
TORSDOF 5
ENDMDL
MODEL 4
REMARK VINA RESULT:      -6.7      2.484      6.069
REMARK  Name = 40779327
REMARK  6 active torsions:
REMARK  status: ('A' for Active; 'I' for Inactive)
REMARK    1  A    between atoms: N_4  and  C_14
REMARK    2  A    between atoms: N_5  and  C_22
REMARK    3  A    between atoms: C_8  and  C_15
REMARK    4  A    between atoms: C_9  and  C_14
REMARK    5  A    between atoms: C_17  and  C_18
REMARK    6  A    between atoms: C_19  and  C_26
REMARK                            x       y       z     vdW  Elec       q    Type
REMARK                         _______ _______ _______ _____ _____    ______ ____
ROOT
ATOM      3  N   UNL     1      -6.502 -12.756  18.017  0.00  0.00    -0.297 NA
ATOM      7  C   UNL     1      -5.539 -10.414  17.407  0.00  0.00    +0.002 C 
ATOM      8  C   UNL     1      -6.890 -10.652  16.678  0.00  0.00    +0.055 C 
ATOM      9  C   UNL     1      -5.080 -12.884  17.600  0.00  0.00    +0.074 C 
ATOM     10  C   UNL     1      -4.554 -11.544  17.040  0.00  0.00    +0.024 C 
ATOM     11  C   UNL     1      -5.821 -10.534  18.920  0.00  0.00    +0.019 C 
ATOM     12  C   UNL     1      -7.296 -12.133  16.928  0.00  0.00    +0.094 C 
ATOM     13  C   UNL     1      -6.550 -11.860  19.196  0.00  0.00    +0.085 C 
ENDROOT
BRANCH   8  15
ATOM      5  N   UNL     1      -8.134  -9.773  14.649  0.00  0.00    -0.270 N 
ATOM      6  N   UNL     1      -8.019  -9.494  13.340  0.00  0.00    -0.168 NA
ATOM     15  C   UNL     1      -6.993 -10.265  15.211  0.00  0.00    +0.044 A 
ATOM     16  C   UNL     1      -6.066 -10.312  14.197  0.00  0.00    +0.056 A 
ATOM     19  C   UNL     1      -6.753  -9.825  13.070  0.00  0.00    +0.128 A 
ATOM     22  C   UNL     1      -9.396  -9.537  15.312  0.00  0.00    +0.172 C 
BRANCH  19  26
ATOM      2  O   UNL     1      -6.385 -10.557  10.702  0.00  0.00    -0.461 OA
ATOM     26  C   UNL     1      -6.185  -9.676  11.718  0.00  0.00    +0.155 A 
ATOM     27  C   UNL     1      -5.385  -8.637  11.305  0.00  0.00    +0.051 A 
ATOM     28  C   UNL     1      -5.072  -8.896   9.949  0.00  0.00    +0.042 A 
ATOM     29  C   UNL     1      -5.704 -10.075   9.629  0.00  0.00    +0.196 A 
ENDBRANCH  19  26
ENDBRANCH   8  15
BRANCH   9  14
ATOM     14  C   UNL     1      -4.861 -14.037  16.618  0.00  0.00    +0.123 C 
BRANCH  14   4
ATOM      1  O   UNL     1      -4.842 -13.760  13.729  0.00  0.00    -0.276 OA
ATOM      4  N   UNL     1      -3.733 -13.785  15.777  0.00  0.00    -0.314 N 
ATOM     18  C   UNL     1      -3.813 -13.667  14.392  0.00  0.00    +0.216 C 
ATOM     30  H   UNL     1      -2.841 -13.632  16.237  0.00  0.00    +0.149 HD
BRANCH  18  17
ATOM     17  C   UNL     1      -2.484 -13.378  13.756  0.00  0.00    +0.075 C 
ATOM     20  C   UNL     1      -2.626 -13.205  12.243  0.00  0.00    +0.013 C 
ATOM     21  C   UNL     1      -1.828 -12.172  14.432  0.00  0.00    +0.013 C 
ATOM     23  C   UNL     1      -3.220 -11.855  11.839  0.00  0.00    +0.001 C 
ATOM     24  C   UNL     1      -2.446 -10.841  14.011  0.00  0.00    +0.001 C 
ATOM     25  C   UNL     1      -2.485 -10.692  12.495  0.00  0.00    +0.000 C 
ENDBRANCH  18  17
ENDBRANCH  14   4
ENDBRANCH   9  14
TORSDOF 5
ENDMDL
MODEL 5
REMARK VINA RESULT:      -6.5      2.304      6.372
REMARK  Name = 40779327
REMARK  6 active torsions:
REMARK  status: ('A' for Active; 'I' for Inactive)
REMARK    1  A    between atoms: N_4  and  C_14
REMARK    2  A    between atoms: N_5  and  C_22
REMARK    3  A    between atoms: C_8  and  C_15
REMARK    4  A    between atoms: C_9  and  C_14
REMARK    5  A    between atoms: C_17  and  C_18
REMARK    6  A    between atoms: C_19  and  C_26
REMARK                            x       y       z     vdW  Elec       q    Type
REMARK                         _______ _______ _______ _____ _____    ______ ____
ROOT
ATOM      3  N   UNL     1      -2.490 -10.762  13.372  0.00  0.00    -0.297 NA
ATOM      7  C   UNL     1      -4.044 -12.850  13.275  0.00  0.00    +0.002 C 
ATOM      8  C   UNL     1      -4.859 -11.554  13.011  0.00  0.00    +0.055 C 
ATOM      9  C   UNL     1      -2.280 -11.609  14.576  0.00  0.00    +0.074 C 
ATOM     10  C   UNL     1      -3.332 -12.737  14.639  0.00  0.00    +0.024 C 
ATOM     11  C   UNL     1      -2.943 -12.912  12.194  0.00  0.00    +0.019 C 
ATOM     12  C   UNL     1      -3.914 -10.349  13.283  0.00  0.00    +0.094 C 
ATOM     13  C   UNL     1      -2.172 -11.582  12.178  0.00  0.00    +0.085 C 
ENDROOT
BRANCH   8  15
ATOM      5  N   UNL     1      -7.309 -12.122  13.351  0.00  0.00    -0.270 N 
ATOM      6  N   UNL     1      -8.399 -11.835  14.082  0.00  0.00    -0.168 NA
ATOM     15  C   UNL     1      -6.206 -11.399  13.701  0.00  0.00    +0.044 A 
ATOM     16  C   UNL     1      -6.603 -10.583  14.733  0.00  0.00    +0.056 A 
ATOM     19  C   UNL     1      -7.962 -10.895  14.925  0.00  0.00    +0.128 A 
ATOM     22  C   UNL     1      -7.398 -13.121  12.312  0.00  0.00    +0.172 C 
BRANCH  19  26
ATOM      2  O   UNL     1     -10.012 -10.837  16.364  0.00  0.00    -0.461 OA
ATOM     26  C   UNL     1      -8.849 -10.283  15.930  0.00  0.00    +0.155 A 
ATOM     27  C   UNL     1      -8.622  -9.081  16.558  0.00  0.00    +0.051 A 
ATOM     28  C   UNL     1      -9.716  -8.883  17.435  0.00  0.00    +0.042 A 
ATOM     29  C   UNL     1     -10.534  -9.978  17.279  0.00  0.00    +0.196 A 
ENDBRANCH  19  26
ENDBRANCH   8  15
BRANCH   9  14
ATOM     14  C   UNL     1      -2.245 -10.788  15.867  0.00  0.00    +0.123 C 
BRANCH  14   4
ATOM      1  O   UNL     1      -4.627 -10.028  17.342  0.00  0.00    -0.276 OA
ATOM      4  N   UNL     1      -2.866 -11.499  16.940  0.00  0.00    -0.314 N 
ATOM     18  C   UNL     1      -4.013 -11.060  17.597  0.00  0.00    +0.216 C 
ATOM     30  H   UNL     1      -2.467 -12.399  17.188  0.00  0.00    +0.149 HD
BRANCH  18  17
ATOM     17  C   UNL     1      -4.467 -12.008  18.669  0.00  0.00    +0.075 C 
ATOM     20  C   UNL     1      -5.516 -11.354  19.570  0.00  0.00    +0.013 C 
ATOM     21  C   UNL     1      -4.957 -13.316  18.043  0.00  0.00    +0.013 C 
ATOM     23  C   UNL     1      -6.900 -11.267  18.928  0.00  0.00    +0.001 C 
ATOM     24  C   UNL     1      -6.339 -13.194  17.406  0.00  0.00    +0.001 C 
ATOM     25  C   UNL     1      -7.358 -12.613  18.379  0.00  0.00    +0.000 C 
ENDBRANCH  18  17
ENDBRANCH  14   4
ENDBRANCH   9  14
TORSDOF 5
ENDMDL
MODEL 6
REMARK VINA RESULT:      -6.3      3.261      8.270
REMARK  Name = 40779327
REMARK  6 active torsions:
REMARK  status: ('A' for Active; 'I' for Inactive)
REMARK    1  A    between atoms: N_4  and  C_14
REMARK    2  A    between atoms: N_5  and  C_22
REMARK    3  A    between atoms: C_8  and  C_15
REMARK    4  A    between atoms: C_9  and  C_14
REMARK    5  A    between atoms: C_17  and  C_18
REMARK    6  A    between atoms: C_19  and  C_26
REMARK                            x       y       z     vdW  Elec       q    Type
REMARK                         _______ _______ _______ _____ _____    ______ ____
ROOT
ATOM      3  N   UNL     1     -10.441 -10.542  16.395  0.00  0.00    -0.297 NA
ATOM      7  C   UNL     1     -11.287  -8.335  17.488  0.00  0.00    +0.002 C 
ATOM      8  C   UNL     1     -12.161  -8.701  16.257  0.00  0.00    +0.055 C 
ATOM      9  C   UNL     1      -9.303  -9.607  16.597  0.00  0.00    +0.074 C 
ATOM     10  C   UNL     1      -9.811  -8.221  17.050  0.00  0.00    +0.024 C 
ATOM     11  C   UNL     1     -11.378  -9.523  18.469  0.00  0.00    +0.019 C 
ATOM     12  C   UNL     1     -11.479  -9.904  15.546  0.00  0.00    +0.094 C 
ATOM     13  C   UNL     1     -11.039 -10.824  17.722  0.00  0.00    +0.085 C 
ENDROOT
BRANCH   8  15
ATOM      5  N   UNL     1     -13.709  -6.901  15.359  0.00  0.00    -0.270 N 
ATOM      6  N   UNL     1     -13.848  -5.963  14.407  0.00  0.00    -0.168 NA
ATOM     15  C   UNL     1     -12.534  -7.592  15.285  0.00  0.00    +0.044 A 
ATOM     16  C   UNL     1     -11.858  -7.068  14.209  0.00  0.00    +0.056 A 
ATOM     19  C   UNL     1     -12.714  -6.069  13.708  0.00  0.00    +0.128 A 
ATOM     22  C   UNL     1     -14.764  -7.085  16.328  0.00  0.00    +0.172 C 
BRANCH  19  26
ATOM      2  O   UNL     1     -12.164  -5.671  11.297  0.00  0.00    -0.461 OA
ATOM     26  C   UNL     1     -12.437  -5.208  12.545  0.00  0.00    +0.155 A 
ATOM     27  C   UNL     1     -12.419  -3.833  12.565  0.00  0.00    +0.051 A 
ATOM     28  C   UNL     1     -12.114  -3.425  11.243  0.00  0.00    +0.042 A 
ATOM     29  C   UNL     1     -11.968  -4.580  10.510  0.00  0.00    +0.196 A 
ENDBRANCH  19  26
ENDBRANCH   8  15
BRANCH   9  14
ATOM     14  C   UNL     1      -8.403  -9.509  15.364  0.00  0.00    +0.123 C 
BRANCH  14   4
ATOM      1  O   UNL     1      -7.144 -12.125  15.343  0.00  0.00    -0.276 OA
ATOM      4  N   UNL     1      -7.048  -9.824  15.694  0.00  0.00    -0.314 N 
ATOM     18  C   UNL     1      -6.523 -11.113  15.658  0.00  0.00    +0.216 C 
ATOM     30  H   UNL     1      -6.434  -9.045  15.912  0.00  0.00    +0.149 HD
BRANCH  18  17
ATOM     17  C   UNL     1      -5.069 -11.160  16.028  0.00  0.00    +0.075 C 
ATOM     20  C   UNL     1      -4.768 -10.212  17.190  0.00  0.00    +0.013 C 
ATOM     21  C   UNL     1      -4.644 -12.602  16.314  0.00  0.00    +0.013 C 
ATOM     23  C   UNL     1      -5.227 -10.749  18.546  0.00  0.00    +0.001 C 
ATOM     24  C   UNL     1      -5.122 -13.109  17.673  0.00  0.00    +0.001 C 
ATOM     25  C   UNL     1      -4.721 -12.164  18.799  0.00  0.00    +0.000 C 
ENDBRANCH  18  17
ENDBRANCH  14   4
ENDBRANCH   9  14
TORSDOF 5
ENDMDL
MODEL 7
REMARK VINA RESULT:      -6.2      2.620      6.057
REMARK  Name = 40779327
REMARK  6 active torsions:
REMARK  status: ('A' for Active; 'I' for Inactive)
REMARK    1  A    between atoms: N_4  and  C_14
REMARK    2  A    between atoms: N_5  and  C_22
REMARK    3  A    between atoms: C_8  and  C_15
REMARK    4  A    between atoms: C_9  and  C_14
REMARK    5  A    between atoms: C_17  and  C_18
REMARK    6  A    between atoms: C_19  and  C_26
REMARK                            x       y       z     vdW  Elec       q    Type
REMARK                         _______ _______ _______ _____ _____    ______ ____
ROOT
ATOM      3  N   UNL     1     -11.440  -9.550  17.196  0.00  0.00    -0.297 NA
ATOM      7  C   UNL     1     -10.076  -7.775  15.866  0.00  0.00    +0.002 C 
ATOM      8  C   UNL     1     -10.417  -8.989  14.959  0.00  0.00    +0.055 C 
ATOM      9  C   UNL     1     -10.230  -9.157  17.965  0.00  0.00    +0.074 C 
ATOM     10  C   UNL     1      -9.305  -8.266  17.109  0.00  0.00    +0.024 C 
ATOM     11  C   UNL     1     -11.420  -7.200  16.364  0.00  0.00    +0.019 C 
ATOM     12  C   UNL     1     -11.047 -10.083  15.867  0.00  0.00    +0.094 C 
ATOM     13  C   UNL     1     -12.257  -8.332  16.982  0.00  0.00    +0.085 C 
ENDROOT
BRANCH   8  15
ATOM      5  N   UNL     1      -9.484  -9.735  12.719  0.00  0.00    -0.270 N 
ATOM      6  N   UNL     1      -8.398 -10.237  12.107  0.00  0.00    -0.168 NA
ATOM     15  C   UNL     1      -9.322  -9.545  14.061  0.00  0.00    +0.044 A 
ATOM     16  C   UNL     1      -8.040  -9.951  14.345  0.00  0.00    +0.056 A 
ATOM     19  C   UNL     1      -7.519 -10.366  13.105  0.00  0.00    +0.128 A 
ATOM     22  C   UNL     1     -10.668  -9.456  11.940  0.00  0.00    +0.172 C 
BRANCH  19  26
ATOM      2  O   UNL     1      -5.891 -12.149  12.439  0.00  0.00    -0.461 OA
ATOM     26  C   UNL     1      -6.161 -10.892  12.878  0.00  0.00    +0.155 A 
ATOM     27  C   UNL     1      -4.997 -10.188  13.076  0.00  0.00    +0.051 A 
ATOM     28  C   UNL     1      -3.942 -11.071  12.738  0.00  0.00    +0.042 A 
ATOM     29  C   UNL     1      -4.538 -12.251  12.357  0.00  0.00    +0.196 A 
ENDBRANCH  19  26
ENDBRANCH   8  15
BRANCH   9  14
ATOM     14  C   UNL     1      -9.486 -10.366  18.539  0.00  0.00    +0.123 C 
BRANCH  14   4
ATOM      1  O   UNL     1      -7.403 -11.710  20.050  0.00  0.00    -0.276 OA
ATOM      4  N   UNL     1      -8.072 -10.207  18.401  0.00  0.00    -0.314 N 
ATOM     18  C   UNL     1      -7.138 -10.894  19.171  0.00  0.00    +0.216 C 
ATOM     30  H   UNL     1      -7.747  -9.596  17.656  0.00  0.00    +0.149 HD
BRANCH  18  17
ATOM     17  C   UNL     1      -5.721 -10.559  18.804  0.00  0.00    +0.075 C 
ATOM     20  C   UNL     1      -4.757 -11.644  19.287  0.00  0.00    +0.013 C 
ATOM     21  C   UNL     1      -5.615 -10.298  17.300  0.00  0.00    +0.013 C 
ATOM     23  C   UNL     1      -4.782 -12.906  18.425  0.00  0.00    +0.001 C 
ATOM     24  C   UNL     1      -5.647 -11.578  16.467  0.00  0.00    +0.001 C 
ATOM     25  C   UNL     1      -4.610 -12.587  16.945  0.00  0.00    +0.000 C 
ENDBRANCH  18  17
ENDBRANCH  14   4
ENDBRANCH   9  14
TORSDOF 5
ENDMDL
MODEL 8
REMARK VINA RESULT:      -6.2      6.248     10.160
REMARK  Name = 40779327
REMARK  6 active torsions:
REMARK  status: ('A' for Active; 'I' for Inactive)
REMARK    1  A    between atoms: N_4  and  C_14
REMARK    2  A    between atoms: N_5  and  C_22
REMARK    3  A    between atoms: C_8  and  C_15
REMARK    4  A    between atoms: C_9  and  C_14
REMARK    5  A    between atoms: C_17  and  C_18
REMARK    6  A    between atoms: C_19  and  C_26
REMARK                            x       y       z     vdW  Elec       q    Type
REMARK                         _______ _______ _______ _____ _____    ______ ____
ROOT
ATOM      3  N   UNL     1     -10.007  -8.014   8.940  0.00  0.00    -0.297 NA
ATOM      7  C   UNL     1      -8.236  -6.774   7.487  0.00  0.00    +0.002 C 
ATOM      8  C   UNL     1      -9.112  -7.702   6.601  0.00  0.00    +0.055 C 
ATOM      9  C   UNL     1      -8.658  -8.159   9.548  0.00  0.00    +0.074 C 
ATOM     10  C   UNL     1      -7.570  -7.610   8.600  0.00  0.00    +0.024 C 
ATOM     11  C   UNL     1      -9.197  -5.782   8.178  0.00  0.00    +0.019 C 
ATOM     12  C   UNL     1     -10.000  -8.551   7.555  0.00  0.00    +0.094 C 
ATOM     13  C   UNL     1     -10.322  -6.567   8.872  0.00  0.00    +0.085 C 
ENDROOT
BRANCH   8  15
ATOM      5  N   UNL     1      -8.525  -8.313   4.208  0.00  0.00    -0.270 N 
ATOM      6  N   UNL     1      -7.838  -9.180   3.446  0.00  0.00    -0.168 NA
ATOM     15  C   UNL     1      -8.419  -8.553   5.548  0.00  0.00    +0.044 A 
ATOM     16  C   UNL     1      -7.605  -9.654   5.668  0.00  0.00    +0.056 A 
ATOM     19  C   UNL     1      -7.278  -9.996   4.343  0.00  0.00    +0.128 A 
ATOM     22  C   UNL     1      -9.277  -7.256   3.573  0.00  0.00    +0.172 C 
BRANCH  19  26
ATOM      2  O   UNL     1      -6.465 -11.720   2.716  0.00  0.00    -0.461 OA
ATOM     26  C   UNL     1      -6.416 -11.121   3.935  0.00  0.00    +0.155 A 
ATOM     27  C   UNL     1      -5.456 -11.709   4.725  0.00  0.00    +0.051 A 
ATOM     28  C   UNL     1      -4.878 -12.736   3.940  0.00  0.00    +0.042 A 
ATOM     29  C   UNL     1      -5.527 -12.703   2.728  0.00  0.00    +0.196 A 
ENDBRANCH  19  26
ENDBRANCH   8  15
BRANCH   9  14
ATOM     14  C   UNL     1      -8.364  -9.597   9.982  0.00  0.00    +0.123 C 
BRANCH  14   4
ATOM      1  O   UNL     1      -6.630 -11.602  11.164  0.00  0.00    -0.276 OA
ATOM      4  N   UNL     1      -7.080 -10.018   9.517  0.00  0.00    -0.314 N 
ATOM     18  C   UNL     1      -6.310 -10.991  10.148  0.00  0.00    +0.216 C 
ATOM     30  H   UNL     1      -6.750  -9.613   8.645  0.00  0.00    +0.149 HD
BRANCH  18  17
ATOM     17  C   UNL     1      -5.015 -11.259   9.437  0.00  0.00    +0.075 C 
ATOM     20  C   UNL     1      -4.615 -10.073   8.558  0.00  0.00    +0.013 C 
ATOM     21  C   UNL     1      -3.930 -11.641  10.447  0.00  0.00    +0.013 C 
ATOM     23  C   UNL     1      -4.047  -8.895   9.349  0.00  0.00    +0.001 C 
ATOM     24  C   UNL     1      -3.387 -10.443  11.223  0.00  0.00    +0.001 C 
ATOM     25  C   UNL     1      -2.929  -9.328  10.290  0.00  0.00    +0.000 C 
ENDBRANCH  18  17
ENDBRANCH  14   4
ENDBRANCH   9  14
TORSDOF 5
ENDMDL
MODEL 9
REMARK VINA RESULT:      -6.1     24.845     28.415
REMARK  Name = 40779327
REMARK  6 active torsions:
REMARK  status: ('A' for Active; 'I' for Inactive)
REMARK    1  A    between atoms: N_4  and  C_14
REMARK    2  A    between atoms: N_5  and  C_22
REMARK    3  A    between atoms: C_8  and  C_15
REMARK    4  A    between atoms: C_9  and  C_14
REMARK    5  A    between atoms: C_17  and  C_18
REMARK    6  A    between atoms: C_19  and  C_26
REMARK                            x       y       z     vdW  Elec       q    Type
REMARK                         _______ _______ _______ _____ _____    ______ ____
ROOT
ATOM      3  N   UNL     1      18.913  -2.611  30.236  0.00  0.00    -0.297 NA
ATOM      7  C   UNL     1      16.764  -1.452  31.142  0.00  0.00    +0.002 C 
ATOM      8  C   UNL     1      17.076  -2.735  31.962  0.00  0.00    +0.055 C 
ATOM      9  C   UNL     1      17.982  -2.317  29.114  0.00  0.00    +0.074 C 
ATOM     10  C   UNL     1      16.622  -1.821  29.651  0.00  0.00    +0.024 C 
ATOM     11  C   UNL     1      17.998  -0.533  31.266  0.00  0.00    +0.019 C 
ATOM     12  C   UNL     1      18.241  -3.472  31.241  0.00  0.00    +0.094 C 
ATOM     13  C   UNL     1      19.260  -1.325  30.887  0.00  0.00    +0.085 C 
ENDROOT
BRANCH   8  15
ATOM      5  N   UNL     1      15.531  -3.931  33.581  0.00  0.00    -0.270 N 
ATOM      6  N   UNL     1      14.495  -4.783  33.667  0.00  0.00    -0.168 NA
ATOM     15  C   UNL     1      15.924  -3.668  32.301  0.00  0.00    +0.044 A 
ATOM     16  C   UNL     1      15.085  -4.400  31.494  0.00  0.00    +0.056 A 
ATOM     19  C   UNL     1      14.227  -5.065  32.390  0.00  0.00    +0.128 A 
ATOM     22  C   UNL     1      16.108  -3.396  34.793  0.00  0.00    +0.172 C 
BRANCH  19  26
ATOM      2  O   UNL     1      12.299  -6.581  32.897  0.00  0.00    -0.461 OA
ATOM     26  C   UNL     1      13.137  -5.982  32.011  0.00  0.00    +0.155 A 
ATOM     27  C   UNL     1      12.824  -6.350  30.724  0.00  0.00    +0.051 A 
ATOM     28  C   UNL     1      11.722  -7.234  30.825  0.00  0.00    +0.042 A 
ATOM     29  C   UNL     1      11.441  -7.342  32.168  0.00  0.00    +0.196 A 
ENDBRANCH  19  26
ENDBRANCH   8  15
BRANCH   9  14
ATOM     14  C   UNL     1      17.821  -3.505  28.163  0.00  0.00    +0.123 C 
BRANCH  14   4
ATOM      1  O   UNL     1      16.916  -4.581  25.623  0.00  0.00    -0.276 OA
ATOM      4  N   UNL     1      18.313  -3.186  26.859  0.00  0.00    -0.314 N 
ATOM     18  C   UNL     1      17.820  -3.752  25.687  0.00  0.00    +0.216 C 
ATOM     30  H   UNL     1      19.023  -2.462  26.800  0.00  0.00    +0.149 HD
BRANCH  18  17
ATOM     17  C   UNL     1      18.497  -3.222  24.456  0.00  0.00    +0.075 C 
ATOM     20  C   UNL     1      17.749  -3.649  23.192  0.00  0.00    +0.013 C 
ATOM     21  C   UNL     1      18.667  -1.705  24.560  0.00  0.00    +0.013 C 
ATOM     23  C   UNL     1      16.468  -2.851  22.945  0.00  0.00    +0.001 C 
ATOM     24  C   UNL     1      17.370  -0.939  24.314  0.00  0.00    +0.001 C 
ATOM     25  C   UNL     1      16.715  -1.348  23.000  0.00  0.00    +0.000 C 
ENDBRANCH  18  17
ENDBRANCH  14   4
ENDBRANCH   9  14
TORSDOF 5
ENDMDL
MODEL 10
REMARK VINA RESULT:      -6.1      2.901      6.347
REMARK  Name = 40779327
REMARK  6 active torsions:
REMARK  status: ('A' for Active; 'I' for Inactive)
REMARK    1  A    between atoms: N_4  and  C_14
REMARK    2  A    between atoms: N_5  and  C_22
REMARK    3  A    between atoms: C_8  and  C_15
REMARK    4  A    between atoms: C_9  and  C_14
REMARK    5  A    between atoms: C_17  and  C_18
REMARK    6  A    between atoms: C_19  and  C_26
REMARK                            x       y       z     vdW  Elec       q    Type
REMARK                         _______ _______ _______ _____ _____    ______ ____
ROOT
ATOM      3  N   UNL     1     -11.757 -12.291  19.303  0.00  0.00    -0.297 NA
ATOM      7  C   UNL     1     -11.050  -9.804  18.988  0.00  0.00    +0.002 C 
ATOM      8  C   UNL     1     -11.287 -10.480  17.609  0.00  0.00    +0.055 C 
ATOM      9  C   UNL     1     -10.538 -12.004  20.104  0.00  0.00    +0.074 C 
ATOM     10  C   UNL     1      -9.985 -10.601  19.771  0.00  0.00    +0.024 C 
ATOM     11  C   UNL     1     -12.373  -9.921  19.775  0.00  0.00    +0.019 C 
ATOM     12  C   UNL     1     -11.505 -11.998  17.869  0.00  0.00    +0.094 C 
ATOM     13  C   UNL     1     -12.834 -11.388  19.776  0.00  0.00    +0.085 C 
ENDROOT
BRANCH   8  15
ATOM      5  N   UNL     1     -10.323  -9.125  15.692  0.00  0.00    -0.270 N 
ATOM      6  N   UNL     1      -9.342  -9.085  14.775  0.00  0.00    -0.168 NA
ATOM     15  C   UNL     1     -10.278 -10.223  16.500  0.00  0.00    +0.044 A 
ATOM     16  C   UNL     1      -9.191 -10.953  16.081  0.00  0.00    +0.056 A 
ATOM     19  C   UNL     1      -8.654 -10.204  15.017  0.00  0.00    +0.128 A 
ATOM     22  C   UNL     1     -11.289  -8.052  15.739  0.00  0.00    +0.172 C 
BRANCH  19  26
ATOM      2  O   UNL     1      -6.550  -9.677  13.764  0.00  0.00    -0.461 OA
ATOM     26  C   UNL     1      -7.465 -10.569  14.226  0.00  0.00    +0.155 A 
ATOM     27  C   UNL     1      -7.124 -11.848  13.854  0.00  0.00    +0.051 A 
ATOM     28  C   UNL     1      -5.923 -11.735  13.114  0.00  0.00    +0.042 A 
ATOM     29  C   UNL     1      -5.615 -10.394  13.087  0.00  0.00    +0.196 A 
ENDBRANCH  19  26
ENDBRANCH   8  15
BRANCH   9  14
ATOM     14  C   UNL     1      -9.470 -13.089  19.948  0.00  0.00    +0.123 C 
BRANCH  14   4
ATOM      1  O   UNL     1      -7.327 -13.437  18.020  0.00  0.00    -0.276 OA
ATOM      4  N   UNL     1      -8.157 -12.524  19.996  0.00  0.00    -0.314 N 
ATOM     18  C   UNL     1      -7.185 -12.744  19.024  0.00  0.00    +0.216 C 
ATOM     30  H   UNL     1      -7.959 -11.884  20.760  0.00  0.00    +0.149 HD
BRANCH  18  17
ATOM     17  C   UNL     1      -5.904 -12.012  19.306  0.00  0.00    +0.075 C 
ATOM     20  C   UNL     1      -4.806 -12.431  18.327  0.00  0.00    +0.013 C 
ATOM     21  C   UNL     1      -6.151 -10.502  19.310  0.00  0.00    +0.013 C 
ATOM     23  C   UNL     1      -4.964 -11.814  16.937  0.00  0.00    +0.001 C 
ATOM     24  C   UNL     1      -6.308  -9.918  17.908  0.00  0.00    +0.001 C 
ATOM     25  C   UNL     1      -5.143 -10.302  17.004  0.00  0.00    +0.000 C 
ENDBRANCH  18  17
ENDBRANCH  14   4
ENDBRANCH   9  14
TORSDOF 5
ENDMDL
