REMARK  Name = 38027859
REMARK  15 active torsions:
REMARK  status: ('A' for Active; 'I' for Inactive)
REMARK    1  A    between atoms: O_3  and  C_22
REMARK    2  A    between atoms: O_3  and  C_26
REMARK    3  A    between atoms: O_4  and  C_29
REMARK    4  A    between atoms: O_4  and  C_30
REMARK    5  A    between atoms: N_5  and  C_14
REMARK    6  A    between atoms: N_6  and  C_21
REMARK    7  A    between atoms: C_7  and  C_11
REMARK    8  A    between atoms: C_8  and  C_14
REMARK    9  A    between atoms: C_10  and  C_15
REMARK   10  A    between atoms: C_11  and  C_16
REMARK   11  A    between atoms: C_11  and  C_17
REMARK   12  A    between atoms: C_12  and  C_18
REMARK   13  A    between atoms: C_15  and  C_19
REMARK   14  A    between atoms: C_20  and  C_22
REMARK   15  A    between atoms: C_21  and  C_23
REMARK                            x       y       z     vdW  Elec       q    Type
REMARK                         _______ _______ _______ _____ _____    ______ ____
ROOT
ATOM      7  C   UNL     1       1.490   0.575  -1.377  0.00  0.00    +0.000 C 
ATOM      8  C   UNL     1       3.003   0.379  -1.650  0.00  0.00    +0.032 C 
ATOM      9  C   UNL     1       1.202   2.028  -0.971  0.00  0.00    +0.012 C 
ATOM     10  C   UNL     1       1.984   2.447   0.288  0.00  0.00    +0.023 C 
ATOM     12  C   UNL     1       3.442   2.044   0.206  0.00  0.00    -0.073 C 
ATOM     13  C   UNL     1       3.881   1.128  -0.675  0.00  0.00    -0.022 C 
ATOM     18  C   UNL     1       4.393   2.752   1.131  0.00  0.00    +0.039 C 
ENDROOT
BRANCH   7  11
ATOM     11  C   UNL     1       0.639   0.197  -2.593  0.00  0.00    -0.013 C 
ATOM     16  C   UNL     1      -0.772  -0.183  -2.158  0.00  0.00    +0.007 C 
ATOM     17  C   UNL     1       0.605   1.346  -3.596  0.00  0.00    +0.007 C 
ENDBRANCH   7  11
BRANCH   8  14
ATOM     14  C   UNL     1       3.379  -1.107  -1.639  0.00  0.00    +0.112 C 
BRANCH  14   5
ATOM      2  O   UNL     1       1.640  -3.294  -0.892  0.00  0.00    -0.273 OA
ATOM      5  N   UNL     1       3.206  -1.665  -0.334  0.00  0.00    -0.313 N 
ATOM     20  C   UNL     1       2.342  -2.724  -0.060  0.00  0.00    +0.239 C 
ATOM     31  H   UNL     1       3.783  -1.305   0.421  0.00  0.00    +0.149 HD
BRANCH  20  22
ATOM     22  C   UNL     1       2.357  -3.113   1.403  0.00  0.00    +0.255 C 
BRANCH  22   3
ATOM      3  O   UNL     1       1.483  -4.195   1.640  0.00  0.00    -0.374 OA
ATOM     26  C   UNL     1       1.477  -4.582   3.011  0.00  0.00    +0.194 C 
ENDBRANCH  22   3
ENDBRANCH  20  22
ENDBRANCH  14   5
ENDBRANCH   8  14
BRANCH  10  15
ATOM     15  C   UNL     1       1.330   1.887   1.556  0.00  0.00    +0.103 C 
BRANCH  15  19
ATOM      1  O   UNL     1      -0.604   3.294   1.195  0.00  0.00    -0.276 OA
ATOM      6  N   UNL     1      -0.851   1.278   2.325  0.00  0.00    -0.311 N 
ATOM     19  C   UNL     1      -0.133   2.257   1.654  0.00  0.00    +0.214 C 
ATOM     32  H   UNL     1      -0.371   0.451   2.667  0.00  0.00    +0.149 HD
BRANCH   6  21
ATOM     21  C   UNL     1      -2.272   1.369   2.566  0.00  0.00    +0.139 C 
BRANCH  21  23
ATOM     23  C   UNL     1      -3.072   0.757   1.452  0.00  0.00    -0.030 A 
ATOM     24  C   UNL     1      -3.986   1.534   0.741  0.00  0.00    +0.009 A 
ATOM     25  C   UNL     1      -2.901  -0.589   1.129  0.00  0.00    +0.009 A 
ATOM     27  C   UNL     1      -4.728   0.966  -0.294  0.00  0.00    +0.046 A 
ATOM     28  C   UNL     1      -3.643  -1.158   0.094  0.00  0.00    +0.046 A 
ATOM     29  C   UNL     1      -4.557  -0.380  -0.618  0.00  0.00    +0.120 A 
BRANCH  29   4
ATOM      4  O   UNL     1      -5.281  -0.934  -1.628  0.00  0.00    -0.495 OA
ATOM     30  C   UNL     1      -5.056  -2.316  -1.906  0.00  0.00    +0.277 C 
ENDBRANCH  29   4
ENDBRANCH  21  23
ENDBRANCH   6  21
ENDBRANCH  15  19
ENDBRANCH  10  15
TORSDOF 10
