REMARK  Name = 45784044
REMARK  11 active torsions:
REMARK  status: ('A' for Active; 'I' for Inactive)
REMARK    1  A    between atoms: N_3  and  C_14
REMARK    2  A    between atoms: N_7  and  C_32
REMARK    3  A    between atoms: C_9  and  C_13
REMARK    4  A    between atoms: C_10  and  C_14
REMARK    5  A    between atoms: C_12  and  C_17
REMARK    6  A    between atoms: C_13  and  C_18
REMARK    7  A    between atoms: C_13  and  C_19
REMARK    8  A    between atoms: C_16  and  C_22
REMARK    9  A    between atoms: C_17  and  C_25
REMARK   10  A    between atoms: C_26  and  C_28
REMARK   11  A    between atoms: C_27  and  C_29
REMARK                            x       y       z     vdW  Elec       q    Type
REMARK                         _______ _______ _______ _____ _____    ______ ____
ROOT
ATOM      9  C   UNL     1      -0.821  -1.603  -0.792  0.00  0.00    +0.000 C 
ATOM     10  C   UNL     1      -1.757  -2.212   0.277  0.00  0.00    +0.029 C 
ATOM     11  C   UNL     1       0.564  -1.319  -0.196  0.00  0.00    +0.012 C 
ATOM     12  C   UNL     1       1.233  -2.566   0.420  0.00  0.00    +0.024 C 
ATOM     15  C   UNL     1      -1.078  -3.274   1.104  0.00  0.00    -0.023 C 
ATOM     16  C   UNL     1       0.254  -3.456   1.171  0.00  0.00    -0.073 C 
ATOM     22  C   UNL     1       0.823  -4.604   1.960  0.00  0.00    +0.039 C 
ENDROOT
BRANCH   9  13
ATOM     13  C   UNL     1      -0.719  -2.508  -2.027  0.00  0.00    -0.013 C 
ATOM     18  C   UNL     1       0.504  -2.137  -2.860  0.00  0.00    +0.007 C 
ATOM     19  C   UNL     1      -1.991  -2.414  -2.864  0.00  0.00    +0.007 C 
ENDBRANCH   9  13
BRANCH  10  14
ATOM     14  C   UNL     1      -2.328  -1.137   1.209  0.00  0.00    +0.092 C 
BRANCH  14   3
ATOM      2  O   UNL     1      -6.186   3.728   0.611  0.00  0.00    -0.276 OA
ATOM      3  N   UNL     1      -3.016  -0.101   0.441  0.00  0.00    -0.299 NA
ATOM      4  N   UNL     1      -5.093   1.801  -0.086  0.00  0.00    -0.299 N 
ATOM     20  C   UNL     1      -3.100   1.146   1.215  0.00  0.00    +0.103 C 
ATOM     21  C   UNL     1      -4.359  -0.555   0.050  0.00  0.00    +0.103 C 
ATOM     23  C   UNL     1      -3.788   2.242   0.403  0.00  0.00    +0.123 C 
ATOM     24  C   UNL     1      -5.077   0.510  -0.781  0.00  0.00    +0.123 C 
ATOM     26  C   UNL     1      -6.197   2.646   0.020  0.00  0.00    +0.213 C 
ATOM     28  C   UNL     1      -7.471   2.176  -0.636  0.00  0.00    +0.109 C 
ENDBRANCH  14   3
ENDBRANCH  10  14
BRANCH  12  17
ATOM     17  C   UNL     1       2.412  -2.111   1.288  0.00  0.00    +0.105 C 
BRANCH  17  25
ATOM      1  O   UNL     1       3.301   0.099   0.758  0.00  0.00    -0.419 OA
ATOM      5  N   UNL     1       4.256  -1.570  -0.385  0.00  0.00    -0.112 NA
ATOM      6  N   UNL     1       4.850  -0.386  -0.781  0.00  0.00    -0.106 NA
ATOM     25  C   UNL     1       3.359  -1.239   0.514  0.00  0.00    +0.218 A 
ATOM     27  C   UNL     1       4.261   0.561  -0.088  0.00  0.00    +0.266 A 
BRANCH  27  29
ATOM      7  N   UNL     1       4.000   2.943   0.495  0.00  0.00    -0.329 N 
ATOM      8  N   UNL     1       5.515   3.914  -0.807  0.00  0.00    -0.243 NA
ATOM     29  C   UNL     1       4.592   1.933  -0.209  0.00  0.00    +0.125 A 
ATOM     30  C   UNL     1       5.522   2.556  -1.006  0.00  0.00    +0.143 A 
ATOM     31  C   UNL     1       4.587   4.114   0.103  0.00  0.00    +0.199 A 
ATOM     32  C   UNL     1       2.949   2.825   1.479  0.00  0.00    +0.150 C 
ENDBRANCH  27  29
ENDBRANCH  17  25
ENDBRANCH  12  17
TORSDOF 6
