REMARK  Name = 28961776
REMARK  10 active torsions:
REMARK  status: ('A' for Active; 'I' for Inactive)
REMARK    1  A    between atoms: O_2  and  C_11
REMARK    2  A    between atoms: O_3  and  C_17
REMARK    3  A    between atoms: O_3  and  C_20
REMARK    4  A    between atoms: O_4  and  C_18
REMARK    5  A    between atoms: N_6  and  C_8
REMARK    6  A    between atoms: N_7  and  C_16
REMARK    7  A    between atoms: C_9  and  C_17
REMARK    8  A    between atoms: C_10  and  C_16
REMARK    9  A    between atoms: C_13  and  C_18
REMARK   10  A    between atoms: C_19  and  C_21
REMARK                            x       y       z     vdW  Elec       q    Type
REMARK                         _______ _______ _______ _____ _____    ______ ____
ROOT
ATOM      1  O   UNL     1      -2.084  -0.552   0.780  0.00  0.00    -0.365 OA
ATOM      8  C   UNL     1       0.205  -0.893   0.225  0.00  0.00    +0.118 C 
ATOM     10  C   UNL     1      -0.907   0.158   0.334  0.00  0.00    +0.155 C 
ATOM     11  C   UNL     1      -0.564  -2.183  -0.015  0.00  0.00    +0.165 C 
ATOM     13  C   UNL     1      -1.779  -1.956   0.878  0.00  0.00    +0.174 C 
ENDROOT
BRANCH   8   6
ATOM      6  N   UNL     1       1.260  -0.614  -0.733  0.00  0.00    -0.289 NA
ATOM      9  C   UNL     1       2.242   0.395  -0.319  0.00  0.00    +0.083 C 
ATOM     12  C   UNL     1       2.008  -1.808  -1.124  0.00  0.00    +0.085 C 
ATOM     14  C   UNL     1       3.305   0.224  -1.402  0.00  0.00    +0.022 C 
ATOM     15  C   UNL     1       3.296  -1.265  -1.732  0.00  0.00    +0.017 C 
BRANCH   9  17
ATOM     17  C   UNL     1       2.837   0.220   1.082  0.00  0.00    +0.178 C 
BRANCH  17   3
ATOM      3  O   UNL     1       3.853   1.190   1.266  0.00  0.00    -0.381 OA
ATOM     20  C   UNL     1       4.452   1.087   2.553  0.00  0.00    +0.194 C 
ENDBRANCH  17   3
ENDBRANCH   9  17
ENDBRANCH   8   6
BRANCH  11   2
ATOM      2  O   UNL     1      -0.964  -2.306  -1.373  0.00  0.00    -0.388 OA
ATOM     22  H   UNL     1      -1.353  -3.190  -1.487  0.00  0.00    +0.210 HD
ENDBRANCH  11   2
BRANCH  10  16
ATOM     16  C   UNL     1      -1.281   0.893  -0.948  0.00  0.00    +0.137 C 
BRANCH  16   7
ATOM      5  O   UNL     1      -1.003   3.680  -0.185  0.00  0.00    -0.276 OA
ATOM      7  N   UNL     1      -2.330   1.839  -0.712  0.00  0.00    -0.313 N 
ATOM     19  C   UNL     1      -2.105   3.163  -0.348  0.00  0.00    +0.210 C 
ATOM     21  C   UNL     1      -3.381   3.946  -0.188  0.00  0.00    +0.109 C 
ATOM     23  H   UNL     1      -3.288   1.517  -0.816  0.00  0.00    +0.149 HD
ENDBRANCH  16   7
ENDBRANCH  10  16
BRANCH  13  18
ATOM     18  C   UNL     1      -3.013  -2.764   0.520  0.00  0.00    +0.190 C 
BRANCH  18   4
ATOM      4  O   UNL     1      -4.047  -2.454   1.440  0.00  0.00    -0.392 OA
ATOM     24  H   UNL     1      -4.822  -2.986   1.190  0.00  0.00    +0.210 HD
ENDBRANCH  18   4
ENDBRANCH  13  18
TORSDOF 8
