MODEL 1
REMARK VINA RESULT:      -7.4      0.000      0.000
REMARK  Name = 75411642
REMARK  3 active torsions:
REMARK  status: ('A' for Active; 'I' for Inactive)
REMARK    1  A    between atoms: O_6  and  C_10
REMARK    2  A    between atoms: O_6  and  C_18
REMARK    3  A    between atoms: C_25  and  C_27
REMARK                            x       y       z     vdW  Elec       q    Type
REMARK                         _______ _______ _______ _____ _____    ______ ____
ROOT
ATOM      1  S   UNL     1      10.941   9.947  21.571  0.00  0.00    -0.052 S 
ATOM      5  O   UNL     1      12.486   7.112  17.804  0.00  0.00    -0.375 OA
ATOM      7  N   UNL     1      12.503   9.558  19.416  0.00  0.00    -0.304 N 
ATOM      8  N   UNL     1      13.432  10.586  21.374  0.00  0.00    -0.225 NA
ATOM     10  C   UNL     1      14.486   8.427  18.419  0.00  0.00    +0.218 C 
ATOM     11  C   UNL     1      13.716   9.737  18.611  0.00  0.00    +0.154 C 
ATOM     12  C   UNL     1      11.303   8.975  18.801  0.00  0.00    +0.135 C 
ATOM     13  C   UNL     1      13.832   7.431  17.462  0.00  0.00    +0.206 C 
ATOM     14  C   UNL     1      11.574   8.172  17.536  0.00  0.00    +0.179 C 
ATOM     15  C   UNL     1      12.426  10.046  20.728  0.00  0.00    +0.162 A 
ATOM     16  C   UNL     1      11.681  10.691  22.940  0.00  0.00    +0.041 A 
ATOM     17  C   UNL     1      13.021  10.962  22.644  0.00  0.00    +0.080 A 
ATOM     19  C   UNL     1      11.117  11.014  24.185  0.00  0.00    +0.017 A 
ATOM     20  C   UNL     1      13.822  11.577  23.631  0.00  0.00    +0.029 A 
ATOM     22  C   UNL     1      11.932  11.621  25.144  0.00  0.00    +0.001 A 
ATOM     23  C   UNL     1      13.267  11.899  24.873  0.00  0.00    +0.002 A 
ENDROOT
BRANCH  10   6
ATOM      6  O   UNL     1      14.706   7.806  19.683  0.00  0.00    -0.469 OA
BRANCH   6  18
ATOM      9  N   UNL     1      16.444   6.354  19.186  0.00  0.00    -0.221 NA
ATOM     18  C   UNL     1      15.979   7.373  19.942  0.00  0.00    +0.215 A 
ATOM     21  C   UNL     1      16.707   7.991  20.946  0.00  0.00    +0.068 A 
ATOM     24  C   UNL     1      17.997   7.533  21.189  0.00  0.00    +0.019 A 
ATOM     25  C   UNL     1      18.511   6.485  20.433  0.00  0.00    +0.073 A 
ATOM     26  C   UNL     1      17.702   5.935  19.452  0.00  0.00    +0.127 A 
BRANCH  25  27
ATOM      2  F   UNL     1      20.178   5.831  21.997  0.00  0.00    -0.166 F 
ATOM      3  F   UNL     1      20.120   4.743  20.115  0.00  0.00    -0.166 F 
ATOM      4  F   UNL     1      20.870   6.777  20.165  0.00  0.00    -0.166 F 
ATOM     27  C   UNL     1      19.887   5.971  20.669  0.00  0.00    +0.419 C 
ENDBRANCH  25  27
ENDBRANCH   6  18
ENDBRANCH  10   6
TORSDOF 3
ENDMDL
MODEL 2
REMARK VINA RESULT:      -7.2     14.816     18.210
REMARK  Name = 75411642
REMARK  3 active torsions:
REMARK  status: ('A' for Active; 'I' for Inactive)
REMARK    1  A    between atoms: O_6  and  C_10
REMARK    2  A    between atoms: O_6  and  C_18
REMARK    3  A    between atoms: C_25  and  C_27
REMARK                            x       y       z     vdW  Elec       q    Type
REMARK                         _______ _______ _______ _____ _____    ______ ____
ROOT
ATOM      1  S   UNL     1      11.641   7.393   0.807  0.00  0.00    -0.052 S 
ATOM      5  O   UNL     1       9.216  10.804   3.472  0.00  0.00    -0.375 OA
ATOM      7  N   UNL     1       9.471   8.185   2.185  0.00  0.00    -0.304 N 
ATOM      8  N   UNL     1      10.300   5.951   2.473  0.00  0.00    -0.225 NA
ATOM     10  C   UNL     1       8.427   8.652   4.399  0.00  0.00    +0.218 C 
ATOM     11  C   UNL     1       8.291   7.974   3.032  0.00  0.00    +0.154 C 
ATOM     12  C   UNL     1       9.652   9.470   1.499  0.00  0.00    +0.135 C 
ATOM     13  C   UNL     1       8.310  10.176   4.375  0.00  0.00    +0.206 C 
ATOM     14  C   UNL     1       8.862  10.621   2.105  0.00  0.00    +0.179 C 
ATOM     15  C   UNL     1      10.367   7.139   1.919  0.00  0.00    +0.162 A 
ATOM     16  C   UNL     1      12.177   5.774   1.068  0.00  0.00    +0.041 A 
ATOM     17  C   UNL     1      11.331   5.157   1.994  0.00  0.00    +0.080 A 
ATOM     19  C   UNL     1      13.266   5.099   0.493  0.00  0.00    +0.017 A 
ATOM     20  C   UNL     1      11.587   3.817   2.358  0.00  0.00    +0.029 A 
ATOM     22  C   UNL     1      13.497   3.774   0.870  0.00  0.00    +0.001 A 
ATOM     23  C   UNL     1      12.670   3.139   1.790  0.00  0.00    +0.002 A 
ENDROOT
BRANCH  10   6
ATOM      6  O   UNL     1       9.660   8.274   5.005  0.00  0.00    -0.469 OA
BRANCH   6  18
ATOM      9  N   UNL     1      10.042   6.200   5.969  0.00  0.00    -0.221 NA
ATOM     18  C   UNL     1       9.581   7.463   6.105  0.00  0.00    +0.215 A 
ATOM     21  C   UNL     1       9.042   7.971   7.276  0.00  0.00    +0.068 A 
ATOM     24  C   UNL     1       8.972   7.128   8.379  0.00  0.00    +0.019 A 
ATOM     25  C   UNL     1       9.436   5.821   8.278  0.00  0.00    +0.073 A 
ATOM     26  C   UNL     1       9.958   5.409   7.062  0.00  0.00    +0.127 A 
BRANCH  25  27
ATOM      2  F   UNL     1       9.433   3.579   9.069  0.00  0.00    -0.166 F 
ATOM      3  F   UNL     1      10.395   5.062  10.335  0.00  0.00    -0.166 F 
ATOM      4  F   UNL     1       8.233   5.011  10.180  0.00  0.00    -0.166 F 
ATOM     27  C   UNL     1       9.375   4.893   9.440  0.00  0.00    +0.419 C 
ENDBRANCH  25  27
ENDBRANCH   6  18
ENDBRANCH  10   6
TORSDOF 3
ENDMDL
MODEL 3
REMARK VINA RESULT:      -7.0      2.220      2.666
REMARK  Name = 75411642
REMARK  3 active torsions:
REMARK  status: ('A' for Active; 'I' for Inactive)
REMARK    1  A    between atoms: O_6  and  C_10
REMARK    2  A    between atoms: O_6  and  C_18
REMARK    3  A    between atoms: C_25  and  C_27
REMARK                            x       y       z     vdW  Elec       q    Type
REMARK                         _______ _______ _______ _____ _____    ______ ____
ROOT
ATOM      1  S   UNL     1      10.827  10.717  23.463  0.00  0.00    -0.052 S 
ATOM      5  O   UNL     1      12.288   6.421  21.455  0.00  0.00    -0.375 OA
ATOM      7  N   UNL     1      11.163   9.123  21.322  0.00  0.00    -0.304 N 
ATOM      8  N   UNL     1      11.717  11.451  21.156  0.00  0.00    -0.225 NA
ATOM     10  C   UNL     1      12.726   8.087  19.682  0.00  0.00    +0.218 C 
ATOM     11  C   UNL     1      11.415   8.848  19.903  0.00  0.00    +0.154 C 
ATOM     12  C   UNL     1      10.656   8.052  22.190  0.00  0.00    +0.135 C 
ATOM     13  C   UNL     1      12.697   6.619  20.104  0.00  0.00    +0.206 C 
ATOM     14  C   UNL     1      10.897   6.646  21.658  0.00  0.00    +0.179 C 
ATOM     15  C   UNL     1      11.278  10.421  21.839  0.00  0.00    +0.162 A 
ATOM     16  C   UNL     1      11.248  12.378  23.265  0.00  0.00    +0.041 A 
ATOM     17  C   UNL     1      11.704  12.581  21.959  0.00  0.00    +0.080 A 
ATOM     19  C   UNL     1      11.177  13.426  24.198  0.00  0.00    +0.017 A 
ATOM     20  C   UNL     1      12.105  13.880  21.577  0.00  0.00    +0.029 A 
ATOM     22  C   UNL     1      11.579  14.701  23.793  0.00  0.00    +0.001 A 
ATOM     23  C   UNL     1      12.038  14.927  22.500  0.00  0.00    +0.002 A 
ENDROOT
BRANCH  10   6
ATOM      6  O   UNL     1      13.792   8.758  20.349  0.00  0.00    -0.469 OA
BRANCH   6  18
ATOM      9  N   UNL     1      15.827   8.404  21.404  0.00  0.00    -0.221 NA
ATOM     18  C   UNL     1      15.002   8.118  20.372  0.00  0.00    +0.215 A 
ATOM     21  C   UNL     1      15.311   7.231  19.354  0.00  0.00    +0.068 A 
ATOM     24  C   UNL     1      16.546   6.594  19.399  0.00  0.00    +0.019 A 
ATOM     25  C   UNL     1      17.422   6.861  20.446  0.00  0.00    +0.073 A 
ATOM     26  C   UNL     1      17.019   7.766  21.415  0.00  0.00    +0.127 A 
BRANCH  25  27
ATOM      2  F   UNL     1      18.794   5.020  19.829  0.00  0.00    -0.166 F 
ATOM      3  F   UNL     1      19.775   6.951  20.021  0.00  0.00    -0.166 F 
ATOM      4  F   UNL     1      19.136   5.881  21.796  0.00  0.00    -0.166 F 
ATOM     27  C   UNL     1      18.751   6.197  20.523  0.00  0.00    +0.419 C 
ENDBRANCH  25  27
ENDBRANCH   6  18
ENDBRANCH  10   6
TORSDOF 3
ENDMDL
MODEL 4
REMARK VINA RESULT:      -6.8     26.491     29.000
REMARK  Name = 75411642
REMARK  3 active torsions:
REMARK  status: ('A' for Active; 'I' for Inactive)
REMARK    1  A    between atoms: O_6  and  C_10
REMARK    2  A    between atoms: O_6  and  C_18
REMARK    3  A    between atoms: C_25  and  C_27
REMARK                            x       y       z     vdW  Elec       q    Type
REMARK                         _______ _______ _______ _____ _____    ______ ____
ROOT
ATOM      1  S   UNL     1     -12.772   8.404  13.669  0.00  0.00    -0.052 S 
ATOM      5  O   UNL     1      -9.791  10.194  17.208  0.00  0.00    -0.375 OA
ATOM      7  N   UNL     1     -12.401   9.803  15.936  0.00  0.00    -0.304 N 
ATOM      8  N   UNL     1     -14.274   8.314  15.765  0.00  0.00    -0.225 NA
ATOM     10  C   UNL     1     -11.926   9.779  18.382  0.00  0.00    +0.218 C 
ATOM     11  C   UNL     1     -12.797  10.328  17.248  0.00  0.00    +0.154 C 
ATOM     12  C   UNL     1     -11.220  10.355  15.260  0.00  0.00    +0.135 C 
ATOM     13  C   UNL     1     -10.506  10.341  18.432  0.00  0.00    +0.206 C 
ATOM     14  C   UNL     1     -10.246  11.073  16.185  0.00  0.00    +0.179 C 
ATOM     15  C   UNL     1     -13.198   8.870  15.259  0.00  0.00    +0.162 A 
ATOM     16  C   UNL     1     -14.140   7.354  13.622  0.00  0.00    +0.041 A 
ATOM     17  C   UNL     1     -14.826   7.443  14.838  0.00  0.00    +0.080 A 
ATOM     19  C   UNL     1     -14.576   6.515  12.584  0.00  0.00    +0.017 A 
ATOM     20  C   UNL     1     -15.987   6.660  15.018  0.00  0.00    +0.029 A 
ATOM     22  C   UNL     1     -15.728   5.752  12.789  0.00  0.00    +0.001 A 
ATOM     23  C   UNL     1     -16.426   5.822  13.990  0.00  0.00    +0.002 A 
ENDROOT
BRANCH  10   6
ATOM      6  O   UNL     1     -11.878   8.356  18.308  0.00  0.00    -0.469 OA
BRANCH   6  18
ATOM      9  N   UNL     1     -13.774   7.695  19.467  0.00  0.00    -0.221 NA
ATOM     18  C   UNL     1     -12.428   7.668  19.356  0.00  0.00    +0.215 A 
ATOM     21  C   UNL     1     -11.590   6.994  20.230  0.00  0.00    +0.068 A 
ATOM     24  C   UNL     1     -12.173   6.302  21.286  0.00  0.00    +0.019 A 
ATOM     25  C   UNL     1     -13.555   6.306  21.434  0.00  0.00    +0.073 A 
ATOM     26  C   UNL     1     -14.305   7.012  20.506  0.00  0.00    +0.127 A 
BRANCH  25  27
ATOM      2  F   UNL     1     -14.814   6.415  23.448  0.00  0.00    -0.166 F 
ATOM      3  F   UNL     1     -15.187   4.711  22.150  0.00  0.00    -0.166 F 
ATOM      4  F   UNL     1     -13.348   4.817  23.294  0.00  0.00    -0.166 F 
ATOM     27  C   UNL     1     -14.210   5.577  22.554  0.00  0.00    +0.419 C 
ENDBRANCH  25  27
ENDBRANCH   6  18
ENDBRANCH  10   6
TORSDOF 3
ENDMDL
MODEL 5
REMARK VINA RESULT:      -6.6     28.076     30.506
REMARK  Name = 75411642
REMARK  3 active torsions:
REMARK  status: ('A' for Active; 'I' for Inactive)
REMARK    1  A    between atoms: O_6  and  C_10
REMARK    2  A    between atoms: O_6  and  C_18
REMARK    3  A    between atoms: C_25  and  C_27
REMARK                            x       y       z     vdW  Elec       q    Type
REMARK                         _______ _______ _______ _____ _____    ______ ____
ROOT
ATOM      1  S   UNL     1     -10.557  -8.243   6.759  0.00  0.00    -0.052 S 
ATOM      5  O   UNL     1      -7.280 -11.920   6.158  0.00  0.00    -0.375 OA
ATOM      7  N   UNL     1      -8.140  -9.126   5.974  0.00  0.00    -0.304 N 
ATOM      8  N   UNL     1      -8.305  -7.061   7.184  0.00  0.00    -0.225 NA
ATOM     10  C   UNL     1      -5.875  -9.938   6.618  0.00  0.00    +0.218 C 
ATOM     11  C   UNL     1      -6.698  -8.998   5.733  0.00  0.00    +0.154 C 
ATOM     12  C   UNL     1      -8.874 -10.262   5.401  0.00  0.00    +0.135 C 
ATOM     13  C   UNL     1      -5.949 -11.415   6.230  0.00  0.00    +0.206 C 
ATOM     14  C   UNL     1      -7.997 -11.447   5.022  0.00  0.00    +0.179 C 
ATOM     15  C   UNL     1      -8.855  -8.118   6.637  0.00  0.00    +0.162 A 
ATOM     16  C   UNL     1     -10.594  -6.752   7.624  0.00  0.00    +0.041 A 
ATOM     17  C   UNL     1      -9.289  -6.267   7.754  0.00  0.00    +0.080 A 
ATOM     19  C   UNL     1     -11.698  -6.060   8.149  0.00  0.00    +0.017 A 
ATOM     20  C   UNL     1      -9.084  -5.047   8.435  0.00  0.00    +0.029 A 
ATOM     22  C   UNL     1     -11.468  -4.855   8.818  0.00  0.00    +0.001 A 
ATOM     23  C   UNL     1     -10.178  -4.354   8.960  0.00  0.00    +0.002 A 
ENDROOT
BRANCH  10   6
ATOM      6  O   UNL     1      -6.260  -9.780   7.981  0.00  0.00    -0.469 OA
BRANCH   6  18
ATOM      9  N   UNL     1      -5.270 -11.079   9.627  0.00  0.00    -0.221 NA
ATOM     18  C   UNL     1      -5.273  -9.928   8.919  0.00  0.00    +0.215 A 
ATOM     21  C   UNL     1      -4.350  -8.909   9.088  0.00  0.00    +0.068 A 
ATOM     24  C   UNL     1      -3.358  -9.083  10.047  0.00  0.00    +0.019 A 
ATOM     25  C   UNL     1      -3.322 -10.254  10.797  0.00  0.00    +0.073 A 
ATOM     26  C   UNL     1      -4.292 -11.212  10.551  0.00  0.00    +0.127 A 
BRANCH  25  27
ATOM      2  F   UNL     1      -1.903 -11.781  11.939  0.00  0.00    -0.166 F 
ATOM      3  F   UNL     1      -1.116  -9.784  11.595  0.00  0.00    -0.166 F 
ATOM      4  F   UNL     1      -2.656 -10.097  13.089  0.00  0.00    -0.166 F 
ATOM     27  C   UNL     1      -2.274 -10.470  11.831  0.00  0.00    +0.419 C 
ENDBRANCH  25  27
ENDBRANCH   6  18
ENDBRANCH  10   6
TORSDOF 3
ENDMDL
MODEL 6
REMARK VINA RESULT:      -6.6      4.158      4.893
REMARK  Name = 75411642
REMARK  3 active torsions:
REMARK  status: ('A' for Active; 'I' for Inactive)
REMARK    1  A    between atoms: O_6  and  C_10
REMARK    2  A    between atoms: O_6  and  C_18
REMARK    3  A    between atoms: C_25  and  C_27
REMARK                            x       y       z     vdW  Elec       q    Type
REMARK                         _______ _______ _______ _____ _____    ______ ____
ROOT
ATOM      1  S   UNL     1      10.977  10.468  23.591  0.00  0.00    -0.052 S 
ATOM      5  O   UNL     1      12.483   6.433  21.126  0.00  0.00    -0.375 OA
ATOM      7  N   UNL     1      11.119   9.018  21.330  0.00  0.00    -0.304 N 
ATOM      8  N   UNL     1      11.436  11.394  21.228  0.00  0.00    -0.225 NA
ATOM     10  C   UNL     1      12.498   8.217  19.415  0.00  0.00    +0.218 C 
ATOM     11  C   UNL     1      11.175   8.837  19.874  0.00  0.00    +0.154 C 
ATOM     12  C   UNL     1      10.847   7.863  22.195  0.00  0.00    +0.135 C 
ATOM     13  C   UNL     1      12.662   6.734  19.745  0.00  0.00    +0.206 C 
ATOM     14  C   UNL     1      11.125   6.514  21.546  0.00  0.00    +0.179 C 
ATOM     15  C   UNL     1      11.199  10.295  21.904  0.00  0.00    +0.162 A 
ATOM     16  C   UNL     1      11.216  12.169  23.437  0.00  0.00    +0.041 A 
ATOM     17  C   UNL     1      11.449  12.477  22.093  0.00  0.00    +0.080 A 
ATOM     19  C   UNL     1      11.197  13.159  24.433  0.00  0.00    +0.017 A 
ATOM     20  C   UNL     1      11.671  13.825  21.737  0.00  0.00    +0.029 A 
ATOM     22  C   UNL     1      11.421  14.485  24.053  0.00  0.00    +0.001 A 
ATOM     23  C   UNL     1      11.656  14.816  22.723  0.00  0.00    +0.002 A 
ENDROOT
BRANCH  10   6
ATOM      6  O   UNL     1      13.591   8.953  19.958  0.00  0.00    -0.469 OA
BRANCH   6  18
ATOM      9  N   UNL     1      14.040   9.677  17.801  0.00  0.00    -0.221 NA
ATOM     18  C   UNL     1      14.188   9.867  19.131  0.00  0.00    +0.215 A 
ATOM     21  C   UNL     1      14.898  10.917  19.691  0.00  0.00    +0.068 A 
ATOM     24  C   UNL     1      15.494  11.831  18.830  0.00  0.00    +0.019 A 
ATOM     25  C   UNL     1      15.365  11.669  17.455  0.00  0.00    +0.073 A 
ATOM     26  C   UNL     1      14.634  10.585  16.995  0.00  0.00    +0.127 A 
BRANCH  25  27
ATOM      2  F   UNL     1      17.200  12.195  16.038  0.00  0.00    -0.166 F 
ATOM      3  F   UNL     1      15.238  12.876  15.394  0.00  0.00    -0.166 F 
ATOM      4  F   UNL     1      16.235  13.860  17.049  0.00  0.00    -0.166 F 
ATOM     27  C   UNL     1      15.992  12.629  16.507  0.00  0.00    +0.419 C 
ENDBRANCH  25  27
ENDBRANCH   6  18
ENDBRANCH  10   6
TORSDOF 3
ENDMDL
MODEL 7
REMARK VINA RESULT:      -6.5     27.835     30.715
REMARK  Name = 75411642
REMARK  3 active torsions:
REMARK  status: ('A' for Active; 'I' for Inactive)
REMARK    1  A    between atoms: O_6  and  C_10
REMARK    2  A    between atoms: O_6  and  C_18
REMARK    3  A    between atoms: C_25  and  C_27
REMARK                            x       y       z     vdW  Elec       q    Type
REMARK                         _______ _______ _______ _____ _____    ______ ____
ROOT
ATOM      1  S   UNL     1      -6.637 -10.580   4.813  0.00  0.00    -0.052 S 
ATOM      5  O   UNL     1      -8.938  -7.153   7.567  0.00  0.00    -0.375 OA
ATOM      7  N   UNL     1      -7.904  -9.849   7.071  0.00  0.00    -0.304 N 
ATOM      8  N   UNL     1      -5.951 -11.236   7.211  0.00  0.00    -0.225 NA
ATOM     10  C   UNL     1      -7.828  -8.608   9.230  0.00  0.00    +0.218 C 
ATOM     11  C   UNL     1      -8.187  -9.911   8.509  0.00  0.00    +0.154 C 
ATOM     12  C   UNL     1      -8.826  -9.135   6.180  0.00  0.00    +0.135 C 
ATOM     13  C   UNL     1      -8.775  -7.440   8.954  0.00  0.00    +0.206 C 
ATOM     14  C   UNL     1      -9.723  -8.125   6.884  0.00  0.00    +0.179 C 
ATOM     15  C   UNL     1      -6.834 -10.563   6.512  0.00  0.00    +0.162 A 
ATOM     16  C   UNL     1      -5.241 -11.576   4.996  0.00  0.00    +0.041 A 
ATOM     17  C   UNL     1      -5.031 -11.823   6.356  0.00  0.00    +0.080 A 
ATOM     19  C   UNL     1      -4.394 -12.103   4.006  0.00  0.00    +0.017 A 
ATOM     20  C   UNL     1      -3.933 -12.625   6.736  0.00  0.00    +0.029 A 
ATOM     22  C   UNL     1      -3.315 -12.893   4.411  0.00  0.00    +0.001 A 
ATOM     23  C   UNL     1      -3.085 -13.151   5.758  0.00  0.00    +0.002 A 
ENDROOT
BRANCH  10   6
ATOM      6  O   UNL     1      -6.492  -8.230   8.910  0.00  0.00    -0.469 OA
BRANCH   6  18
ATOM      9  N   UNL     1      -5.840  -9.137  10.941  0.00  0.00    -0.221 NA
ATOM     18  C   UNL     1      -5.500  -8.763   9.688  0.00  0.00    +0.215 A 
ATOM     21  C   UNL     1      -4.225  -8.886   9.159  0.00  0.00    +0.068 A 
ATOM     24  C   UNL     1      -3.235  -9.430   9.970  0.00  0.00    +0.019 A 
ATOM     25  C   UNL     1      -3.545  -9.827  11.266  0.00  0.00    +0.073 A 
ATOM     26  C   UNL     1      -4.851  -9.661  11.700  0.00  0.00    +0.127 A 
BRANCH  25  27
ATOM      2  F   UNL     1      -2.221 -11.712  11.852  0.00  0.00    -0.166 F 
ATOM      3  F   UNL     1      -1.310  -9.756  12.116  0.00  0.00    -0.166 F 
ATOM      4  F   UNL     1      -2.860 -10.420  13.480  0.00  0.00    -0.166 F 
ATOM     27  C   UNL     1      -2.509 -10.412  12.159  0.00  0.00    +0.419 C 
ENDBRANCH  25  27
ENDBRANCH   6  18
ENDBRANCH  10   6
TORSDOF 3
ENDMDL
MODEL 8
REMARK VINA RESULT:      -6.5     30.413     32.456
REMARK  Name = 75411642
REMARK  3 active torsions:
REMARK  status: ('A' for Active; 'I' for Inactive)
REMARK    1  A    between atoms: O_6  and  C_10
REMARK    2  A    between atoms: O_6  and  C_18
REMARK    3  A    between atoms: C_25  and  C_27
REMARK                            x       y       z     vdW  Elec       q    Type
REMARK                         _______ _______ _______ _____ _____    ______ ____
ROOT
ATOM      1  S   UNL     1     -10.225  -6.356  40.374  0.00  0.00    -0.052 S 
ATOM      5  O   UNL     1      -6.737  -9.852  40.851  0.00  0.00    -0.375 OA
ATOM      7  N   UNL     1      -7.977  -7.559  39.516  0.00  0.00    -0.304 N 
ATOM      8  N   UNL     1      -8.113  -5.164  39.496  0.00  0.00    -0.225 NA
ATOM     10  C   UNL     1      -5.536  -7.949  39.828  0.00  0.00    +0.218 C 
ATOM     11  C   UNL     1      -6.667  -7.601  38.856  0.00  0.00    +0.154 C 
ATOM     12  C   UNL     1      -8.672  -8.814  39.831  0.00  0.00    +0.135 C 
ATOM     13  C   UNL     1      -5.507  -9.407  40.285  0.00  0.00    +0.206 C 
ATOM     14  C   UNL     1      -7.765 -10.036  39.884  0.00  0.00    +0.179 C 
ATOM     15  C   UNL     1      -8.636  -6.342  39.741  0.00  0.00    +0.162 A 
ATOM     16  C   UNL     1     -10.246  -4.631  40.330  0.00  0.00    +0.041 A 
ATOM     17  C   UNL     1      -9.024  -4.173  39.828  0.00  0.00    +0.080 A 
ATOM     19  C   UNL     1     -11.270  -3.750  40.710  0.00  0.00    +0.017 A 
ATOM     20  C   UNL     1      -8.823  -2.781  39.704  0.00  0.00    +0.029 A 
ATOM     22  C   UNL     1     -11.045  -2.377  40.578  0.00  0.00    +0.001 A 
ATOM     23  C   UNL     1      -9.838  -1.896  40.082  0.00  0.00    +0.002 A 
ENDROOT
BRANCH  10   6
ATOM      6  O   UNL     1      -5.595  -7.090  40.965  0.00  0.00    -0.469 OA
BRANCH   6  18
ATOM      9  N   UNL     1      -4.489  -5.572  42.324  0.00  0.00    -0.221 NA
ATOM     18  C   UNL     1      -4.529  -6.253  41.157  0.00  0.00    +0.215 A 
ATOM     21  C   UNL     1      -3.568  -6.150  40.165  0.00  0.00    +0.068 A 
ATOM     24  C   UNL     1      -2.496  -5.292  40.384  0.00  0.00    +0.019 A 
ATOM     25  C   UNL     1      -2.419  -4.574  41.573  0.00  0.00    +0.073 A 
ATOM     26  C   UNL     1      -3.433  -4.747  42.502  0.00  0.00    +0.127 A 
BRANCH  25  27
ATOM      2  F   UNL     1      -0.184  -3.931  41.080  0.00  0.00    -0.166 F 
ATOM      3  F   UNL     1      -1.574  -2.336  41.583  0.00  0.00    -0.166 F 
ATOM      4  F   UNL     1      -0.849  -3.668  43.133  0.00  0.00    -0.166 F 
ATOM     27  C   UNL     1      -1.286  -3.648  41.838  0.00  0.00    +0.419 C 
ENDBRANCH  25  27
ENDBRANCH   6  18
ENDBRANCH  10   6
TORSDOF 3
ENDMDL
MODEL 9
REMARK VINA RESULT:      -6.4     15.238     17.130
REMARK  Name = 75411642
REMARK  3 active torsions:
REMARK  status: ('A' for Active; 'I' for Inactive)
REMARK    1  A    between atoms: O_6  and  C_10
REMARK    2  A    between atoms: O_6  and  C_18
REMARK    3  A    between atoms: C_25  and  C_27
REMARK                            x       y       z     vdW  Elec       q    Type
REMARK                         _______ _______ _______ _____ _____    ______ ____
ROOT
ATOM      1  S   UNL     1      12.100   9.538   7.317  0.00  0.00    -0.052 S 
ATOM      5  O   UNL     1      16.051  10.594   4.508  0.00  0.00    -0.375 OA
ATOM      7  N   UNL     1      14.460   8.839   6.231  0.00  0.00    -0.304 N 
ATOM      8  N   UNL     1      12.658   7.255   6.256  0.00  0.00    -0.225 NA
ATOM     10  C   UNL     1      15.734   8.162   4.200  0.00  0.00    +0.218 C 
ATOM     11  C   UNL     1      15.433   7.891   5.678  0.00  0.00    +0.154 C 
ATOM     12  C   UNL     1      14.893  10.194   6.596  0.00  0.00    +0.135 C 
ATOM     13  C   UNL     1      16.585   9.403   3.935  0.00  0.00    +0.206 C 
ATOM     14  C   UNL     1      16.183  10.642   5.924  0.00  0.00    +0.179 C 
ATOM     15  C   UNL     1      13.151   8.439   6.534  0.00  0.00    +0.162 A 
ATOM     16  C   UNL     1      10.854   8.345   7.297  0.00  0.00    +0.041 A 
ATOM     17  C   UNL     1      11.343   7.185   6.687  0.00  0.00    +0.080 A 
ATOM     19  C   UNL     1       9.541   8.429   7.786  0.00  0.00    +0.017 A 
ATOM     20  C   UNL     1      10.483   6.072   6.564  0.00  0.00    +0.029 A 
ATOM     22  C   UNL     1       8.711   7.313   7.651  0.00  0.00    +0.001 A 
ATOM     23  C   UNL     1       9.173   6.149   7.047  0.00  0.00    +0.002 A 
ENDROOT
BRANCH  10   6
ATOM      6  O   UNL     1      14.515   8.248   3.467  0.00  0.00    -0.469 OA
BRANCH   6  18
ATOM      9  N   UNL     1      15.041   6.321   2.289  0.00  0.00    -0.221 NA
ATOM     18  C   UNL     1      14.090   7.105   2.845  0.00  0.00    +0.215 A 
ATOM     21  C   UNL     1      12.735   6.819   2.819  0.00  0.00    +0.068 A 
ATOM     24  C   UNL     1      12.329   5.652   2.181  0.00  0.00    +0.019 A 
ATOM     25  C   UNL     1      13.277   4.820   1.597  0.00  0.00    +0.073 A 
ATOM     26  C   UNL     1      14.608   5.196   1.677  0.00  0.00    +0.127 A 
BRANCH  25  27
ATOM      2  F   UNL     1      12.868   2.482   1.741  0.00  0.00    -0.166 F 
ATOM      3  F   UNL     1      11.622   3.611   0.362  0.00  0.00    -0.166 F 
ATOM      4  F   UNL     1      13.696   3.218  -0.130  0.00  0.00    -0.166 F 
ATOM     27  C   UNL     1      12.875   3.565   0.906  0.00  0.00    +0.419 C 
ENDBRANCH  25  27
ENDBRANCH   6  18
ENDBRANCH  10   6
TORSDOF 3
ENDMDL
MODEL 10
REMARK VINA RESULT:      -6.4     15.557     18.497
REMARK  Name = 75411642
REMARK  3 active torsions:
REMARK  status: ('A' for Active; 'I' for Inactive)
REMARK    1  A    between atoms: O_6  and  C_10
REMARK    2  A    between atoms: O_6  and  C_18
REMARK    3  A    between atoms: C_25  and  C_27
REMARK                            x       y       z     vdW  Elec       q    Type
REMARK                         _______ _______ _______ _____ _____    ______ ____
ROOT
ATOM      1  S   UNL     1       7.896  10.195   5.078  0.00  0.00    -0.052 S 
ATOM      5  O   UNL     1      10.340   6.664   7.564  0.00  0.00    -0.375 OA
ATOM      7  N   UNL     1       8.309   7.605   5.673  0.00  0.00    -0.304 N 
ATOM      8  N   UNL     1       7.927   8.243   3.392  0.00  0.00    -0.225 NA
ATOM     10  C   UNL     1       9.741   5.581   5.424  0.00  0.00    +0.218 C 
ATOM     11  C   UNL     1       8.326   6.166   5.384  0.00  0.00    +0.154 C 
ATOM     12  C   UNL     1       8.432   8.067   7.062  0.00  0.00    +0.135 C 
ATOM     13  C   UNL     1      10.341   5.447   6.823  0.00  0.00    +0.206 C 
ATOM     14  C   UNL     1       9.044   7.047   8.011  0.00  0.00    +0.179 C 
ATOM     15  C   UNL     1       8.055   8.543   4.663  0.00  0.00    +0.162 A 
ATOM     16  C   UNL     1       7.629  10.575   3.417  0.00  0.00    +0.041 A 
ATOM     17  C   UNL     1       7.681   9.398   2.665  0.00  0.00    +0.080 A 
ATOM     19  C   UNL     1       7.389  11.825   2.823  0.00  0.00    +0.017 A 
ATOM     20  C   UNL     1       7.487   9.477   1.268  0.00  0.00    +0.029 A 
ATOM     22  C   UNL     1       7.200  11.875   1.439  0.00  0.00    +0.001 A 
ATOM     23  C   UNL     1       7.249  10.718   0.670  0.00  0.00    +0.002 A 
ENDROOT
BRANCH  10   6
ATOM      6  O   UNL     1      10.608   6.356   4.601  0.00  0.00    -0.469 OA
BRANCH   6  18
ATOM      9  N   UNL     1      12.351   6.327   3.071  0.00  0.00    -0.221 NA
ATOM     18  C   UNL     1      11.308   5.680   3.638  0.00  0.00    +0.215 A 
ATOM     21  C   UNL     1      10.915   4.394   3.301  0.00  0.00    +0.068 A 
ATOM     24  C   UNL     1      11.642   3.729   2.320  0.00  0.00    +0.019 A 
ATOM     25  C   UNL     1      12.722   4.361   1.713  0.00  0.00    +0.073 A 
ATOM     26  C   UNL     1      13.033   5.649   2.121  0.00  0.00    +0.127 A 
BRANCH  25  27
ATOM      2  F   UNL     1      12.874   2.594   0.130  0.00  0.00    -0.166 F 
ATOM      3  F   UNL     1      13.822   4.475  -0.408  0.00  0.00    -0.166 F 
ATOM      4  F   UNL     1      14.723   3.203   1.100  0.00  0.00    -0.166 F 
ATOM     27  C   UNL     1      13.518   3.677   0.660  0.00  0.00    +0.419 C 
ENDBRANCH  25  27
ENDBRANCH   6  18
ENDBRANCH  10   6
TORSDOF 3
ENDMDL
