MODEL 1
REMARK VINA RESULT:      -7.0      0.000      0.000
REMARK  Name = 51137748
REMARK  4 active torsions:
REMARK  status: ('A' for Active; 'I' for Inactive)
REMARK    1  A    between atoms: N_6  and  C_24
REMARK    2  A    between atoms: C_9  and  C_13
REMARK    3  A    between atoms: C_14  and  C_15
REMARK    4  A    between atoms: C_16  and  C_17
REMARK                            x       y       z     vdW  Elec       q    Type
REMARK                         _______ _______ _______ _____ _____    ______ ____
ROOT
ATOM      2  O   UNL     1      13.418  10.951  19.461  0.00  0.00    -0.270 OA
ATOM      3  N   UNL     1      13.664   8.707  20.003  0.00  0.00    -0.297 N 
ATOM      9  C   UNL     1      14.537   6.596  20.672  0.00  0.00    +0.095 C 
ATOM     10  C   UNL     1      14.526   7.554  21.872  0.00  0.00    +0.033 C 
ATOM     11  C   UNL     1      13.548   7.276  19.713  0.00  0.00    +0.121 C 
ATOM     12  C   UNL     1      14.396   8.932  21.240  0.00  0.00    +0.109 C 
ATOM     14  C   UNL     1      13.234   9.761  19.213  0.00  0.00    +0.247 C 
ENDROOT
BRANCH  14  15
ATOM      8  N   UNL     1      11.152   8.802  15.614  0.00  0.00    -0.263 NA
ATOM     15  C   UNL     1      12.515   9.431  17.972  0.00  0.00    +0.040 A 
ATOM     18  C   UNL     1      11.269   8.817  18.029  0.00  0.00    +0.033 A 
ATOM     19  C   UNL     1      13.081   9.732  16.737  0.00  0.00    +0.033 A 
ATOM     22  C   UNL     1      10.634   8.526  16.832  0.00  0.00    +0.111 A 
ATOM     23  C   UNL     1      12.365   9.399  15.598  0.00  0.00    +0.111 A 
ENDBRANCH  14  15
BRANCH   9  13
ATOM      1  O   UNL     1      16.967   6.585  21.019  0.00  0.00    -0.419 OA
ATOM      4  N   UNL     1      16.342   5.992  18.955  0.00  0.00    -0.112 NA
ATOM      5  N   UNL     1      17.722   5.945  19.012  0.00  0.00    -0.106 NA
ATOM     13  C   UNL     1      15.944   6.371  20.147  0.00  0.00    +0.222 A 
ATOM     16  C   UNL     1      18.043   6.299  20.236  0.00  0.00    +0.266 A 
BRANCH  16  17
ATOM      6  N   UNL     1      19.957   7.492  21.234  0.00  0.00    -0.329 N 
ATOM      7  N   UNL     1      21.528   5.923  21.260  0.00  0.00    -0.243 NA
ATOM     17  C   UNL     1      19.380   6.376  20.698  0.00  0.00    +0.125 A 
ATOM     20  C   UNL     1      20.368   5.421  20.725  0.00  0.00    +0.143 A 
ATOM     21  C   UNL     1      21.246   7.172  21.557  0.00  0.00    +0.199 A 
ATOM     24  C   UNL     1      19.342   8.784  21.436  0.00  0.00    +0.150 C 
ENDBRANCH  16  17
ENDBRANCH   9  13
TORSDOF 3
ENDMDL
MODEL 2
REMARK VINA RESULT:      -6.6      4.024      8.076
REMARK  Name = 51137748
REMARK  4 active torsions:
REMARK  status: ('A' for Active; 'I' for Inactive)
REMARK    1  A    between atoms: N_6  and  C_24
REMARK    2  A    between atoms: C_9  and  C_13
REMARK    3  A    between atoms: C_14  and  C_15
REMARK    4  A    between atoms: C_16  and  C_17
REMARK                            x       y       z     vdW  Elec       q    Type
REMARK                         _______ _______ _______ _____ _____    ______ ____
ROOT
ATOM      2  O   UNL     1      14.340   8.056  17.725  0.00  0.00    -0.270 OA
ATOM      3  N   UNL     1      13.385   7.972  19.840  0.00  0.00    -0.297 N 
ATOM      9  C   UNL     1      12.185   8.480  21.831  0.00  0.00    +0.095 C 
ATOM     10  C   UNL     1      11.199   8.287  20.669  0.00  0.00    +0.033 C 
ATOM     11  C   UNL     1      13.450   7.796  21.292  0.00  0.00    +0.121 C 
ATOM     12  C   UNL     1      12.067   8.426  19.427  0.00  0.00    +0.109 C 
ATOM     14  C   UNL     1      14.420   7.827  18.930  0.00  0.00    +0.247 C 
ENDROOT
BRANCH  14  15
ATOM      8  N   UNL     1      18.194   6.521  20.433  0.00  0.00    -0.263 NA
ATOM     15  C   UNL     1      15.723   7.377  19.447  0.00  0.00    +0.040 A 
ATOM     18  C   UNL     1      16.296   6.204  18.970  0.00  0.00    +0.033 A 
ATOM     19  C   UNL     1      16.384   8.124  20.416  0.00  0.00    +0.033 A 
ATOM     22  C   UNL     1      17.522   5.823  19.491  0.00  0.00    +0.111 A 
ATOM     23  C   UNL     1      17.606   7.657  20.873  0.00  0.00    +0.111 A 
ENDBRANCH  14  15
BRANCH   9  13
ATOM      1  O   UNL     1      11.167  10.668  22.279  0.00  0.00    -0.419 OA
ATOM      4  N   UNL     1      13.392  10.638  22.508  0.00  0.00    -0.112 NA
ATOM      5  N   UNL     1      12.952  11.918  22.786  0.00  0.00    -0.106 NA
ATOM     13  C   UNL     1      12.317   9.943  22.218  0.00  0.00    +0.222 A 
ATOM     16  C   UNL     1      11.647  11.890  22.640  0.00  0.00    +0.266 A 
BRANCH  16  17
ATOM      6  N   UNL     1      10.349  13.443  24.050  0.00  0.00    -0.329 N 
ATOM      7  N   UNL     1       9.545  14.874  22.555  0.00  0.00    -0.243 NA
ATOM     17  C   UNL     1      10.818  13.021  22.837  0.00  0.00    +0.125 A 
ATOM     20  C   UNL     1      10.309  13.920  21.930  0.00  0.00    +0.143 A 
ATOM     21  C   UNL     1       9.590  14.558  23.829  0.00  0.00    +0.199 A 
ATOM     24  C   UNL     1      10.596  12.842  25.340  0.00  0.00    +0.150 C 
ENDBRANCH  16  17
ENDBRANCH   9  13
TORSDOF 3
ENDMDL
MODEL 3
REMARK VINA RESULT:      -6.5      2.383      3.136
REMARK  Name = 51137748
REMARK  4 active torsions:
REMARK  status: ('A' for Active; 'I' for Inactive)
REMARK    1  A    between atoms: N_6  and  C_24
REMARK    2  A    between atoms: C_9  and  C_13
REMARK    3  A    between atoms: C_14  and  C_15
REMARK    4  A    between atoms: C_16  and  C_17
REMARK                            x       y       z     vdW  Elec       q    Type
REMARK                         _______ _______ _______ _____ _____    ______ ____
ROOT
ATOM      2  O   UNL     1      13.102   9.706  18.819  0.00  0.00    -0.270 OA
ATOM      3  N   UNL     1      14.728   9.332  20.434  0.00  0.00    -0.297 N 
ATOM      9  C   UNL     1      16.764   8.822  21.556  0.00  0.00    +0.095 C 
ATOM     10  C   UNL     1      16.921  10.134  20.773  0.00  0.00    +0.033 C 
ATOM     11  C   UNL     1      15.237   8.686  21.645  0.00  0.00    +0.121 C 
ATOM     12  C   UNL     1      15.771  10.105  19.776  0.00  0.00    +0.109 C 
ATOM     14  C   UNL     1      13.464   9.203  19.880  0.00  0.00    +0.247 C 
ENDROOT
BRANCH  14  15
ATOM      8  N   UNL     1      10.620   6.836  22.005  0.00  0.00    -0.263 NA
ATOM     15  C   UNL     1      12.482   8.387  20.612  0.00  0.00    +0.040 A 
ATOM     18  C   UNL     1      11.570   8.994  21.467  0.00  0.00    +0.033 A 
ATOM     19  C   UNL     1      12.465   7.005  20.451  0.00  0.00    +0.033 A 
ATOM     22  C   UNL     1      10.667   8.181  22.135  0.00  0.00    +0.111 A 
ATOM     23  C   UNL     1      11.523   6.282  21.164  0.00  0.00    +0.111 A 
ENDBRANCH  14  15
BRANCH   9  13
ATOM      1  O   UNL     1      18.790   7.462  21.296  0.00  0.00    -0.419 OA
ATOM      4  N   UNL     1      17.105   6.844  19.961  0.00  0.00    -0.112 NA
ATOM      5  N   UNL     1      18.175   6.004  19.715  0.00  0.00    -0.106 NA
ATOM     13  C   UNL     1      17.510   7.678  20.891  0.00  0.00    +0.222 A 
ATOM     16  C   UNL     1      19.136   6.401  20.516  0.00  0.00    +0.266 A 
BRANCH  16  17
ATOM      6  N   UNL     1      21.603   6.452  20.488  0.00  0.00    -0.329 N 
ATOM      7  N   UNL     1      22.119   4.302  20.695  0.00  0.00    -0.243 NA
ATOM     17  C   UNL     1      20.411   5.786  20.565  0.00  0.00    +0.125 A 
ATOM     20  C   UNL     1      20.756   4.461  20.693  0.00  0.00    +0.143 A 
ATOM     21  C   UNL     1      22.599   5.519  20.571  0.00  0.00    +0.199 A 
ATOM     24  C   UNL     1      21.800   7.876  20.347  0.00  0.00    +0.150 C 
ENDBRANCH  16  17
ENDBRANCH   9  13
TORSDOF 3
ENDMDL
MODEL 4
REMARK VINA RESULT:      -6.4      3.151      7.042
REMARK  Name = 51137748
REMARK  4 active torsions:
REMARK  status: ('A' for Active; 'I' for Inactive)
REMARK    1  A    between atoms: N_6  and  C_24
REMARK    2  A    between atoms: C_9  and  C_13
REMARK    3  A    between atoms: C_14  and  C_15
REMARK    4  A    between atoms: C_16  and  C_17
REMARK                            x       y       z     vdW  Elec       q    Type
REMARK                         _______ _______ _______ _____ _____    ______ ____
ROOT
ATOM      2  O   UNL     1      14.805   7.348  18.000  0.00  0.00    -0.270 OA
ATOM      3  N   UNL     1      13.767   7.061  20.057  0.00  0.00    -0.297 N 
ATOM      9  C   UNL     1      12.308   7.239  21.929  0.00  0.00    +0.095 C 
ATOM     10  C   UNL     1      11.543   6.656  20.731  0.00  0.00    +0.033 C 
ATOM     11  C   UNL     1      13.769   6.998  21.519  0.00  0.00    +0.121 C 
ATOM     12  C   UNL     1      12.411   7.014  19.533  0.00  0.00    +0.109 C 
ATOM     14  C   UNL     1      14.860   7.227  19.222  0.00  0.00    +0.247 C 
ENDROOT
BRANCH  14  15
ATOM      8  N   UNL     1      18.718   7.375  21.039  0.00  0.00    -0.263 NA
ATOM     15  C   UNL     1      16.192   7.279  19.847  0.00  0.00    +0.040 A 
ATOM     18  C   UNL     1      17.064   6.203  19.722  0.00  0.00    +0.033 A 
ATOM     19  C   UNL     1      16.581   8.403  20.567  0.00  0.00    +0.033 A 
ATOM     22  C   UNL     1      18.305   6.300  20.331  0.00  0.00    +0.111 A 
ATOM     23  C   UNL     1      17.843   8.401  21.139  0.00  0.00    +0.111 A 
ENDBRANCH  14  15
BRANCH   9  13
ATOM      1  O   UNL     1      12.917   9.582  22.333  0.00  0.00    -0.419 OA
ATOM      4  N   UNL     1      10.713   9.203  22.340  0.00  0.00    -0.112 NA
ATOM      5  N   UNL     1      10.915  10.549  22.579  0.00  0.00    -0.106 NA
ATOM     13  C   UNL     1      11.908   8.678  22.203  0.00  0.00    +0.222 A 
ATOM     16  C   UNL     1      12.216  10.725  22.566  0.00  0.00    +0.266 A 
BRANCH  16  17
ATOM      6  N   UNL     1      12.936  12.968  21.832  0.00  0.00    -0.329 N 
ATOM      7  N   UNL     1      13.908  13.770  23.660  0.00  0.00    -0.243 NA
ATOM     17  C   UNL     1      12.832  11.983  22.775  0.00  0.00    +0.125 A 
ATOM     20  C   UNL     1      13.438  12.502  23.894  0.00  0.00    +0.143 A 
ATOM     21  C   UNL     1      13.589  14.020  22.410  0.00  0.00    +0.199 A 
ATOM     24  C   UNL     1      12.453  12.929  20.471  0.00  0.00    +0.150 C 
ENDBRANCH  16  17
ENDBRANCH   9  13
TORSDOF 3
ENDMDL
MODEL 5
REMARK VINA RESULT:      -6.4      1.555      2.076
REMARK  Name = 51137748
REMARK  4 active torsions:
REMARK  status: ('A' for Active; 'I' for Inactive)
REMARK    1  A    between atoms: N_6  and  C_24
REMARK    2  A    between atoms: C_9  and  C_13
REMARK    3  A    between atoms: C_14  and  C_15
REMARK    4  A    between atoms: C_16  and  C_17
REMARK                            x       y       z     vdW  Elec       q    Type
REMARK                         _______ _______ _______ _____ _____    ______ ____
ROOT
ATOM      2  O   UNL     1      12.460  10.238  19.954  0.00  0.00    -0.270 OA
ATOM      3  N   UNL     1      13.747   8.315  19.768  0.00  0.00    -0.297 N 
ATOM      9  C   UNL     1      15.345   6.587  20.124  0.00  0.00    +0.095 C 
ATOM     10  C   UNL     1      14.291   6.554  21.241  0.00  0.00    +0.033 C 
ATOM     11  C   UNL     1      14.631   7.404  19.037  0.00  0.00    +0.121 C 
ATOM     12  C   UNL     1      13.634   7.925  21.165  0.00  0.00    +0.109 C 
ATOM     14  C   UNL     1      13.136   9.461  19.284  0.00  0.00    +0.247 C 
ENDROOT
BRANCH  14  15
ATOM      8  N   UNL     1      13.679  10.384  15.154  0.00  0.00    -0.263 NA
ATOM     15  C   UNL     1      13.322   9.780  17.860  0.00  0.00    +0.040 A 
ATOM     18  C   UNL     1      12.426   9.297  16.913  0.00  0.00    +0.033 A 
ATOM     19  C   UNL     1      14.396  10.566  17.456  0.00  0.00    +0.033 A 
ATOM     22  C   UNL     1      12.647   9.625  15.585  0.00  0.00    +0.111 A 
ATOM     23  C   UNL     1      14.529  10.836  16.103  0.00  0.00    +0.111 A 
ENDBRANCH  14  15
BRANCH   9  13
ATOM      1  O   UNL     1      17.510   6.251  21.230  0.00  0.00    -0.419 OA
ATOM      4  N   UNL     1      17.152   8.353  20.555  0.00  0.00    -0.112 NA
ATOM      5  N   UNL     1      18.396   8.304  21.157  0.00  0.00    -0.106 NA
ATOM     13  C   UNL     1      16.672   7.133  20.621  0.00  0.00    +0.222 A 
ATOM     16  C   UNL     1      18.563   7.057  21.536  0.00  0.00    +0.266 A 
BRANCH  16  17
ATOM      6  N   UNL     1      20.605   5.683  21.689  0.00  0.00    -0.329 N 
ATOM      7  N   UNL     1      21.395   6.234  23.690  0.00  0.00    -0.243 NA
ATOM     17  C   UNL     1      19.726   6.596  22.199  0.00  0.00    +0.125 A 
ATOM     20  C   UNL     1      20.235   6.923  23.434  0.00  0.00    +0.143 A 
ATOM     21  C   UNL     1      21.590   5.498  22.619  0.00  0.00    +0.199 A 
ATOM     24  C   UNL     1      20.532   5.021  20.407  0.00  0.00    +0.150 C 
ENDBRANCH  16  17
ENDBRANCH   9  13
TORSDOF 3
ENDMDL
MODEL 6
REMARK VINA RESULT:      -6.2     26.972     29.558
REMARK  Name = 51137748
REMARK  4 active torsions:
REMARK  status: ('A' for Active; 'I' for Inactive)
REMARK    1  A    between atoms: N_6  and  C_24
REMARK    2  A    between atoms: C_9  and  C_13
REMARK    3  A    between atoms: C_14  and  C_15
REMARK    4  A    between atoms: C_16  and  C_17
REMARK                            x       y       z     vdW  Elec       q    Type
REMARK                         _______ _______ _______ _____ _____    ______ ____
ROOT
ATOM      2  O   UNL     1      -4.233 -13.946  15.341  0.00  0.00    -0.270 OA
ATOM      3  N   UNL     1      -4.472 -12.134  16.773  0.00  0.00    -0.297 N 
ATOM      9  C   UNL     1      -5.290 -10.574  18.373  0.00  0.00    +0.095 C 
ATOM     10  C   UNL     1      -4.977 -11.908  19.066  0.00  0.00    +0.033 C 
ATOM     11  C   UNL     1      -4.493 -10.699  17.066  0.00  0.00    +0.121 C 
ATOM     12  C   UNL     1      -4.914 -12.909  17.921  0.00  0.00    +0.109 C 
ATOM     14  C   UNL     1      -4.167 -12.739  15.564  0.00  0.00    +0.247 C 
ENDROOT
BRANCH  14  15
ATOM      8  N   UNL     1      -2.940 -10.219  12.347  0.00  0.00    -0.263 NA
ATOM     15  C   UNL     1      -3.744 -11.869  14.455  0.00  0.00    +0.040 A 
ATOM     18  C   UNL     1      -4.681 -11.394  13.545  0.00  0.00    +0.033 A 
ATOM     19  C   UNL     1      -2.405 -11.520  14.314  0.00  0.00    +0.033 A 
ATOM     22  C   UNL     1      -4.232 -10.579  12.518  0.00  0.00    +0.111 A 
ATOM     23  C   UNL     1      -2.058 -10.700  13.252  0.00  0.00    +0.111 A 
ENDBRANCH  14  15
BRANCH   9  13
ATOM      1  O   UNL     1      -7.186  -9.378  17.372  0.00  0.00    -0.419 OA
ATOM      4  N   UNL     1      -7.781 -10.961  18.836  0.00  0.00    -0.112 NA
ATOM      5  N   UNL     1      -8.934 -10.371  18.353  0.00  0.00    -0.106 NA
ATOM     13  C   UNL     1      -6.786 -10.350  18.236  0.00  0.00    +0.222 A 
ATOM     16  C   UNL     1      -8.538  -9.452  17.501  0.00  0.00    +0.266 A 
BRANCH  16  17
ATOM      6  N   UNL     1      -9.679  -8.708  15.445  0.00  0.00    -0.329 N 
ATOM      7  N   UNL     1     -10.944  -7.040  16.186  0.00  0.00    -0.243 NA
ATOM     17  C   UNL     1      -9.433  -8.619  16.786  0.00  0.00    +0.125 A 
ATOM     20  C   UNL     1     -10.225  -7.583  17.222  0.00  0.00    +0.143 A 
ATOM     21  C   UNL     1     -10.593  -7.740  15.131  0.00  0.00    +0.199 A 
ATOM     24  C   UNL     1      -9.097  -9.642  14.509  0.00  0.00    +0.150 C 
ENDBRANCH  16  17
ENDBRANCH   9  13
TORSDOF 3
ENDMDL
MODEL 7
REMARK VINA RESULT:      -6.2      2.851      6.468
REMARK  Name = 51137748
REMARK  4 active torsions:
REMARK  status: ('A' for Active; 'I' for Inactive)
REMARK    1  A    between atoms: N_6  and  C_24
REMARK    2  A    between atoms: C_9  and  C_13
REMARK    3  A    between atoms: C_14  and  C_15
REMARK    4  A    between atoms: C_16  and  C_17
REMARK                            x       y       z     vdW  Elec       q    Type
REMARK                         _______ _______ _______ _____ _____    ______ ____
ROOT
ATOM      2  O   UNL     1      14.967  12.588  22.203  0.00  0.00    -0.270 OA
ATOM      3  N   UNL     1      15.133  10.273  22.150  0.00  0.00    -0.297 N 
ATOM      9  C   UNL     1      15.503   8.019  21.478  0.00  0.00    +0.095 C 
ATOM     10  C   UNL     1      16.846   8.762  21.557  0.00  0.00    +0.033 C 
ATOM     11  C   UNL     1      14.590   8.923  22.320  0.00  0.00    +0.121 C 
ATOM     12  C   UNL     1      16.453  10.232  21.538  0.00  0.00    +0.109 C 
ATOM     14  C   UNL     1      14.501  11.474  22.430  0.00  0.00    +0.247 C 
ENDROOT
BRANCH  14  15
ATOM      8  N   UNL     1      10.614  11.298  24.182  0.00  0.00    -0.263 NA
ATOM     15  C   UNL     1      13.161  11.411  23.035  0.00  0.00    +0.040 A 
ATOM     18  C   UNL     1      12.057  11.091  22.252  0.00  0.00    +0.033 A 
ATOM     19  C   UNL     1      12.993  11.675  24.390  0.00  0.00    +0.033 A 
ATOM     22  C   UNL     1      10.816  11.047  22.868  0.00  0.00    +0.111 A 
ATOM     23  C   UNL     1      11.711  11.606  24.910  0.00  0.00    +0.111 A 
ENDBRANCH  14  15
BRANCH   9  13
ATOM      1  O   UNL     1      13.980   8.448  19.602  0.00  0.00    -0.419 OA
ATOM      4  N   UNL     1      15.620   7.003  19.128  0.00  0.00    -0.112 NA
ATOM      5  N   UNL     1      14.842   7.152  17.995  0.00  0.00    -0.106 NA
ATOM     13  C   UNL     1      15.080   7.778  20.040  0.00  0.00    +0.222 A 
ATOM     16  C   UNL     1      13.897   8.005  18.318  0.00  0.00    +0.266 A 
BRANCH  16  17
ATOM      6  N   UNL     1      13.098   9.200  16.313  0.00  0.00    -0.329 N 
ATOM      7  N   UNL     1      10.919   8.778  16.351  0.00  0.00    -0.243 NA
ATOM     17  C   UNL     1      12.887   8.423  17.417  0.00  0.00    +0.125 A 
ATOM     20  C   UNL     1      11.535   8.174  17.419  0.00  0.00    +0.143 A 
ATOM     21  C   UNL     1      11.888   9.386  15.705  0.00  0.00    +0.199 A 
ATOM     24  C   UNL     1      14.357   9.738  15.851  0.00  0.00    +0.150 C 
ENDBRANCH  16  17
ENDBRANCH   9  13
TORSDOF 3
ENDMDL
MODEL 8
REMARK VINA RESULT:      -6.0     26.828     28.735
REMARK  Name = 51137748
REMARK  4 active torsions:
REMARK  status: ('A' for Active; 'I' for Inactive)
REMARK    1  A    between atoms: N_6  and  C_24
REMARK    2  A    between atoms: C_9  and  C_13
REMARK    3  A    between atoms: C_14  and  C_15
REMARK    4  A    between atoms: C_16  and  C_17
REMARK                            x       y       z     vdW  Elec       q    Type
REMARK                         _______ _______ _______ _____ _____    ______ ____
ROOT
ATOM      2  O   UNL     1      -4.265 -12.879  10.981  0.00  0.00    -0.270 OA
ATOM      3  N   UNL     1      -3.136 -11.644  12.590  0.00  0.00    -0.297 N 
ATOM      9  C   UNL     1      -2.272 -10.808  14.643  0.00  0.00    +0.095 C 
ATOM     10  C   UNL     1      -1.680 -12.197  14.362  0.00  0.00    +0.033 C 
ATOM     11  C   UNL     1      -2.777 -10.390  13.254  0.00  0.00    +0.121 C 
ATOM     12  C   UNL     1      -2.619 -12.790  13.321  0.00  0.00    +0.109 C 
ATOM     14  C   UNL     1      -3.928 -11.801  11.463  0.00  0.00    +0.247 C 
ENDROOT
BRANCH  14  15
ATOM      8  N   UNL     1      -5.346  -8.266   9.540  0.00  0.00    -0.263 NA
ATOM     15  C   UNL     1      -4.417 -10.581  10.801  0.00  0.00    +0.040 A 
ATOM     18  C   UNL     1      -5.649 -10.041  11.154  0.00  0.00    +0.033 A 
ATOM     19  C   UNL     1      -3.649  -9.964   9.819  0.00  0.00    +0.033 A 
ATOM     22  C   UNL     1      -6.064  -8.892  10.499  0.00  0.00    +0.111 A 
ATOM     23  C   UNL     1      -4.154  -8.820   9.224  0.00  0.00    +0.111 A 
ENDBRANCH  14  15
BRANCH   9  13
ATOM      1  O   UNL     1      -4.590 -10.566  15.413  0.00  0.00    -0.419 OA
ATOM      4  N   UNL     1      -3.152 -11.131  17.030  0.00  0.00    -0.112 NA
ATOM      5  N   UNL     1      -4.409 -11.028  17.594  0.00  0.00    -0.106 NA
ATOM     13  C   UNL     1      -3.305 -10.853  15.756  0.00  0.00    +0.222 A 
ATOM     16  C   UNL     1      -5.217 -10.696  16.613  0.00  0.00    +0.266 A 
BRANCH  16  17
ATOM      6  N   UNL     1      -7.542 -11.489  16.844  0.00  0.00    -0.329 N 
ATOM      7  N   UNL     1      -8.666  -9.589  17.078  0.00  0.00    -0.243 NA
ATOM     17  C   UNL     1      -6.608 -10.493  16.788  0.00  0.00    +0.125 A 
ATOM     20  C   UNL     1      -7.325  -9.329  16.935  0.00  0.00    +0.143 A 
ATOM     21  C   UNL     1      -8.762 -10.898  17.019  0.00  0.00    +0.199 A 
ATOM     24  C   UNL     1      -7.309 -12.911  16.741  0.00  0.00    +0.150 C 
ENDBRANCH  16  17
ENDBRANCH   9  13
TORSDOF 3
ENDMDL
MODEL 9
REMARK VINA RESULT:      -5.9     27.089     29.006
REMARK  Name = 51137748
REMARK  4 active torsions:
REMARK  status: ('A' for Active; 'I' for Inactive)
REMARK    1  A    between atoms: N_6  and  C_24
REMARK    2  A    between atoms: C_9  and  C_13
REMARK    3  A    between atoms: C_14  and  C_15
REMARK    4  A    between atoms: C_16  and  C_17
REMARK                            x       y       z     vdW  Elec       q    Type
REMARK                         _______ _______ _______ _____ _____    ______ ____
ROOT
ATOM      2  O   UNL     1      -2.058 -10.277  16.250  0.00  0.00    -0.270 OA
ATOM      3  N   UNL     1      -2.984 -12.029  15.041  0.00  0.00    -0.297 N 
ATOM      9  C   UNL     1      -3.604 -13.538  13.308  0.00  0.00    +0.095 C 
ATOM     10  C   UNL     1      -2.102 -13.676  13.600  0.00  0.00    +0.033 C 
ATOM     11  C   UNL     1      -4.112 -12.840  14.579  0.00  0.00    +0.121 C 
ATOM     12  C   UNL     1      -1.756 -12.399  14.353  0.00  0.00    +0.109 C 
ATOM     14  C   UNL     1      -3.019 -10.979  15.945  0.00  0.00    +0.247 C 
ENDROOT
BRANCH  14  15
ATOM      8  N   UNL     1      -6.764 -10.083  17.784  0.00  0.00    -0.263 NA
ATOM     15  C   UNL     1      -4.311 -10.671  16.579  0.00  0.00    +0.040 A 
ATOM     18  C   UNL     1      -5.250  -9.896  15.908  0.00  0.00    +0.033 A 
ATOM     19  C   UNL     1      -4.597 -11.154  17.851  0.00  0.00    +0.033 A 
ATOM     22  C   UNL     1      -6.450  -9.632  16.549  0.00  0.00    +0.111 A 
ATOM     23  C   UNL     1      -5.826 -10.834  18.405  0.00  0.00    +0.111 A 
ENDBRANCH  14  15
BRANCH   9  13
ATOM      1  O   UNL     1      -4.502 -11.626  12.059  0.00  0.00    -0.419 OA
ATOM      4  N   UNL     1      -3.542 -13.182  10.771  0.00  0.00    -0.112 NA
ATOM      5  N   UNL     1      -4.002 -12.171   9.948  0.00  0.00    -0.106 NA
ATOM     13  C   UNL     1      -3.856 -12.821  11.993  0.00  0.00    +0.222 A 
ATOM     16  C   UNL     1      -4.555 -11.284  10.743  0.00  0.00    +0.266 A 
BRANCH  16  17
ATOM      6  N   UNL     1      -6.481  -9.929  10.009  0.00  0.00    -0.329 N 
ATOM      7  N   UNL     1      -5.536  -7.970   9.563  0.00  0.00    -0.243 NA
ATOM     17  C   UNL     1      -5.151 -10.086  10.277  0.00  0.00    +0.125 A 
ATOM     20  C   UNL     1      -4.588  -8.864   9.995  0.00  0.00    +0.143 A 
ATOM     21  C   UNL     1      -6.664  -8.643   9.583  0.00  0.00    +0.199 A 
ATOM     24  C   UNL     1      -7.523 -10.921  10.142  0.00  0.00    +0.150 C 
ENDBRANCH  16  17
ENDBRANCH   9  13
TORSDOF 3
ENDMDL
MODEL 10
REMARK VINA RESULT:      -5.8     26.598     28.863
REMARK  Name = 51137748
REMARK  4 active torsions:
REMARK  status: ('A' for Active; 'I' for Inactive)
REMARK    1  A    between atoms: N_6  and  C_24
REMARK    2  A    between atoms: C_9  and  C_13
REMARK    3  A    between atoms: C_14  and  C_15
REMARK    4  A    between atoms: C_16  and  C_17
REMARK                            x       y       z     vdW  Elec       q    Type
REMARK                         _______ _______ _______ _____ _____    ______ ____
ROOT
ATOM      2  O   UNL     1     -12.786   9.466  21.534  0.00  0.00    -0.270 OA
ATOM      3  N   UNL     1     -11.730   8.483  19.716  0.00  0.00    -0.297 N 
ATOM      9  C   UNL     1     -10.820   8.042  17.562  0.00  0.00    +0.095 C 
ATOM     10  C   UNL     1     -10.028   9.173  18.235  0.00  0.00    +0.033 C 
ATOM     11  C   UNL     1     -11.528   7.392  18.760  0.00  0.00    +0.121 C 
ATOM     12  C   UNL     1     -10.950   9.654  19.346  0.00  0.00    +0.109 C 
ATOM     14  C   UNL     1     -12.593   8.500  20.800  0.00  0.00    +0.247 C 
ENDROOT
BRANCH  14  15
ATOM      8  N   UNL     1     -14.790   4.938  21.631  0.00  0.00    -0.263 NA
ATOM     15  C   UNL     1     -13.351   7.271  21.085  0.00  0.00    +0.040 A 
ATOM     18  C   UNL     1     -14.681   7.165  20.696  0.00  0.00    +0.033 A 
ATOM     19  C   UNL     1     -12.739   6.212  21.746  0.00  0.00    +0.033 A 
ATOM     22  C   UNL     1     -15.351   5.988  20.989  0.00  0.00    +0.111 A 
ATOM     23  C   UNL     1     -13.495   5.078  21.993  0.00  0.00    +0.111 A 
ENDBRANCH  14  15
BRANCH   9  13
ATOM      1  O   UNL     1     -11.092   9.173  15.401  0.00  0.00    -0.419 OA
ATOM      4  N   UNL     1     -13.018   8.525  16.335  0.00  0.00    -0.112 NA
ATOM      5  N   UNL     1     -13.313   9.144  15.135  0.00  0.00    -0.106 NA
ATOM     13  C   UNL     1     -11.711   8.566  16.449  0.00  0.00    +0.222 A 
ATOM     16  C   UNL     1     -12.159   9.506  14.624  0.00  0.00    +0.266 A 
BRANCH  16  17
ATOM      6  N   UNL     1     -11.957  11.534  13.235  0.00  0.00    -0.329 N 
ATOM      7  N   UNL     1     -11.848  10.691  11.184  0.00  0.00    -0.243 NA
ATOM     17  C   UNL     1     -12.035  10.178  13.383  0.00  0.00    +0.125 A 
ATOM     20  C   UNL     1     -11.964   9.679  12.104  0.00  0.00    +0.143 A 
ATOM     21  C   UNL     1     -11.846  11.794  11.897  0.00  0.00    +0.199 A 
ATOM     24  C   UNL     1     -11.984  12.531  14.280  0.00  0.00    +0.150 C 
ENDBRANCH  16  17
ENDBRANCH   9  13
TORSDOF 3
ENDMDL
