MODEL 1
REMARK VINA RESULT:      -6.8      0.000      0.000
REMARK  Name = 26744250
REMARK  8 active torsions:
REMARK  status: ('A' for Active; 'I' for Inactive)
REMARK    1  A    between atoms: O_2  and  C_12
REMARK    2  A    between atoms: N_3  and  C_16
REMARK    3  A    between atoms: N_6  and  C_22
REMARK    4  A    between atoms: N_6  and  C_23
REMARK    5  A    between atoms: N_6  and  C_24
REMARK    6  A    between atoms: C_7  and  C_14
REMARK    7  A    between atoms: C_8  and  C_15
REMARK    8  A    between atoms: C_16  and  C_17
REMARK                            x       y       z     vdW  Elec       q    Type
REMARK                         _______ _______ _______ _____ _____    ______ ____
ROOT
ATOM      3  N   UNL     1      12.711   8.716  18.588  0.00  0.00    -0.285 NA
ATOM      8  C   UNL     1      13.706   7.687  18.223  0.00  0.00    +0.149 C 
ATOM     11  C   UNL     1      14.072   7.994  16.759  0.00  0.00    +0.061 C 
ATOM     12  C   UNL     1      13.199   9.182  16.377  0.00  0.00    +0.130 C 
ATOM     13  C   UNL     1      12.038   9.099  17.349  0.00  0.00    +0.116 C 
ENDROOT
BRANCH   8  15
ATOM      1  O   UNL     1      15.273   8.889  19.665  0.00  0.00    -0.336 OA
ATOM      4  N   UNL     1      15.669   6.689  19.516  0.00  0.00    -0.194 NA
ATOM      5  N   UNL     1      16.393   8.639  20.468  0.00  0.00    -0.061 NA
ATOM     14  C   UNL     1      16.564   7.321  20.329  0.00  0.00    +0.175 A 
ATOM     15  C   UNL     1      14.911   7.689  19.141  0.00  0.00    +0.245 A 
BRANCH  14   7
ATOM      7  C   UNL     1      17.693   6.570  21.039  0.00  0.00    +0.060 C 
ATOM      9  C   UNL     1      19.098   7.077  20.894  0.00  0.00    +0.012 C 
ATOM     10  C   UNL     1      18.684   5.807  20.210  0.00  0.00    +0.012 C 
ENDBRANCH  14   7
ENDBRANCH   8  15
BRANCH  12   2
ATOM      2  O   UNL     1      12.768   9.076  15.034  0.00  0.00    -0.390 OA
ATOM     25  H   UNL     1      11.875   9.459  14.982  0.00  0.00    +0.210 HD
ENDBRANCH  12   2
BRANCH   3  16
ATOM     16  C   UNL     1      11.770   8.269  19.608  0.00  0.00    +0.120 C 
BRANCH  16  17
ATOM     17  C   UNL     1      11.672   9.249  20.747  0.00  0.00    -0.033 A 
ATOM     18  C   UNL     1      12.387  10.445  20.703  0.00  0.00    +0.007 A 
ATOM     19  C   UNL     1      10.865   8.959  21.848  0.00  0.00    +0.007 A 
ATOM     20  C   UNL     1      12.295  11.352  21.758  0.00  0.00    +0.023 A 
ATOM     21  C   UNL     1      10.773   9.866  22.904  0.00  0.00    +0.023 A 
ATOM     22  C   UNL     1      11.489  11.062  22.859  0.00  0.00    +0.029 A 
BRANCH  22   6
ATOM      6  N   UNL     1      11.396  11.980  23.927  0.00  0.00    -0.336 N 
ATOM     23  C   UNL     1      10.358  12.992  23.937  0.00  0.00    +0.129 C 
ATOM     24  C   UNL     1      12.334  11.919  25.030  0.00  0.00    +0.129 C 
ENDBRANCH  22   6
ENDBRANCH  16  17
ENDBRANCH   3  16
TORSDOF 6
ENDMDL
MODEL 2
REMARK VINA RESULT:      -6.7      2.569      6.328
REMARK  Name = 26744250
REMARK  8 active torsions:
REMARK  status: ('A' for Active; 'I' for Inactive)
REMARK    1  A    between atoms: O_2  and  C_12
REMARK    2  A    between atoms: N_3  and  C_16
REMARK    3  A    between atoms: N_6  and  C_22
REMARK    4  A    between atoms: N_6  and  C_23
REMARK    5  A    between atoms: N_6  and  C_24
REMARK    6  A    between atoms: C_7  and  C_14
REMARK    7  A    between atoms: C_8  and  C_15
REMARK    8  A    between atoms: C_16  and  C_17
REMARK                            x       y       z     vdW  Elec       q    Type
REMARK                         _______ _______ _______ _____ _____    ______ ____
ROOT
ATOM      3  N   UNL     1      13.164   7.827  20.459  0.00  0.00    -0.285 NA
ATOM      8  C   UNL     1      12.210   7.780  19.332  0.00  0.00    +0.149 C 
ATOM     11  C   UNL     1      10.966   8.534  19.838  0.00  0.00    +0.061 C 
ATOM     12  C   UNL     1      11.299   8.926  21.271  0.00  0.00    +0.130 C 
ATOM     13  C   UNL     1      12.363   7.924  21.677  0.00  0.00    +0.116 C 
ENDROOT
BRANCH   8  15
ATOM      1  O   UNL     1      13.155   7.494  17.095  0.00  0.00    -0.336 OA
ATOM      4  N   UNL     1      12.967   9.630  17.743  0.00  0.00    -0.194 NA
ATOM      5  N   UNL     1      13.640   8.267  16.033  0.00  0.00    -0.061 NA
ATOM     14  C   UNL     1      13.497   9.514  16.491  0.00  0.00    +0.175 A 
ATOM     15  C   UNL     1      12.780   8.373  18.060  0.00  0.00    +0.245 A 
BRANCH  14   7
ATOM      7  C   UNL     1      13.900  10.736  15.660  0.00  0.00    +0.060 C 
ATOM      9  C   UNL     1      15.353  11.105  15.583  0.00  0.00    +0.012 C 
ATOM     10  C   UNL     1      14.403  11.957  16.373  0.00  0.00    +0.012 C 
ENDBRANCH  14   7
ENDBRANCH   8  15
BRANCH  12   2
ATOM      2  O   UNL     1      10.153   8.838  22.094  0.00  0.00    -0.390 OA
ATOM     25  H   UNL     1      10.452   8.598  22.988  0.00  0.00    +0.210 HD
ENDBRANCH  12   2
BRANCH   3  16
ATOM     16  C   UNL     1      14.074   6.688  20.490  0.00  0.00    +0.120 C 
BRANCH  16  17
ATOM     17  C   UNL     1      15.504   7.118  20.682  0.00  0.00    -0.033 A 
ATOM     18  C   UNL     1      15.792   8.297  21.371  0.00  0.00    +0.007 A 
ATOM     19  C   UNL     1      16.542   6.338  20.170  0.00  0.00    +0.007 A 
ATOM     20  C   UNL     1      17.117   8.694  21.548  0.00  0.00    +0.023 A 
ATOM     21  C   UNL     1      17.867   6.736  20.348  0.00  0.00    +0.023 A 
ATOM     22  C   UNL     1      18.154   7.914  21.036  0.00  0.00    +0.029 A 
BRANCH  22   6
ATOM      6  N   UNL     1      19.494   8.317  21.216  0.00  0.00    -0.336 N 
ATOM     23  C   UNL     1      20.577   7.372  21.026  0.00  0.00    +0.129 C 
ATOM     24  C   UNL     1      19.806   9.682  21.588  0.00  0.00    +0.129 C 
ENDBRANCH  22   6
ENDBRANCH  16  17
ENDBRANCH   3  16
TORSDOF 6
ENDMDL
MODEL 3
REMARK VINA RESULT:      -6.7      2.403      7.065
REMARK  Name = 26744250
REMARK  8 active torsions:
REMARK  status: ('A' for Active; 'I' for Inactive)
REMARK    1  A    between atoms: O_2  and  C_12
REMARK    2  A    between atoms: N_3  and  C_16
REMARK    3  A    between atoms: N_6  and  C_22
REMARK    4  A    between atoms: N_6  and  C_23
REMARK    5  A    between atoms: N_6  and  C_24
REMARK    6  A    between atoms: C_7  and  C_14
REMARK    7  A    between atoms: C_8  and  C_15
REMARK    8  A    between atoms: C_16  and  C_17
REMARK                            x       y       z     vdW  Elec       q    Type
REMARK                         _______ _______ _______ _____ _____    ______ ____
ROOT
ATOM      3  N   UNL     1      13.049   8.043  20.779  0.00  0.00    -0.285 NA
ATOM      8  C   UNL     1      11.740   8.704  20.592  0.00  0.00    +0.149 C 
ATOM     11  C   UNL     1      10.706   7.677  21.090  0.00  0.00    +0.061 C 
ATOM     12  C   UNL     1      11.525   6.458  21.494  0.00  0.00    +0.130 C 
ATOM     13  C   UNL     1      12.803   6.605  20.691  0.00  0.00    +0.116 C 
ENDROOT
BRANCH   8  15
ATOM      1  O   UNL     1      12.024  11.132  20.619  0.00  0.00    -0.336 OA
ATOM      4  N   UNL     1      11.251  10.280  22.540  0.00  0.00    -0.194 NA
ATOM      5  N   UNL     1      11.852  12.218  21.485  0.00  0.00    -0.061 NA
ATOM     14  C   UNL     1      11.393  11.636  22.597  0.00  0.00    +0.175 A 
ATOM     15  C   UNL     1      11.648  10.030  21.318  0.00  0.00    +0.245 A 
BRANCH  14   7
ATOM      7  C   UNL     1      11.049  12.441  23.853  0.00  0.00    +0.060 C 
ATOM      9  C   UNL     1      12.127  12.683  24.870  0.00  0.00    +0.012 C 
ATOM     10  C   UNL     1      11.007  11.731  25.174  0.00  0.00    +0.012 C 
ENDBRANCH  14   7
ENDBRANCH   8  15
BRANCH  12   2
ATOM      2  O   UNL     1      10.838   5.264  21.173  0.00  0.00    -0.390 OA
ATOM     25  H   UNL     1      11.415   4.741  20.591  0.00  0.00    +0.210 HD
ENDBRANCH  12   2
BRANCH   3  16
ATOM     16  C   UNL     1      14.058   8.487  19.825  0.00  0.00    +0.120 C 
BRANCH  16  17
ATOM     17  C   UNL     1      15.436   8.017  20.208  0.00  0.00    -0.033 A 
ATOM     18  C   UNL     1      16.131   8.655  21.236  0.00  0.00    +0.007 A 
ATOM     19  C   UNL     1      16.019   6.944  19.533  0.00  0.00    +0.007 A 
ATOM     20  C   UNL     1      17.407   8.220  21.590  0.00  0.00    +0.023 A 
ATOM     21  C   UNL     1      17.297   6.509  19.887  0.00  0.00    +0.023 A 
ATOM     22  C   UNL     1      17.991   7.147  20.915  0.00  0.00    +0.029 A 
BRANCH  22   6
ATOM      6  N   UNL     1      19.282   6.707  21.274  0.00  0.00    -0.336 N 
ATOM     23  C   UNL     1      19.966   7.288  22.411  0.00  0.00    +0.129 C 
ATOM     24  C   UNL     1      19.939   5.664  20.511  0.00  0.00    +0.129 C 
ENDBRANCH  22   6
ENDBRANCH  16  17
ENDBRANCH   3  16
TORSDOF 6
ENDMDL
MODEL 4
REMARK VINA RESULT:      -6.2      2.093      4.314
REMARK  Name = 26744250
REMARK  8 active torsions:
REMARK  status: ('A' for Active; 'I' for Inactive)
REMARK    1  A    between atoms: O_2  and  C_12
REMARK    2  A    between atoms: N_3  and  C_16
REMARK    3  A    between atoms: N_6  and  C_22
REMARK    4  A    between atoms: N_6  and  C_23
REMARK    5  A    between atoms: N_6  and  C_24
REMARK    6  A    between atoms: C_7  and  C_14
REMARK    7  A    between atoms: C_8  and  C_15
REMARK    8  A    between atoms: C_16  and  C_17
REMARK                            x       y       z     vdW  Elec       q    Type
REMARK                         _______ _______ _______ _____ _____    ______ ____
ROOT
ATOM      3  N   UNL     1      12.640   7.797  19.310  0.00  0.00    -0.285 NA
ATOM      8  C   UNL     1      13.792   8.687  19.064  0.00  0.00    +0.149 C 
ATOM     11  C   UNL     1      15.013   7.901  19.576  0.00  0.00    +0.061 C 
ATOM     12  C   UNL     1      14.442   6.603  20.131  0.00  0.00    +0.130 C 
ATOM     13  C   UNL     1      13.001   6.956  20.449  0.00  0.00    +0.116 C 
ENDROOT
BRANCH   8  15
ATOM      1  O   UNL     1      13.495   8.182  16.690  0.00  0.00    -0.336 OA
ATOM      4  N   UNL     1      14.385  10.198  17.093  0.00  0.00    -0.194 NA
ATOM      5  N   UNL     1      13.710   8.771  15.438  0.00  0.00    -0.061 NA
ATOM     14  C   UNL     1      14.236   9.956  15.758  0.00  0.00    +0.175 A 
ATOM     15  C   UNL     1      13.920   9.088  17.609  0.00  0.00    +0.245 A 
BRANCH  14   7
ATOM      7  C   UNL     1      14.643  10.978  14.693  0.00  0.00    +0.060 C 
ATOM      9  C   UNL     1      16.104  11.206  14.436  0.00  0.00    +0.012 C 
ATOM     10  C   UNL     1      15.292  12.257  15.133  0.00  0.00    +0.012 C 
ENDBRANCH  14   7
ENDBRANCH   8  15
BRANCH  12   2
ATOM      2  O   UNL     1      15.150   6.196  21.285  0.00  0.00    -0.390 OA
ATOM     25  H   UNL     1      14.672   5.444  21.672  0.00  0.00    +0.210 HD
ENDBRANCH  12   2
BRANCH   3  16
ATOM     16  C   UNL     1      11.393   8.519  19.535  0.00  0.00    +0.120 C 
BRANCH  16  17
ATOM     17  C   UNL     1      11.484   9.435  20.726  0.00  0.00    -0.033 A 
ATOM     18  C   UNL     1      10.814   9.113  21.907  0.00  0.00    +0.007 A 
ATOM     19  C   UNL     1      12.236  10.608  20.649  0.00  0.00    +0.007 A 
ATOM     20  C   UNL     1      10.898   9.963  23.009  0.00  0.00    +0.023 A 
ATOM     21  C   UNL     1      12.320  11.457  21.752  0.00  0.00    +0.023 A 
ATOM     22  C   UNL     1      11.650  11.135  22.932  0.00  0.00    +0.029 A 
BRANCH  22   6
ATOM      6  N   UNL     1      11.735  11.994  24.048  0.00  0.00    -0.336 N 
ATOM     23  C   UNL     1      10.541  12.609  24.593  0.00  0.00    +0.129 C 
ATOM     24  C   UNL     1      13.016  12.267  24.668  0.00  0.00    +0.129 C 
ENDBRANCH  22   6
ENDBRANCH  16  17
ENDBRANCH   3  16
TORSDOF 6
ENDMDL
MODEL 5
REMARK VINA RESULT:      -6.0      2.077      4.796
REMARK  Name = 26744250
REMARK  8 active torsions:
REMARK  status: ('A' for Active; 'I' for Inactive)
REMARK    1  A    between atoms: O_2  and  C_12
REMARK    2  A    between atoms: N_3  and  C_16
REMARK    3  A    between atoms: N_6  and  C_22
REMARK    4  A    between atoms: N_6  and  C_23
REMARK    5  A    between atoms: N_6  and  C_24
REMARK    6  A    between atoms: C_7  and  C_14
REMARK    7  A    between atoms: C_8  and  C_15
REMARK    8  A    between atoms: C_16  and  C_17
REMARK                            x       y       z     vdW  Elec       q    Type
REMARK                         _______ _______ _______ _____ _____    ______ ____
ROOT
ATOM      3  N   UNL     1      16.621   8.391  20.818  0.00  0.00    -0.285 NA
ATOM      8  C   UNL     1      16.093   7.597  19.690  0.00  0.00    +0.149 C 
ATOM     11  C   UNL     1      16.911   6.293  19.709  0.00  0.00    +0.061 C 
ATOM     12  C   UNL     1      17.902   6.467  20.852  0.00  0.00    +0.130 C 
ATOM     13  C   UNL     1      18.008   7.972  21.006  0.00  0.00    +0.116 C 
ENDROOT
BRANCH   8  15
ATOM      1  O   UNL     1      13.956   7.032  18.644  0.00  0.00    -0.336 OA
ATOM      4  N   UNL     1      13.824   7.411  20.848  0.00  0.00    -0.194 NA
ATOM      5  N   UNL     1      12.610   6.859  18.990  0.00  0.00    -0.061 NA
ATOM     14  C   UNL     1      12.613   7.099  20.304  0.00  0.00    +0.175 A 
ATOM     15  C   UNL     1      14.601   7.356  19.795  0.00  0.00    +0.245 A 
BRANCH  14   7
ATOM      7  C   UNL     1      11.335   7.026  21.145  0.00  0.00    +0.060 C 
ATOM      9  C   UNL     1      10.428   8.221  21.182  0.00  0.00    +0.012 C 
ATOM     10  C   UNL     1      11.243   7.861  22.389  0.00  0.00    +0.012 C 
ENDBRANCH  14   7
ENDBRANCH   8  15
BRANCH  12   2
ATOM      2  O   UNL     1      19.149   5.883  20.529  0.00  0.00    -0.390 OA
ATOM     25  H   UNL     1      19.668   6.549  20.048  0.00  0.00    +0.210 HD
ENDBRANCH  12   2
BRANCH   3  16
ATOM     16  C   UNL     1      16.506   9.830  20.611  0.00  0.00    +0.120 C 
BRANCH  16  17
ATOM     17  C   UNL     1      15.202  10.369  21.135  0.00  0.00    -0.033 A 
ATOM     18  C   UNL     1      14.273  10.927  20.257  0.00  0.00    +0.007 A 
ATOM     19  C   UNL     1      14.922  10.312  22.501  0.00  0.00    +0.007 A 
ATOM     20  C   UNL     1      13.066  11.426  20.743  0.00  0.00    +0.023 A 
ATOM     21  C   UNL     1      13.714  10.811  22.988  0.00  0.00    +0.023 A 
ATOM     22  C   UNL     1      12.786  11.369  22.109  0.00  0.00    +0.029 A 
BRANCH  22   6
ATOM      6  N   UNL     1      11.564  11.874  22.600  0.00  0.00    -0.336 N 
ATOM     23  C   UNL     1      10.955  11.301  23.784  0.00  0.00    +0.129 C 
ATOM     24  C   UNL     1      10.904  12.977  21.931  0.00  0.00    +0.129 C 
ENDBRANCH  22   6
ENDBRANCH  16  17
ENDBRANCH   3  16
TORSDOF 6
ENDMDL
MODEL 6
REMARK VINA RESULT:      -5.9     30.705     32.005
REMARK  Name = 26744250
REMARK  8 active torsions:
REMARK  status: ('A' for Active; 'I' for Inactive)
REMARK    1  A    between atoms: O_2  and  C_12
REMARK    2  A    between atoms: N_3  and  C_16
REMARK    3  A    between atoms: N_6  and  C_22
REMARK    4  A    between atoms: N_6  and  C_23
REMARK    5  A    between atoms: N_6  and  C_24
REMARK    6  A    between atoms: C_7  and  C_14
REMARK    7  A    between atoms: C_8  and  C_15
REMARK    8  A    between atoms: C_16  and  C_17
REMARK                            x       y       z     vdW  Elec       q    Type
REMARK                         _______ _______ _______ _____ _____    ______ ____
ROOT
ATOM      3  N   UNL     1     -16.747   3.606  27.138  0.00  0.00    -0.285 NA
ATOM      8  C   UNL     1     -16.989   2.149  27.133  0.00  0.00    +0.149 C 
ATOM     11  C   UNL     1     -16.358   1.650  25.820  0.00  0.00    +0.061 C 
ATOM     12  C   UNL     1     -15.828   2.903  25.137  0.00  0.00    +0.130 C 
ATOM     13  C   UNL     1     -16.664   4.017  25.739  0.00  0.00    +0.116 C 
ENDROOT
BRANCH   8  15
ATOM      1  O   UNL     1     -17.001   0.283  28.714  0.00  0.00    -0.336 OA
ATOM      4  N   UNL     1     -15.438   1.830  29.136  0.00  0.00    -0.194 NA
ATOM      5  N   UNL     1     -16.316  -0.157  29.853  0.00  0.00    -0.061 NA
ATOM     14  C   UNL     1     -15.410   0.807  30.038  0.00  0.00    +0.175 A 
ATOM     15  C   UNL     1     -16.422   1.459  28.356  0.00  0.00    +0.245 A 
BRANCH  14   7
ATOM      7  C   UNL     1     -14.405   0.765  31.192  0.00  0.00    +0.060 C 
ATOM      9  C   UNL     1     -14.794   1.371  32.509  0.00  0.00    +0.012 C 
ATOM     10  C   UNL     1     -13.772   2.048  31.644  0.00  0.00    +0.012 C 
ENDBRANCH  14   7
ENDBRANCH   8  15
BRANCH  12   2
ATOM      2  O   UNL     1     -15.997   2.820  23.735  0.00  0.00    -0.390 OA
ATOM     25  H   UNL     1     -16.705   2.176  23.563  0.00  0.00    +0.210 HD
ENDBRANCH  12   2
BRANCH   3  16
ATOM     16  C   UNL     1     -17.763   4.354  27.870  0.00  0.00    +0.120 C 
BRANCH  16  17
ATOM     17  C   UNL     1     -17.388   4.541  29.316  0.00  0.00    -0.033 A 
ATOM     18  C   UNL     1     -16.212   5.213  29.651  0.00  0.00    +0.007 A 
ATOM     19  C   UNL     1     -18.216   4.042  30.322  0.00  0.00    +0.007 A 
ATOM     20  C   UNL     1     -15.865   5.386  30.990  0.00  0.00    +0.023 A 
ATOM     21  C   UNL     1     -17.869   4.215  31.662  0.00  0.00    +0.023 A 
ATOM     22  C   UNL     1     -16.693   4.886  31.996  0.00  0.00    +0.029 A 
BRANCH  22   6
ATOM      6  N   UNL     1     -16.342   5.061  33.351  0.00  0.00    -0.336 N 
ATOM     23  C   UNL     1     -17.355   5.376  34.338  0.00  0.00    +0.129 C 
ATOM     24  C   UNL     1     -14.962   4.924  33.774  0.00  0.00    +0.129 C 
ENDBRANCH  22   6
ENDBRANCH  16  17
ENDBRANCH   3  16
TORSDOF 6
ENDMDL
MODEL 7
REMARK VINA RESULT:      -5.9     26.405     27.818
REMARK  Name = 26744250
REMARK  8 active torsions:
REMARK  status: ('A' for Active; 'I' for Inactive)
REMARK    1  A    between atoms: O_2  and  C_12
REMARK    2  A    between atoms: N_3  and  C_16
REMARK    3  A    between atoms: N_6  and  C_22
REMARK    4  A    between atoms: N_6  and  C_23
REMARK    5  A    between atoms: N_6  and  C_24
REMARK    6  A    between atoms: C_7  and  C_14
REMARK    7  A    between atoms: C_8  and  C_15
REMARK    8  A    between atoms: C_16  and  C_17
REMARK                            x       y       z     vdW  Elec       q    Type
REMARK                         _______ _______ _______ _____ _____    ______ ____
ROOT
ATOM      3  N   UNL     1      -3.186 -11.738  14.395  0.00  0.00    -0.285 NA
ATOM      8  C   UNL     1      -2.035 -11.702  13.470  0.00  0.00    +0.149 C 
ATOM     11  C   UNL     1      -1.832 -13.165  13.035  0.00  0.00    +0.061 C 
ATOM     12  C   UNL     1      -2.887 -13.953  13.801  0.00  0.00    +0.130 C 
ATOM     13  C   UNL     1      -3.193 -13.070  14.996  0.00  0.00    +0.116 C 
ENDROOT
BRANCH   8  15
ATOM      1  O   UNL     1      -1.232  -9.929  11.990  0.00  0.00    -0.336 OA
ATOM      4  N   UNL     1      -3.304 -10.642  11.525  0.00  0.00    -0.194 NA
ATOM      5  N   UNL     1      -1.665  -9.176  10.891  0.00  0.00    -0.061 NA
ATOM     14  C   UNL     1      -2.894  -9.655  10.676  0.00  0.00    +0.175 A 
ATOM     15  C   UNL     1      -2.256 -10.767  12.300  0.00  0.00    +0.245 A 
BRANCH  14   7
ATOM      7  C   UNL     1      -3.784  -9.128   9.548  0.00  0.00    +0.060 C 
ATOM      9  C   UNL     1      -5.008  -8.335   9.906  0.00  0.00    +0.012 C 
ATOM     10  C   UNL     1      -5.148  -9.728   9.365  0.00  0.00    +0.012 C 
ENDBRANCH  14   7
ENDBRANCH   8  15
BRANCH  12   2
ATOM      2  O   UNL     1      -2.383 -15.214  14.196  0.00  0.00    -0.390 OA
ATOM     25  H   UNL     1      -2.779 -15.432  15.056  0.00  0.00    +0.210 HD
ENDBRANCH  12   2
BRANCH   3  16
ATOM     16  C   UNL     1      -3.150 -10.682  15.399  0.00  0.00    +0.120 C 
BRANCH  16  17
ATOM     17  C   UNL     1      -4.498 -10.468  16.036  0.00  0.00    -0.033 A 
ATOM     18  C   UNL     1      -4.673 -10.711  17.398  0.00  0.00    +0.007 A 
ATOM     19  C   UNL     1      -5.572 -10.026  15.262  0.00  0.00    +0.007 A 
ATOM     20  C   UNL     1      -5.921 -10.512  17.986  0.00  0.00    +0.023 A 
ATOM     21  C   UNL     1      -6.821  -9.827  15.851  0.00  0.00    +0.023 A 
ATOM     22  C   UNL     1      -6.996 -10.070  17.213  0.00  0.00    +0.029 A 
BRANCH  22   6
ATOM      6  N   UNL     1      -8.258  -9.869  17.809  0.00  0.00    -0.336 N 
ATOM     23  C   UNL     1      -9.130  -8.810  17.342  0.00  0.00    +0.129 C 
ATOM     24  C   UNL     1      -8.702 -10.723  18.893  0.00  0.00    +0.129 C 
ENDBRANCH  22   6
ENDBRANCH  16  17
ENDBRANCH   3  16
TORSDOF 6
ENDMDL
MODEL 8
REMARK VINA RESULT:      -5.9      2.921      6.861
REMARK  Name = 26744250
REMARK  8 active torsions:
REMARK  status: ('A' for Active; 'I' for Inactive)
REMARK    1  A    between atoms: O_2  and  C_12
REMARK    2  A    between atoms: N_3  and  C_16
REMARK    3  A    between atoms: N_6  and  C_22
REMARK    4  A    between atoms: N_6  and  C_23
REMARK    5  A    between atoms: N_6  and  C_24
REMARK    6  A    between atoms: C_7  and  C_14
REMARK    7  A    between atoms: C_8  and  C_15
REMARK    8  A    between atoms: C_16  and  C_17
REMARK                            x       y       z     vdW  Elec       q    Type
REMARK                         _______ _______ _______ _____ _____    ______ ____
ROOT
ATOM      3  N   UNL     1      13.932   7.908  20.241  0.00  0.00    -0.285 NA
ATOM      8  C   UNL     1      13.052   8.807  19.467  0.00  0.00    +0.149 C 
ATOM     11  C   UNL     1      11.978   9.267  20.471  0.00  0.00    +0.061 C 
ATOM     12  C   UNL     1      12.312   8.540  21.766  0.00  0.00    +0.130 C 
ATOM     13  C   UNL     1      13.107   7.334  21.302  0.00  0.00    +0.116 C 
ENDROOT
BRANCH   8  15
ATOM      1  O   UNL     1      13.208  10.574  17.785  0.00  0.00    -0.336 OA
ATOM      4  N   UNL     1      14.964  10.473  19.172  0.00  0.00    -0.194 NA
ATOM      5  N   UNL     1      14.079  11.595  17.385  0.00  0.00    -0.061 NA
ATOM     14  C   UNL     1      15.090  11.472  18.250  0.00  0.00    +0.175 A 
ATOM     15  C   UNL     1      13.804   9.963  18.841  0.00  0.00    +0.245 A 
BRANCH  14   7
ATOM      7  C   UNL     1      16.311  12.394  18.209  0.00  0.00    +0.060 C 
ATOM      9  C   UNL     1      16.280  13.666  19.007  0.00  0.00    +0.012 C 
ATOM     10  C   UNL     1      16.192  13.716  17.510  0.00  0.00    +0.012 C 
ENDBRANCH  14   7
ENDBRANCH   8  15
BRANCH  12   2
ATOM      2  O   UNL     1      11.132   8.160  22.447  0.00  0.00    -0.390 OA
ATOM     25  H   UNL     1      10.444   8.010  21.778  0.00  0.00    +0.210 HD
ENDBRANCH  12   2
BRANCH   3  16
ATOM     16  C   UNL     1      14.566   6.882  19.424  0.00  0.00    +0.120 C 
BRANCH  16  17
ATOM     17  C   UNL     1      16.021   6.710  19.770  0.00  0.00    -0.033 A 
ATOM     18  C   UNL     1      16.821   5.849  19.017  0.00  0.00    +0.007 A 
ATOM     19  C   UNL     1      16.571   7.410  20.844  0.00  0.00    +0.007 A 
ATOM     20  C   UNL     1      18.168   5.690  19.338  0.00  0.00    +0.023 A 
ATOM     21  C   UNL     1      17.919   7.251  21.165  0.00  0.00    +0.023 A 
ATOM     22  C   UNL     1      18.718   6.390  20.413  0.00  0.00    +0.029 A 
BRANCH  22   6
ATOM      6  N   UNL     1      20.081   6.229  20.737  0.00  0.00    -0.336 N 
ATOM     23  C   UNL     1      20.756   4.975  20.471  0.00  0.00    +0.129 C 
ATOM     24  C   UNL     1      20.826   7.319  21.336  0.00  0.00    +0.129 C 
ENDBRANCH  22   6
ENDBRANCH  16  17
ENDBRANCH   3  16
TORSDOF 6
ENDMDL
MODEL 9
REMARK VINA RESULT:      -5.8     13.433     16.972
REMARK  Name = 26744250
REMARK  8 active torsions:
REMARK  status: ('A' for Active; 'I' for Inactive)
REMARK    1  A    between atoms: O_2  and  C_12
REMARK    2  A    between atoms: N_3  and  C_16
REMARK    3  A    between atoms: N_6  and  C_22
REMARK    4  A    between atoms: N_6  and  C_23
REMARK    5  A    between atoms: N_6  and  C_24
REMARK    6  A    between atoms: C_7  and  C_14
REMARK    7  A    between atoms: C_8  and  C_15
REMARK    8  A    between atoms: C_16  and  C_17
REMARK                            x       y       z     vdW  Elec       q    Type
REMARK                         _______ _______ _______ _____ _____    ______ ____
ROOT
ATOM      3  N   UNL     1      10.510   5.588   6.034  0.00  0.00    -0.285 NA
ATOM      8  C   UNL     1      10.434   6.763   6.926  0.00  0.00    +0.149 C 
ATOM     11  C   UNL     1      10.207   6.176   8.331  0.00  0.00    +0.061 C 
ATOM     12  C   UNL     1      10.125   4.670   8.120  0.00  0.00    +0.130 C 
ATOM     13  C   UNL     1       9.717   4.536   6.665  0.00  0.00    +0.116 C 
ENDROOT
BRANCH   8  15
ATOM      1  O   UNL     1      11.537   8.915   7.285  0.00  0.00    -0.336 OA
ATOM      4  N   UNL     1      12.868   7.339   6.413  0.00  0.00    -0.194 NA
ATOM      5  N   UNL     1      12.792   9.514   7.116  0.00  0.00    -0.061 NA
ATOM     14  C   UNL     1      13.521   8.522   6.598  0.00  0.00    +0.175 A 
ATOM     15  C   UNL     1      11.669   7.636   6.847  0.00  0.00    +0.245 A 
BRANCH  14   7
ATOM      7  C   UNL     1      14.998   8.704   6.237  0.00  0.00    +0.060 C 
ATOM      9  C   UNL     1      15.350   9.146   4.847  0.00  0.00    +0.012 C 
ATOM     10  C   UNL     1      15.630   7.737   5.279  0.00  0.00    +0.012 C 
ENDBRANCH  14   7
ENDBRANCH   8  15
BRANCH  12   2
ATOM      2  O   UNL     1       9.169   4.093   8.989  0.00  0.00    -0.390 OA
ATOM     25  H   UNL     1       8.493   3.665   8.437  0.00  0.00    +0.210 HD
ENDBRANCH  12   2
BRANCH   3  16
ATOM     16  C   UNL     1      10.065   5.869   4.674  0.00  0.00    +0.120 C 
BRANCH  16  17
ATOM     17  C   UNL     1      11.047   5.371   3.648  0.00  0.00    -0.033 A 
ATOM     18  C   UNL     1      12.054   6.216   3.178  0.00  0.00    +0.007 A 
ATOM     19  C   UNL     1      10.951   4.066   3.166  0.00  0.00    +0.007 A 
ATOM     20  C   UNL     1      12.963   5.754   2.228  0.00  0.00    +0.023 A 
ATOM     21  C   UNL     1      11.862   3.604   2.215  0.00  0.00    +0.023 A 
ATOM     22  C   UNL     1      12.867   4.448   1.746  0.00  0.00    +0.029 A 
BRANCH  22   6
ATOM      6  N   UNL     1      13.788   3.982   0.784  0.00  0.00    -0.336 N 
ATOM     23  C   UNL     1      13.394   3.845  -0.604  0.00  0.00    +0.129 C 
ATOM     24  C   UNL     1      15.142   3.639   1.171  0.00  0.00    +0.129 C 
ENDBRANCH  22   6
ENDBRANCH  16  17
ENDBRANCH   3  16
TORSDOF 6
ENDMDL
MODEL 10
REMARK VINA RESULT:      -5.7     30.383     31.872
REMARK  Name = 26744250
REMARK  8 active torsions:
REMARK  status: ('A' for Active; 'I' for Inactive)
REMARK    1  A    between atoms: O_2  and  C_12
REMARK    2  A    between atoms: N_3  and  C_16
REMARK    3  A    between atoms: N_6  and  C_22
REMARK    4  A    between atoms: N_6  and  C_23
REMARK    5  A    between atoms: N_6  and  C_24
REMARK    6  A    between atoms: C_7  and  C_14
REMARK    7  A    between atoms: C_8  and  C_15
REMARK    8  A    between atoms: C_16  and  C_17
REMARK                            x       y       z     vdW  Elec       q    Type
REMARK                         _______ _______ _______ _____ _____    ______ ____
ROOT
ATOM      3  N   UNL     1     -15.306   1.406  29.613  0.00  0.00    -0.285 NA
ATOM      8  C   UNL     1     -15.238   1.299  31.085  0.00  0.00    +0.149 C 
ATOM     11  C   UNL     1     -13.977   0.459  31.361  0.00  0.00    +0.061 C 
ATOM     12  C   UNL     1     -13.432   0.104  29.984  0.00  0.00    +0.130 C 
ATOM     13  C   UNL     1     -14.645   0.217  29.080  0.00  0.00    +0.116 C 
ENDROOT
BRANCH   8  15
ATOM      1  O   UNL     1     -15.062   3.734  30.961  0.00  0.00    -0.336 OA
ATOM      4  N   UNL     1     -15.294   2.938  33.042  0.00  0.00    -0.194 NA
ATOM      5  N   UNL     1     -15.059   4.850  31.808  0.00  0.00    -0.061 NA
ATOM     14  C   UNL     1     -15.200   4.299  33.017  0.00  0.00    +0.175 A 
ATOM     15  C   UNL     1     -15.204   2.650  31.768  0.00  0.00    +0.245 A 
BRANCH  14   7
ATOM      7  C   UNL     1     -15.254   5.144  34.292  0.00  0.00    +0.060 C 
ATOM      9  C   UNL     1     -14.086   6.030  34.619  0.00  0.00    +0.012 C 
ATOM     10  C   UNL     1     -14.339   4.792  35.429  0.00  0.00    +0.012 C 
ENDBRANCH  14   7
ENDBRANCH   8  15
BRANCH  12   2
ATOM      2  O   UNL     1     -12.893  -1.204  29.979  0.00  0.00    -0.390 OA
ATOM     25  H   UNL     1     -12.022  -1.163  30.408  0.00  0.00    +0.210 HD
ENDBRANCH  12   2
BRANCH   3  16
ATOM     16  C   UNL     1     -16.667   1.548  29.111  0.00  0.00    +0.120 C 
BRANCH  16  17
ATOM     17  C   UNL     1     -16.690   1.930  27.654  0.00  0.00    -0.033 A 
ATOM     18  C   UNL     1     -17.271   1.074  26.718  0.00  0.00    +0.007 A 
ATOM     19  C   UNL     1     -16.128   3.138  27.241  0.00  0.00    +0.007 A 
ATOM     20  C   UNL     1     -17.291   1.428  25.369  0.00  0.00    +0.023 A 
ATOM     21  C   UNL     1     -16.149   3.492  25.891  0.00  0.00    +0.023 A 
ATOM     22  C   UNL     1     -16.729   2.636  24.956  0.00  0.00    +0.029 A 
BRANCH  22   6
ATOM      6  N   UNL     1     -16.750   2.993  23.591  0.00  0.00    -0.336 N 
ATOM     23  C   UNL     1     -15.898   4.056  23.097  0.00  0.00    +0.129 C 
ATOM     24  C   UNL     1     -17.621   2.298  22.664  0.00  0.00    +0.129 C 
ENDBRANCH  22   6
ENDBRANCH  16  17
ENDBRANCH   3  16
TORSDOF 6
ENDMDL
