REMARK  Name = 45784166
REMARK  10 active torsions:
REMARK  status: ('A' for Active; 'I' for Inactive)
REMARK    1  A    between atoms: N_4  and  C_14
REMARK    2  A    between atoms: C_7  and  C_11
REMARK    3  A    between atoms: C_8  and  C_14
REMARK    4  A    between atoms: C_10  and  C_15
REMARK    5  A    between atoms: C_11  and  C_16
REMARK    6  A    between atoms: C_11  and  C_17
REMARK    7  A    between atoms: C_12  and  C_18
REMARK    8  A    between atoms: C_15  and  C_19
REMARK    9  A    between atoms: C_20  and  C_22
REMARK   10  A    between atoms: C_21  and  C_23
REMARK                            x       y       z     vdW  Elec       q    Type
REMARK                         _______ _______ _______ _____ _____    ______ ____
ROOT
ATOM      7  C   UNL     1       2.010   0.204   1.071  0.00  0.00    +0.000 C 
ATOM      8  C   UNL     1       3.545   0.009   0.987  0.00  0.00    +0.032 C 
ATOM      9  C   UNL     1       1.309  -1.145   1.290  0.00  0.00    +0.012 C 
ATOM     10  C   UNL     1       1.612  -2.148   0.162  0.00  0.00    +0.024 C 
ATOM     12  C   UNL     1       3.091  -2.200  -0.164  0.00  0.00    -0.073 C 
ATOM     13  C   UNL     1       3.941  -1.234   0.224  0.00  0.00    -0.022 C 
ATOM     18  C   UNL     1       3.578  -3.412  -0.909  0.00  0.00    +0.039 C 
ENDROOT
BRANCH   7  11
ATOM     11  C   UNL     1       1.622   1.178   2.188  0.00  0.00    -0.013 C 
ATOM     16  C   UNL     1       0.266   1.812   1.894  0.00  0.00    +0.007 C 
ATOM     17  C   UNL     1       1.603   0.463   3.535  0.00  0.00    +0.007 C 
ENDBRANCH   7  11
BRANCH   8  14
ATOM     14  C   UNL     1       4.225   1.231   0.361  0.00  0.00    +0.112 C 
BRANCH  14   4
ATOM      3  O   UNL     1       2.875   3.499  -0.849  0.00  0.00    -0.276 OA
ATOM      4  N   UNL     1       3.837   1.383  -1.007  0.00  0.00    -0.315 N 
ATOM     20  C   UNL     1       3.189   2.510  -1.506  0.00  0.00    +0.210 C 
ATOM     22  C   UNL     1       2.919   2.420  -2.984  0.00  0.00    +0.109 C 
ATOM     29  H   UNL     1       4.104   0.653  -1.661  0.00  0.00    +0.149 HD
ENDBRANCH  14   4
ENDBRANCH   8  14
BRANCH  10  15
ATOM     15  C   UNL     1       0.784  -1.838  -1.090  0.00  0.00    +0.105 C 
BRANCH  15  19
ATOM      2  O   UNL     1      -1.280  -0.598  -0.691  0.00  0.00    -0.420 OA
ATOM      5  N   UNL     1      -1.512  -2.821  -0.588  0.00  0.00    -0.112 NA
ATOM      6  N   UNL     1      -2.748  -2.251  -0.345  0.00  0.00    -0.107 NA
ATOM     19  C   UNL     1      -0.687  -1.820  -0.785  0.00  0.00    +0.218 A 
ATOM     21  C   UNL     1      -2.565  -0.953  -0.415  0.00  0.00    +0.251 A 
BRANCH  21  23
ATOM      1  F   UNL     1      -5.273  -1.394   0.157  0.00  0.00    -0.205 F 
ATOM     23  C   UNL     1      -3.492   0.129  -0.249  0.00  0.00    +0.074 A 
ATOM     24  C   UNL     1      -4.832  -0.134   0.035  0.00  0.00    +0.136 A 
ATOM     25  C   UNL     1      -3.050   1.446  -0.373  0.00  0.00    +0.016 A 
ATOM     26  C   UNL     1      -5.731   0.922   0.194  0.00  0.00    +0.039 A 
ATOM     27  C   UNL     1      -3.948   2.501  -0.213  0.00  0.00    +0.001 A 
ATOM     28  C   UNL     1      -5.289   2.239   0.070  0.00  0.00    +0.003 A 
ENDBRANCH  21  23
ENDBRANCH  15  19
ENDBRANCH  10  15
TORSDOF 6
