MODEL 1
REMARK VINA RESULT:      -5.5      0.000      0.000
REMARK  Name = 28962298
REMARK  11 active torsions:
REMARK  status: ('A' for Active; 'I' for Inactive)
REMARK    1  A    between atoms: O_2  and  C_10
REMARK    2  A    between atoms: O_4  and  C_14
REMARK    3  A    between atoms: N_5  and  C_8
REMARK    4  A    between atoms: N_5  and  C_15
REMARK    5  A    between atoms: N_5  and  C_16
REMARK    6  A    between atoms: N_6  and  C_12
REMARK    7  A    between atoms: N_6  and  C_13
REMARK    8  A    between atoms: C_9  and  C_12
REMARK    9  A    between atoms: C_11  and  C_14
REMARK   10  A    between atoms: C_15  and  C_19
REMARK   11  A    between atoms: C_19  and  C_22
REMARK                            x       y       z     vdW  Elec       q    Type
REMARK                         _______ _______ _______ _____ _____    ______ ____
ROOT
ATOM      1  O   UNL     1      -3.332 -10.379  15.215  0.00  0.00    -0.366 OA
ATOM      8  C   UNL     1      -3.515 -11.724  13.260  0.00  0.00    +0.118 C 
ATOM      9  C   UNL     1      -4.292 -11.138  14.447  0.00  0.00    +0.152 C 
ATOM     10  C   UNL     1      -2.091 -11.801  13.787  0.00  0.00    +0.165 C 
ATOM     11  C   UNL     1      -2.029 -10.526  14.618  0.00  0.00    +0.174 C 
ENDROOT
BRANCH  10   2
ATOM      2  O   UNL     1      -1.903 -12.942  14.616  0.00  0.00    -0.388 OA
ATOM     28  H   UNL     1      -2.688 -13.507  14.521  0.00  0.00    +0.210 HD
ENDBRANCH  10   2
BRANCH   8   5
ATOM      5  N   UNL     1      -4.036 -12.959  12.699  0.00  0.00    -0.297 NA
ATOM     16  C   UNL     1      -3.057 -13.579  11.803  0.00  0.00    +0.105 C 
BRANCH   5  15
ATOM     15  C   UNL     1      -5.293 -12.717  11.983  0.00  0.00    +0.090 C 
BRANCH  15  19
ATOM     19  C   UNL     1      -5.031 -12.401  10.510  0.00  0.00    +0.071 C 
BRANCH  19  22
ATOM      7  N   UNL     1      -6.226 -10.282  10.612  0.00  0.00    -0.260 NA
ATOM     22  C   UNL     1      -5.092 -10.919  10.242  0.00  0.00    +0.042 A 
ATOM     23  C   UNL     1      -4.011 -10.292   9.644  0.00  0.00    +0.023 A 
ATOM     24  C   UNL     1      -4.099  -8.924   9.412  0.00  0.00    +0.003 A 
ATOM     25  C   UNL     1      -6.275  -8.953  10.370  0.00  0.00    +0.111 A 
ATOM     26  C   UNL     1      -5.248  -8.234   9.779  0.00  0.00    +0.020 A 
ENDBRANCH  19  22
ENDBRANCH  15  19
ENDBRANCH   5  15
ENDBRANCH   8   5
BRANCH   9  12
ATOM     12  C   UNL     1      -4.945 -12.135  15.397  0.00  0.00    +0.114 C 
BRANCH  12   6
ATOM      6  N   UNL     1      -4.131 -12.332  16.587  0.00  0.00    -0.311 NA
ATOM     27  H   UNL     1      -3.708 -13.259  16.545  0.00  0.00    +0.122 HD
BRANCH   6  13
ATOM      3  O   UNL     1      -7.309 -11.216  19.093  0.00  0.00    -0.380 OA
ATOM     13  C   UNL     1      -4.937 -12.210  17.799  0.00  0.00    +0.058 C 
ATOM     17  C   UNL     1      -5.108 -10.738  18.179  0.00  0.00    +0.047 C 
ATOM     18  C   UNL     1      -6.309 -12.868  17.616  0.00  0.00    +0.047 C 
ATOM     20  C   UNL     1      -6.050 -10.604  19.372  0.00  0.00    +0.161 C 
ATOM     21  C   UNL     1      -7.184 -12.615  18.840  0.00  0.00    +0.161 C 
ENDBRANCH   6  13
ENDBRANCH  12   6
ENDBRANCH   9  12
BRANCH  11  14
ATOM     14  C   UNL     1      -0.973 -10.506  15.708  0.00  0.00    +0.190 C 
BRANCH  14   4
ATOM      4  O   UNL     1      -1.526 -11.054  16.893  0.00  0.00    -0.392 OA
ATOM     29  H   UNL     1      -1.675 -10.317  17.509  0.00  0.00    +0.210 HD
ENDBRANCH  14   4
ENDBRANCH  11  14
TORSDOF 10
ENDMDL
MODEL 2
REMARK VINA RESULT:      -5.5     20.643     22.799
REMARK  Name = 28962298
REMARK  11 active torsions:
REMARK  status: ('A' for Active; 'I' for Inactive)
REMARK    1  A    between atoms: O_2  and  C_10
REMARK    2  A    between atoms: O_4  and  C_14
REMARK    3  A    between atoms: N_5  and  C_8
REMARK    4  A    between atoms: N_5  and  C_15
REMARK    5  A    between atoms: N_5  and  C_16
REMARK    6  A    between atoms: N_6  and  C_12
REMARK    7  A    between atoms: N_6  and  C_13
REMARK    8  A    between atoms: C_9  and  C_12
REMARK    9  A    between atoms: C_11  and  C_14
REMARK   10  A    between atoms: C_15  and  C_19
REMARK   11  A    between atoms: C_19  and  C_22
REMARK                            x       y       z     vdW  Elec       q    Type
REMARK                         _______ _______ _______ _____ _____    ______ ____
ROOT
ATOM      1  O   UNL     1     -17.521   4.860  23.012  0.00  0.00    -0.366 OA
ATOM      8  C   UNL     1     -17.326   3.204  24.711  0.00  0.00    +0.118 C 
ATOM      9  C   UNL     1     -16.764   4.537  24.200  0.00  0.00    +0.152 C 
ATOM     10  C   UNL     1     -17.887   2.563  23.451  0.00  0.00    +0.165 C 
ATOM     11  C   UNL     1     -18.443   3.789  22.736  0.00  0.00    +0.174 C 
ENDROOT
BRANCH  10   2
ATOM      2  O   UNL     1     -16.861   1.959  22.673  0.00  0.00    -0.388 OA
ATOM     28  H   UNL     1     -16.008   2.270  23.018  0.00  0.00    +0.210 HD
ENDBRANCH  10   2
BRANCH   8   5
ATOM      5  N   UNL     1     -16.413   2.373  25.475  0.00  0.00    -0.297 NA
ATOM     16  C   UNL     1     -16.937   1.011  25.612  0.00  0.00    +0.105 C 
BRANCH   5  15
ATOM     15  C   UNL     1     -16.164   2.952  26.799  0.00  0.00    +0.090 C 
BRANCH  15  19
ATOM     19  C   UNL     1     -16.727   2.056  27.903  0.00  0.00    +0.071 C 
BRANCH  19  22
ATOM      7  N   UNL     1     -15.537   0.365  29.188  0.00  0.00    -0.260 NA
ATOM     22  C   UNL     1     -15.667   1.681  28.907  0.00  0.00    +0.042 A 
ATOM     23  C   UNL     1     -14.893   2.676  29.480  0.00  0.00    +0.023 A 
ATOM     24  C   UNL     1     -13.922   2.296  30.401  0.00  0.00    +0.003 A 
ATOM     25  C   UNL     1     -14.585   0.034  30.088  0.00  0.00    +0.111 A 
ATOM     26  C   UNL     1     -13.759   0.953  30.716  0.00  0.00    +0.020 A 
ENDBRANCH  19  22
ENDBRANCH  15  19
ENDBRANCH   5  15
ENDBRANCH   8   5
BRANCH   9  12
ATOM     12  C   UNL     1     -15.289   4.555  23.815  0.00  0.00    +0.114 C 
BRANCH  12   6
ATOM      6  N   UNL     1     -15.127   4.638  22.371  0.00  0.00    -0.311 NA
ATOM     27  H   UNL     1     -14.596   3.827  22.053  0.00  0.00    +0.122 HD
BRANCH   6  13
ATOM      3  O   UNL     1     -12.930   7.340  20.028  0.00  0.00    -0.380 OA
ATOM     13  C   UNL     1     -14.432   5.865  21.991  0.00  0.00    +0.058 C 
ATOM     17  C   UNL     1     -12.959   5.573  21.696  0.00  0.00    +0.047 C 
ATOM     18  C   UNL     1     -15.093   6.516  20.772  0.00  0.00    +0.047 C 
ATOM     20  C   UNL     1     -12.262   6.828  21.180  0.00  0.00    +0.161 C 
ATOM     21  C   UNL     1     -14.277   7.720  20.308  0.00  0.00    +0.161 C 
ENDBRANCH   6  13
ENDBRANCH  12   6
ENDBRANCH   9  12
BRANCH  11  14
ATOM     14  C   UNL     1     -18.612   3.648  21.233  0.00  0.00    +0.190 C 
BRANCH  14   4
ATOM      4  O   UNL     1     -17.389   3.987  20.600  0.00  0.00    -0.392 OA
ATOM     29  H   UNL     1     -17.473   4.902  20.284  0.00  0.00    +0.210 HD
ENDBRANCH  14   4
ENDBRANCH  11  14
TORSDOF 10
ENDMDL
MODEL 3
REMARK VINA RESULT:      -5.4      2.488      7.003
REMARK  Name = 28962298
REMARK  11 active torsions:
REMARK  status: ('A' for Active; 'I' for Inactive)
REMARK    1  A    between atoms: O_2  and  C_10
REMARK    2  A    between atoms: O_4  and  C_14
REMARK    3  A    between atoms: N_5  and  C_8
REMARK    4  A    between atoms: N_5  and  C_15
REMARK    5  A    between atoms: N_5  and  C_16
REMARK    6  A    between atoms: N_6  and  C_12
REMARK    7  A    between atoms: N_6  and  C_13
REMARK    8  A    between atoms: C_9  and  C_12
REMARK    9  A    between atoms: C_11  and  C_14
REMARK   10  A    between atoms: C_15  and  C_19
REMARK   11  A    between atoms: C_19  and  C_22
REMARK                            x       y       z     vdW  Elec       q    Type
REMARK                         _______ _______ _______ _____ _____    ______ ____
ROOT
ATOM      1  O   UNL     1      -3.931 -14.270  13.140  0.00  0.00    -0.366 OA
ATOM      8  C   UNL     1      -2.993 -12.651  14.610  0.00  0.00    +0.118 C 
ATOM      9  C   UNL     1      -4.210 -12.984  13.736  0.00  0.00    +0.152 C 
ATOM     10  C   UNL     1      -1.870 -13.433  13.947  0.00  0.00    +0.165 C 
ATOM     11  C   UNL     1      -2.614 -14.697  13.534  0.00  0.00    +0.174 C 
ENDROOT
BRANCH  10   2
ATOM      2  O   UNL     1      -1.370 -12.756  12.801  0.00  0.00    -0.388 OA
ATOM     28  H   UNL     1      -2.047 -12.119  12.516  0.00  0.00    +0.210 HD
ENDBRANCH  10   2
BRANCH   8   5
ATOM      5  N   UNL     1      -2.724 -11.240  14.824  0.00  0.00    -0.297 NA
ATOM     16  C   UNL     1      -1.386 -11.044  15.390  0.00  0.00    +0.105 C 
BRANCH   5  15
ATOM     15  C   UNL     1      -3.735 -10.643  15.702  0.00  0.00    +0.090 C 
BRANCH  15  19
ATOM     19  C   UNL     1      -3.592 -11.160  17.134  0.00  0.00    +0.071 C 
BRANCH  19  22
ATOM      7  N   UNL     1      -5.873 -10.325  17.299  0.00  0.00    -0.260 NA
ATOM     22  C   UNL     1      -4.872 -10.995  17.913  0.00  0.00    +0.042 A 
ATOM     23  C   UNL     1      -4.963 -11.525  19.189  0.00  0.00    +0.023 A 
ATOM     24  C   UNL     1      -6.158 -11.356  19.881  0.00  0.00    +0.003 A 
ATOM     25  C   UNL     1      -7.019 -10.180  18.002  0.00  0.00    +0.111 A 
ATOM     26  C   UNL     1      -7.209 -10.673  19.283  0.00  0.00    +0.020 A 
ENDBRANCH  19  22
ENDBRANCH  15  19
ENDBRANCH   5  15
ENDBRANCH   8   5
BRANCH   9  12
ATOM     12  C   UNL     1      -4.522 -12.016  12.600  0.00  0.00    +0.114 C 
BRANCH  12   6
ATOM      6  N   UNL     1      -4.123 -12.573  11.316  0.00  0.00    -0.311 NA
ATOM     27  H   UNL     1      -3.323 -13.191  11.460  0.00  0.00    +0.122 HD
BRANCH   6  13
ATOM      3  O   UNL     1      -4.240  -8.868   9.347  0.00  0.00    -0.380 OA
ATOM     13  C   UNL     1      -3.768 -11.515  10.374  0.00  0.00    +0.058 C 
ATOM     17  C   UNL     1      -4.957 -11.186   9.469  0.00  0.00    +0.047 C 
ATOM     18  C   UNL     1      -3.304 -10.255  11.111  0.00  0.00    +0.047 C 
ATOM     20  C   UNL     1      -4.627  -9.999   8.569  0.00  0.00    +0.161 C 
ATOM     21  C   UNL     1      -3.066  -9.120  10.120  0.00  0.00    +0.161 C 
ENDBRANCH   6  13
ENDBRANCH  12   6
ENDBRANCH   9  12
BRANCH  11  14
ATOM     14  C   UNL     1      -1.982 -15.486  12.401  0.00  0.00    +0.190 C 
BRANCH  14   4
ATOM      4  O   UNL     1      -2.343 -14.888  11.168  0.00  0.00    -0.392 OA
ATOM     29  H   UNL     1      -1.737 -15.234  10.492  0.00  0.00    +0.210 HD
ENDBRANCH  14   4
ENDBRANCH  11  14
TORSDOF 10
ENDMDL
MODEL 4
REMARK VINA RESULT:      -5.2     22.835     25.792
REMARK  Name = 28962298
REMARK  11 active torsions:
REMARK  status: ('A' for Active; 'I' for Inactive)
REMARK    1  A    between atoms: O_2  and  C_10
REMARK    2  A    between atoms: O_4  and  C_14
REMARK    3  A    between atoms: N_5  and  C_8
REMARK    4  A    between atoms: N_5  and  C_15
REMARK    5  A    between atoms: N_5  and  C_16
REMARK    6  A    between atoms: N_6  and  C_12
REMARK    7  A    between atoms: N_6  and  C_13
REMARK    8  A    between atoms: C_9  and  C_12
REMARK    9  A    between atoms: C_11  and  C_14
REMARK   10  A    between atoms: C_15  and  C_19
REMARK   11  A    between atoms: C_19  and  C_22
REMARK                            x       y       z     vdW  Elec       q    Type
REMARK                         _______ _______ _______ _____ _____    ______ ____
ROOT
ATOM      1  O   UNL     1       9.099   5.513   6.717  0.00  0.00    -0.366 OA
ATOM      8  C   UNL     1      10.531   7.410   6.587  0.00  0.00    +0.118 C 
ATOM      9  C   UNL     1       9.703   6.414   5.764  0.00  0.00    +0.152 C 
ATOM     10  C   UNL     1      10.857   6.623   7.848  0.00  0.00    +0.165 C 
ATOM     11  C   UNL     1       9.558   5.850   8.040  0.00  0.00    +0.174 C 
ENDROOT
BRANCH  10   2
ATOM      2  O   UNL     1      11.940   5.727   7.637  0.00  0.00    -0.388 OA
ATOM     28  H   UNL     1      11.960   5.107   8.386  0.00  0.00    +0.210 HD
ENDBRANCH  10   2
BRANCH   8   5
ATOM      5  N   UNL     1      11.673   8.005   5.916  0.00  0.00    -0.297 NA
ATOM     16  C   UNL     1      12.565   8.655   6.880  0.00  0.00    +0.105 C 
BRANCH   5  15
ATOM     15  C   UNL     1      11.236   8.971   4.902  0.00  0.00    +0.090 C 
BRANCH  15  19
ATOM     19  C   UNL     1      10.078   9.823   5.421  0.00  0.00    +0.071 C 
BRANCH  19  22
ATOM      7  N   UNL     1       9.026   9.012   3.380  0.00  0.00    -0.260 NA
ATOM     22  C   UNL     1       8.884   9.754   4.502  0.00  0.00    +0.042 A 
ATOM     23  C   UNL     1       7.727  10.434   4.840  0.00  0.00    +0.023 A 
ATOM     24  C   UNL     1       6.644  10.349   3.972  0.00  0.00    +0.003 A 
ATOM     25  C   UNL     1       7.953   8.953   2.560  0.00  0.00    +0.111 A 
ATOM     26  C   UNL     1       6.751   9.596   2.808  0.00  0.00    +0.020 A 
ENDBRANCH  19  22
ENDBRANCH  15  19
ENDBRANCH   5  15
ENDBRANCH   8   5
BRANCH   9  12
ATOM     12  C   UNL     1      10.463   5.561   4.754  0.00  0.00    +0.114 C 
BRANCH  12   6
ATOM      6  N   UNL     1      10.211   6.013   3.394  0.00  0.00    -0.311 NA
ATOM     27  H   UNL     1       9.262   5.745   3.130  0.00  0.00    +0.122 HD
BRANCH   6  13
ATOM      3  O   UNL     1      13.640   4.015   2.027  0.00  0.00    -0.380 OA
ATOM     13  C   UNL     1      11.169   5.426   2.461  0.00  0.00    +0.058 C 
ATOM     17  C   UNL     1      12.535   6.101   2.605  0.00  0.00    +0.047 C 
ATOM     18  C   UNL     1      11.303   3.917   2.687  0.00  0.00    +0.047 C 
ATOM     20  C   UNL     1      13.565   5.407   1.720  0.00  0.00    +0.161 C 
ATOM     21  C   UNL     1      12.402   3.344   1.797  0.00  0.00    +0.161 C 
ENDBRANCH   6  13
ENDBRANCH  12   6
ENDBRANCH   9  12
BRANCH  11  14
ATOM     14  C   UNL     1       9.668   4.583   8.870  0.00  0.00    +0.190 C 
BRANCH  14   4
ATOM      4  O   UNL     1      10.346   3.595   8.112  0.00  0.00    -0.392 OA
ATOM     29  H   UNL     1       9.671   3.098   7.620  0.00  0.00    +0.210 HD
ENDBRANCH  14   4
ENDBRANCH  11  14
TORSDOF 10
ENDMDL
MODEL 5
REMARK VINA RESULT:      -5.2      3.001      4.394
REMARK  Name = 28962298
REMARK  11 active torsions:
REMARK  status: ('A' for Active; 'I' for Inactive)
REMARK    1  A    between atoms: O_2  and  C_10
REMARK    2  A    between atoms: O_4  and  C_14
REMARK    3  A    between atoms: N_5  and  C_8
REMARK    4  A    between atoms: N_5  and  C_15
REMARK    5  A    between atoms: N_5  and  C_16
REMARK    6  A    between atoms: N_6  and  C_12
REMARK    7  A    between atoms: N_6  and  C_13
REMARK    8  A    between atoms: C_9  and  C_12
REMARK    9  A    between atoms: C_11  and  C_14
REMARK   10  A    between atoms: C_15  and  C_19
REMARK   11  A    between atoms: C_19  and  C_22
REMARK                            x       y       z     vdW  Elec       q    Type
REMARK                         _______ _______ _______ _____ _____    ______ ____
ROOT
ATOM      1  O   UNL     1      -5.114 -10.207  18.272  0.00  0.00    -0.366 OA
ATOM      8  C   UNL     1      -4.951 -11.859  16.566  0.00  0.00    +0.118 C 
ATOM      9  C   UNL     1      -5.026 -10.350  16.838  0.00  0.00    +0.152 C 
ATOM     10  C   UNL     1      -5.647 -12.460  17.778  0.00  0.00    +0.165 C 
ATOM     11  C   UNL     1      -5.169 -11.515  18.874  0.00  0.00    +0.174 C 
ENDROOT
BRANCH  10   2
ATOM      2  O   UNL     1      -7.062 -12.396  17.651  0.00  0.00    -0.388 OA
ATOM     28  H   UNL     1      -7.262 -11.995  16.788  0.00  0.00    +0.210 HD
ENDBRANCH  10   2
BRANCH   8   5
ATOM      5  N   UNL     1      -5.453 -12.305  15.279  0.00  0.00    -0.297 NA
ATOM     16  C   UNL     1      -5.547 -13.768  15.233  0.00  0.00    +0.105 C 
BRANCH   5  15
ATOM     15  C   UNL     1      -4.599 -11.821  14.190  0.00  0.00    +0.090 C 
BRANCH  15  19
ATOM     19  C   UNL     1      -5.438 -11.214  13.064  0.00  0.00    +0.071 C 
BRANCH  19  22
ATOM      7  N   UNL     1      -3.262 -10.788  12.057  0.00  0.00    -0.260 NA
ATOM     22  C   UNL     1      -4.578 -10.477  12.069  0.00  0.00    +0.042 A 
ATOM     23  C   UNL     1      -5.161  -9.540  11.233  0.00  0.00    +0.023 A 
ATOM     24  C   UNL     1      -4.340  -8.878  10.325  0.00  0.00    +0.003 A 
ATOM     25  C   UNL     1      -2.496 -10.124  11.163  0.00  0.00    +0.111 A 
ATOM     26  C   UNL     1      -2.983  -9.169  10.283  0.00  0.00    +0.020 A 
ENDBRANCH  19  22
ENDBRANCH  15  19
ENDBRANCH   5  15
ENDBRANCH   8   5
BRANCH   9  12
ATOM     12  C   UNL     1      -6.211  -9.605  16.235  0.00  0.00    +0.114 C 
BRANCH  12   6
ATOM      6  N   UNL     1      -7.233  -9.351  17.239  0.00  0.00    -0.311 NA
ATOM     27  H   UNL     1      -7.133 -10.035  17.990  0.00  0.00    +0.122 HD
BRANCH   6  13
ATOM      3  O   UNL     1     -10.572  -8.368  14.892  0.00  0.00    -0.380 OA
ATOM     13  C   UNL     1      -8.571  -9.443  16.661  0.00  0.00    +0.058 C 
ATOM     17  C   UNL     1      -9.389  -8.197  17.008  0.00  0.00    +0.047 C 
ATOM     18  C   UNL     1      -8.502  -9.618  15.140  0.00  0.00    +0.047 C 
ATOM     20  C   UNL     1     -10.741  -8.236  16.303  0.00  0.00    +0.161 C 
ATOM     21  C   UNL     1      -9.904  -9.578  14.539  0.00  0.00    +0.161 C 
ENDBRANCH   6  13
ENDBRANCH  12   6
ENDBRANCH   9  12
BRANCH  11  14
ATOM     14  C   UNL     1      -6.041 -11.460  20.115  0.00  0.00    +0.190 C 
BRANCH  14   4
ATOM      4  O   UNL     1      -6.926 -10.357  20.006  0.00  0.00    -0.392 OA
ATOM     29  H   UNL     1      -7.475 -10.507  19.218  0.00  0.00    +0.210 HD
ENDBRANCH  14   4
ENDBRANCH  11  14
TORSDOF 10
ENDMDL
MODEL 6
REMARK VINA RESULT:      -5.0      2.540      4.668
REMARK  Name = 28962298
REMARK  11 active torsions:
REMARK  status: ('A' for Active; 'I' for Inactive)
REMARK    1  A    between atoms: O_2  and  C_10
REMARK    2  A    between atoms: O_4  and  C_14
REMARK    3  A    between atoms: N_5  and  C_8
REMARK    4  A    between atoms: N_5  and  C_15
REMARK    5  A    between atoms: N_5  and  C_16
REMARK    6  A    between atoms: N_6  and  C_12
REMARK    7  A    between atoms: N_6  and  C_13
REMARK    8  A    between atoms: C_9  and  C_12
REMARK    9  A    between atoms: C_11  and  C_14
REMARK   10  A    between atoms: C_15  and  C_19
REMARK   11  A    between atoms: C_19  and  C_22
REMARK                            x       y       z     vdW  Elec       q    Type
REMARK                         _______ _______ _______ _____ _____    ______ ____
ROOT
ATOM      1  O   UNL     1      -7.710 -11.079  14.363  0.00  0.00    -0.366 OA
ATOM      8  C   UNL     1      -6.552 -11.000  12.285  0.00  0.00    +0.118 C 
ATOM      9  C   UNL     1      -6.440 -11.411  13.759  0.00  0.00    +0.152 C 
ATOM     10  C   UNL     1      -7.599  -9.897  12.315  0.00  0.00    +0.165 C 
ATOM     11  C   UNL     1      -8.545 -10.438  13.380  0.00  0.00    +0.174 C 
ENDROOT
BRANCH  10   2
ATOM      2  O   UNL     1      -7.040  -8.658  12.732  0.00  0.00    -0.388 OA
ATOM     28  H   UNL     1      -7.386  -8.463  13.620  0.00  0.00    +0.210 HD
ENDBRANCH  10   2
BRANCH   8   5
ATOM      5  N   UNL     1      -5.308 -10.655  11.619  0.00  0.00    -0.297 NA
ATOM     16  C   UNL     1      -5.560  -9.811  10.447  0.00  0.00    +0.105 C 
BRANCH   5  15
ATOM     15  C   UNL     1      -4.576 -11.862  11.222  0.00  0.00    +0.090 C 
BRANCH  15  19
ATOM     19  C   UNL     1      -3.070 -11.601  11.180  0.00  0.00    +0.071 C 
BRANCH  19  22
ATOM      7  N   UNL     1      -2.444 -12.598  13.311  0.00  0.00    -0.260 NA
ATOM     22  C   UNL     1      -2.492 -11.470  12.566  0.00  0.00    +0.042 A 
ATOM     23  C   UNL     1      -2.045 -10.234  13.001  0.00  0.00    +0.023 A 
ATOM     24  C   UNL     1      -1.516 -10.147  14.284  0.00  0.00    +0.003 A 
ATOM     25  C   UNL     1      -1.924 -12.475  14.553  0.00  0.00    +0.111 A 
ATOM     26  C   UNL     1      -1.451 -11.284  15.081  0.00  0.00    +0.020 A 
ENDBRANCH  19  22
ENDBRANCH  15  19
ENDBRANCH   5  15
ENDBRANCH   8   5
BRANCH   9  12
ATOM     12  C   UNL     1      -5.356 -10.723  14.581  0.00  0.00    +0.114 C 
BRANCH  12   6
ATOM      6  N   UNL     1      -5.929  -9.718  15.464  0.00  0.00    -0.311 NA
ATOM     27  H   UNL     1      -5.603  -8.797  15.167  0.00  0.00    +0.122 HD
BRANCH   6  13
ATOM      3  O   UNL     1      -5.571 -11.677  19.159  0.00  0.00    -0.380 OA
ATOM     13  C   UNL     1      -5.541  -9.956  16.851  0.00  0.00    +0.058 C 
ATOM     17  C   UNL     1      -6.782 -10.129  17.729  0.00  0.00    +0.047 C 
ATOM     18  C   UNL     1      -4.640 -11.189  16.967  0.00  0.00    +0.047 C 
ATOM     20  C   UNL     1      -6.378 -10.500  19.152  0.00  0.00    +0.161 C 
ATOM     21  C   UNL     1      -4.354 -11.501  18.433  0.00  0.00    +0.161 C 
ENDBRANCH   6  13
ENDBRANCH  12   6
ENDBRANCH   9  12
BRANCH  11  14
ATOM     14  C   UNL     1      -9.420  -9.402  14.064  0.00  0.00    +0.190 C 
BRANCH  14   4
ATOM      4  O   UNL     1      -8.648  -8.724  15.042  0.00  0.00    -0.392 OA
ATOM     29  H   UNL     1      -9.223  -8.583  15.813  0.00  0.00    +0.210 HD
ENDBRANCH  14   4
ENDBRANCH  11  14
TORSDOF 10
ENDMDL
MODEL 7
REMARK VINA RESULT:      -5.0     21.567     23.569
REMARK  Name = 28962298
REMARK  11 active torsions:
REMARK  status: ('A' for Active; 'I' for Inactive)
REMARK    1  A    between atoms: O_2  and  C_10
REMARK    2  A    between atoms: O_4  and  C_14
REMARK    3  A    between atoms: N_5  and  C_8
REMARK    4  A    between atoms: N_5  and  C_15
REMARK    5  A    between atoms: N_5  and  C_16
REMARK    6  A    between atoms: N_6  and  C_12
REMARK    7  A    between atoms: N_6  and  C_13
REMARK    8  A    between atoms: C_9  and  C_12
REMARK    9  A    between atoms: C_11  and  C_14
REMARK   10  A    between atoms: C_15  and  C_19
REMARK   11  A    between atoms: C_19  and  C_22
REMARK                            x       y       z     vdW  Elec       q    Type
REMARK                         _______ _______ _______ _____ _____    ______ ____
ROOT
ATOM      1  O   UNL     1     -10.611   8.630  15.333  0.00  0.00    -0.366 OA
ATOM      8  C   UNL     1     -10.706  10.954  15.841  0.00  0.00    +0.118 C 
ATOM      9  C   UNL     1     -10.190   9.592  16.325  0.00  0.00    +0.152 C 
ATOM     10  C   UNL     1     -11.907  10.581  14.986  0.00  0.00    +0.165 C 
ATOM     11  C   UNL     1     -11.399   9.301  14.331  0.00  0.00    +0.174 C 
ENDROOT
BRANCH  10   2
ATOM      2  O   UNL     1     -13.051  10.307  15.786  0.00  0.00    -0.388 OA
ATOM     28  H   UNL     1     -13.495   9.529  15.407  0.00  0.00    +0.210 HD
ENDBRANCH  10   2
BRANCH   8   5
ATOM      5  N   UNL     1     -10.962  11.946  16.871  0.00  0.00    -0.297 NA
ATOM     16  C   UNL     1     -11.849  13.000  16.370  0.00  0.00    +0.105 C 
BRANCH   5  15
ATOM     15  C   UNL     1      -9.708  12.530  17.355  0.00  0.00    +0.090 C 
BRANCH  15  19
ATOM     19  C   UNL     1      -8.793  12.908  16.190  0.00  0.00    +0.071 C 
BRANCH  19  22
ATOM      7  N   UNL     1      -7.861  14.613  17.657  0.00  0.00    -0.260 NA
ATOM     22  C   UNL     1      -7.624  13.741  16.651  0.00  0.00    +0.042 A 
ATOM     23  C   UNL     1      -6.392  13.578  16.040  0.00  0.00    +0.023 A 
ATOM     24  C   UNL     1      -5.334  14.361  16.489  0.00  0.00    +0.003 A 
ATOM     25  C   UNL     1      -6.809  15.357  18.067  0.00  0.00    +0.111 A 
ATOM     26  C   UNL     1      -5.538  15.269  17.521  0.00  0.00    +0.020 A 
ENDBRANCH  19  22
ENDBRANCH  15  19
ENDBRANCH   5  15
ENDBRANCH   8   5
BRANCH   9  12
ATOM     12  C   UNL     1     -10.705   9.105  17.675  0.00  0.00    +0.114 C 
BRANCH  12   6
ATOM      6  N   UNL     1     -11.557   7.936  17.517  0.00  0.00    -0.311 NA
ATOM     27  H   UNL     1     -12.103   8.041  16.662  0.00  0.00    +0.122 HD
BRANCH   6  13
ATOM      3  O   UNL     1     -13.064   8.377  21.410  0.00  0.00    -0.380 OA
ATOM     13  C   UNL     1     -12.452   7.782  18.661  0.00  0.00    +0.058 C 
ATOM     17  C   UNL     1     -11.717   7.118  19.827  0.00  0.00    +0.047 C 
ATOM     18  C   UNL     1     -13.020   9.135  19.100  0.00  0.00    +0.047 C 
ATOM     20  C   UNL     1     -12.613   7.069  21.060  0.00  0.00    +0.161 C 
ATOM     21  C   UNL     1     -13.845   8.974  20.374  0.00  0.00    +0.161 C 
ENDBRANCH   6  13
ENDBRANCH  12   6
ENDBRANCH   9  12
BRANCH  11  14
ATOM     14  C   UNL     1     -12.473   8.357  13.822  0.00  0.00    +0.190 C 
BRANCH  14   4
ATOM      4  O   UNL     1     -12.985   7.612  14.915  0.00  0.00    -0.392 OA
ATOM     29  H   UNL     1     -13.917   7.865  15.025  0.00  0.00    +0.210 HD
ENDBRANCH  14   4
ENDBRANCH  11  14
TORSDOF 10
ENDMDL
MODEL 8
REMARK VINA RESULT:      -4.9     23.850     26.765
REMARK  Name = 28962298
REMARK  11 active torsions:
REMARK  status: ('A' for Active; 'I' for Inactive)
REMARK    1  A    between atoms: O_2  and  C_10
REMARK    2  A    between atoms: O_4  and  C_14
REMARK    3  A    between atoms: N_5  and  C_8
REMARK    4  A    between atoms: N_5  and  C_15
REMARK    5  A    between atoms: N_5  and  C_16
REMARK    6  A    between atoms: N_6  and  C_12
REMARK    7  A    between atoms: N_6  and  C_13
REMARK    8  A    between atoms: C_9  and  C_12
REMARK    9  A    between atoms: C_11  and  C_14
REMARK   10  A    between atoms: C_15  and  C_19
REMARK   11  A    between atoms: C_19  and  C_22
REMARK                            x       y       z     vdW  Elec       q    Type
REMARK                         _______ _______ _______ _____ _____    ______ ____
ROOT
ATOM      1  O   UNL     1      13.235   3.208   0.482  0.00  0.00    -0.366 OA
ATOM      8  C   UNL     1      12.586   4.589   2.309  0.00  0.00    +0.118 C 
ATOM      9  C   UNL     1      12.065   3.694   1.176  0.00  0.00    +0.152 C 
ATOM     10  C   UNL     1      13.933   5.058   1.782  0.00  0.00    +0.165 C 
ATOM     11  C   UNL     1      14.410   3.799   1.068  0.00  0.00    +0.174 C 
ENDROOT
BRANCH  10   2
ATOM      2  O   UNL     1      13.787   6.127   0.855  0.00  0.00    -0.388 OA
ATOM     28  H   UNL     1      13.988   5.779  -0.030  0.00  0.00    +0.210 HD
ENDBRANCH  10   2
BRANCH   8   5
ATOM      5  N   UNL     1      11.693   5.644   2.755  0.00  0.00    -0.297 NA
ATOM     16  C   UNL     1      12.440   6.707   3.435  0.00  0.00    +0.105 C 
BRANCH   5  15
ATOM     15  C   UNL     1      10.656   5.110   3.643  0.00  0.00    +0.090 C 
BRANCH  15  19
ATOM     19  C   UNL     1       9.685   6.209   4.076  0.00  0.00    +0.071 C 
BRANCH  19  22
ATOM      7  N   UNL     1       9.996   5.177   6.259  0.00  0.00    -0.260 NA
ATOM     22  C   UNL     1       9.513   6.238   5.573  0.00  0.00    +0.042 A 
ATOM     23  C   UNL     1       8.885   7.321   6.163  0.00  0.00    +0.023 A 
ATOM     24  C   UNL     1       8.743   7.318   7.547  0.00  0.00    +0.003 A 
ATOM     25  C   UNL     1       9.839   5.208   7.601  0.00  0.00    +0.111 A 
ATOM     26  C   UNL     1       9.226   6.245   8.286  0.00  0.00    +0.020 A 
ENDBRANCH  19  22
ENDBRANCH  15  19
ENDBRANCH   5  15
ENDBRANCH   8   5
BRANCH   9  12
ATOM     12  C   UNL     1      11.166   4.357   0.138  0.00  0.00    +0.114 C 
BRANCH  12   6
ATOM      6  N   UNL     1      11.929   4.756  -1.034  0.00  0.00    -0.311 NA
ATOM     27  H   UNL     1      12.069   5.767  -1.006  0.00  0.00    +0.122 HD
BRANCH   6  13
ATOM      3  O   UNL     1       9.036   3.035  -3.542  0.00  0.00    -0.380 OA
ATOM     13  C   UNL     1      11.233   4.386  -2.264  0.00  0.00    +0.058 C 
ATOM     17  C   UNL     1      11.178   2.864  -2.408  0.00  0.00    +0.047 C 
ATOM     18  C   UNL     1       9.816   4.967  -2.290  0.00  0.00    +0.047 C 
ATOM     20  C   UNL     1      10.346   2.476  -3.625  0.00  0.00    +0.161 C 
ATOM     21  C   UNL     1       9.059   4.462  -3.515  0.00  0.00    +0.161 C 
ENDBRANCH   6  13
ENDBRANCH  12   6
ENDBRANCH   9  12
BRANCH  11  14
ATOM     14  C   UNL     1      15.454   4.016  -0.012  0.00  0.00    +0.190 C 
BRANCH  14   4
ATOM      4  O   UNL     1      14.796   4.216  -1.253  0.00  0.00    -0.392 OA
ATOM     29  H   UNL     1      14.582   5.162  -1.315  0.00  0.00    +0.210 HD
ENDBRANCH  14   4
ENDBRANCH  11  14
TORSDOF 10
ENDMDL
MODEL 9
REMARK VINA RESULT:      -4.8     20.580     22.998
REMARK  Name = 28962298
REMARK  11 active torsions:
REMARK  status: ('A' for Active; 'I' for Inactive)
REMARK    1  A    between atoms: O_2  and  C_10
REMARK    2  A    between atoms: O_4  and  C_14
REMARK    3  A    between atoms: N_5  and  C_8
REMARK    4  A    between atoms: N_5  and  C_15
REMARK    5  A    between atoms: N_5  and  C_16
REMARK    6  A    between atoms: N_6  and  C_12
REMARK    7  A    between atoms: N_6  and  C_13
REMARK    8  A    between atoms: C_9  and  C_12
REMARK    9  A    between atoms: C_11  and  C_14
REMARK   10  A    between atoms: C_15  and  C_19
REMARK   11  A    between atoms: C_19  and  C_22
REMARK                            x       y       z     vdW  Elec       q    Type
REMARK                         _______ _______ _______ _____ _____    ______ ____
ROOT
ATOM      1  O   UNL     1      -9.457  10.459  16.798  0.00  0.00    -0.366 OA
ATOM      8  C   UNL     1     -10.866  10.347  18.713  0.00  0.00    +0.118 C 
ATOM      9  C   UNL     1     -10.099   9.512  17.680  0.00  0.00    +0.152 C 
ATOM     10  C   UNL     1     -11.135  11.648  17.972  0.00  0.00    +0.165 C 
ATOM     11  C   UNL     1      -9.839  11.794  17.183  0.00  0.00    +0.174 C 
ENDROOT
BRANCH  10   2
ATOM      2  O   UNL     1     -12.241  11.524  17.087  0.00  0.00    -0.388 OA
ATOM     28  H   UNL     1     -13.046  11.460  17.629  0.00  0.00    +0.210 HD
ENDBRANCH  10   2
BRANCH   8   5
ATOM      5  N   UNL     1     -12.034   9.720  19.307  0.00  0.00    -0.297 NA
ATOM     16  C   UNL     1     -12.969  10.730  19.810  0.00  0.00    +0.105 C 
BRANCH   5  15
ATOM     15  C   UNL     1     -11.644   8.811  20.389  0.00  0.00    +0.090 C 
BRANCH  15  19
ATOM     19  C   UNL     1     -12.107   7.382  20.099  0.00  0.00    +0.071 C 
BRANCH  19  22
ATOM      7  N   UNL     1     -12.820   5.614  21.612  0.00  0.00    -0.260 NA
ATOM     22  C   UNL     1     -13.037   6.873  21.170  0.00  0.00    +0.042 A 
ATOM     23  C   UNL     1     -14.045   7.697  21.641  0.00  0.00    +0.023 A 
ATOM     24  C   UNL     1     -14.885   7.197  22.630  0.00  0.00    +0.003 A 
ATOM     25  C   UNL     1     -13.657   5.162  22.573  0.00  0.00    +0.111 A 
ATOM     26  C   UNL     1     -14.695   5.907  23.110  0.00  0.00    +0.020 A 
ENDBRANCH  19  22
ENDBRANCH  15  19
ENDBRANCH   5  15
ENDBRANCH   8   5
BRANCH   9  12
ATOM     12  C   UNL     1     -10.926   8.572  16.809  0.00  0.00    +0.114 C 
BRANCH  12   6
ATOM      6  N   UNL     1     -10.984   9.049  15.436  0.00  0.00    -0.311 NA
ATOM     27  H   UNL     1     -10.802  10.053  15.429  0.00  0.00    +0.122 HD
BRANCH   6  13
ATOM      3  O   UNL     1     -14.405   6.908  14.281  0.00  0.00    -0.380 OA
ATOM     13  C   UNL     1     -12.291   8.780  14.842  0.00  0.00    +0.058 C 
ATOM     17  C   UNL     1     -12.172   7.709  13.755  0.00  0.00    +0.047 C 
ATOM     18  C   UNL     1     -13.298   8.335  15.908  0.00  0.00    +0.047 C 
ATOM     20  C   UNL     1     -13.552   7.339  13.221  0.00  0.00    +0.161 C 
ATOM     21  C   UNL     1     -14.616   7.930  15.254  0.00  0.00    +0.161 C 
ENDBRANCH   6  13
ENDBRANCH  12   6
ENDBRANCH   9  12
BRANCH  11  14
ATOM     14  C   UNL     1      -9.923  12.668  15.944  0.00  0.00    +0.190 C 
BRANCH  14   4
ATOM      4  O   UNL     1     -10.416  11.890  14.866  0.00  0.00    -0.392 OA
ATOM     29  H   UNL     1     -11.348  12.134  14.738  0.00  0.00    +0.210 HD
ENDBRANCH  14   4
ENDBRANCH  11  14
TORSDOF 10
ENDMDL
MODEL 10
REMARK VINA RESULT:      -4.8     23.248     25.816
REMARK  Name = 28962298
REMARK  11 active torsions:
REMARK  status: ('A' for Active; 'I' for Inactive)
REMARK    1  A    between atoms: O_2  and  C_10
REMARK    2  A    between atoms: O_4  and  C_14
REMARK    3  A    between atoms: N_5  and  C_8
REMARK    4  A    between atoms: N_5  and  C_15
REMARK    5  A    between atoms: N_5  and  C_16
REMARK    6  A    between atoms: N_6  and  C_12
REMARK    7  A    between atoms: N_6  and  C_13
REMARK    8  A    between atoms: C_9  and  C_12
REMARK    9  A    between atoms: C_11  and  C_14
REMARK   10  A    between atoms: C_15  and  C_19
REMARK   11  A    between atoms: C_19  and  C_22
REMARK                            x       y       z     vdW  Elec       q    Type
REMARK                         _______ _______ _______ _____ _____    ______ ____
ROOT
ATOM      1  O   UNL     1       9.442   9.983   5.904  0.00  0.00    -0.366 OA
ATOM      8  C   UNL     1      11.393   9.008   4.951  0.00  0.00    +0.118 C 
ATOM      9  C   UNL     1       9.858   8.991   4.941  0.00  0.00    +0.152 C 
ATOM     10  C   UNL     1      11.721   9.518   6.346  0.00  0.00    +0.165 C 
ATOM     11  C   UNL     1      10.609  10.541   6.539  0.00  0.00    +0.174 C 
ENDROOT
BRANCH  10   2
ATOM      2  O   UNL     1      11.616   8.483   7.316  0.00  0.00    -0.388 OA
ATOM     28  H   UNL     1      11.826   8.871   8.183  0.00  0.00    +0.210 HD
ENDBRANCH  10   2
BRANCH   8   5
ATOM      5  N   UNL     1      12.051   7.769   4.573  0.00  0.00    -0.297 NA
ATOM     16  C   UNL     1      13.463   7.788   4.966  0.00  0.00    +0.105 C 
BRANCH   5  15
ATOM     15  C   UNL     1      11.933   7.535   3.130  0.00  0.00    +0.090 C 
BRANCH  15  19
ATOM     19  C   UNL     1      11.373   6.141   2.846  0.00  0.00    +0.071 C 
BRANCH  19  22
ATOM      7  N   UNL     1      12.073   3.933   2.095  0.00  0.00    -0.260 NA
ATOM     22  C   UNL     1      12.429   5.225   2.281  0.00  0.00    +0.042 A 
ATOM     23  C   UNL     1      13.682   5.734   1.985  0.00  0.00    +0.023 A 
ATOM     24  C   UNL     1      14.632   4.863   1.464  0.00  0.00    +0.003 A 
ATOM     25  C   UNL     1      13.024   3.116   1.588  0.00  0.00    +0.111 A 
ATOM     26  C   UNL     1      14.305   3.528   1.259  0.00  0.00    +0.020 A 
ENDBRANCH  19  22
ENDBRANCH  15  19
ENDBRANCH   5  15
ENDBRANCH   8   5
BRANCH   9  12
ATOM     12  C   UNL     1       9.186   7.677   5.325  0.00  0.00    +0.114 C 
BRANCH  12   6
ATOM      6  N   UNL     1       8.748   7.702   6.713  0.00  0.00    -0.311 NA
ATOM     27  H   UNL     1       9.363   8.323   7.240  0.00  0.00    +0.122 HD
BRANCH   6  13
ATOM      3  O   UNL     1      10.269   4.276   8.602  0.00  0.00    -0.380 OA
ATOM     13  C   UNL     1       8.778   6.364   7.296  0.00  0.00    +0.058 C 
ATOM     17  C   UNL     1       9.778   5.479   6.548  0.00  0.00    +0.047 C 
ATOM     18  C   UNL     1       9.136   6.420   8.784  0.00  0.00    +0.047 C 
ATOM     20  C   UNL     1       9.900   4.121   7.232  0.00  0.00    +0.161 C 
ATOM     21  C   UNL     1       9.294   5.009   9.344  0.00  0.00    +0.161 C 
ENDBRANCH   6  13
ENDBRANCH  12   6
ENDBRANCH   9  12
BRANCH  11  14
ATOM     14  C   UNL     1      10.279  10.884   7.981  0.00  0.00    +0.190 C 
BRANCH  14   4
ATOM      4  O   UNL     1       9.371   9.919   8.486  0.00  0.00    -0.392 OA
ATOM     29  H   UNL     1       9.859   9.372   9.124  0.00  0.00    +0.210 HD
ENDBRANCH  14   4
ENDBRANCH  11  14
TORSDOF 10
ENDMDL
