REMARK  Name = 7135091
REMARK  12 active torsions:
REMARK  status: ('A' for Active; 'I' for Inactive)
REMARK    1  A    between atoms: O_2  and  C_16
REMARK    2  A    between atoms: O_3  and  C_21
REMARK    3  A    between atoms: C_11  and  C_19
REMARK    4  A    between atoms: C_13  and  C_21
REMARK    5  A    between atoms: C_13  and  C_22
REMARK    6  A    between atoms: C_14  and  C_24
REMARK    7  A    between atoms: C_24  and  C_25
REMARK    8  A    between atoms: C_31  and  C_32
REMARK    9  A    between atoms: C_32  and  C_34
REMARK   10  A    between atoms: C_32  and  C_35
REMARK   11  A    between atoms: C_32  and  C_36
REMARK   12  A    between atoms: C_33  and  C_37
REMARK                            x       y       z     vdW  Elec       q    Type
REMARK                         _______ _______ _______ _____ _____    ______ ____
ROOT
ATOM      1  S   UNL     1       1.627   3.525  -0.365  0.00  0.00    -0.057 S 
ATOM      5  O   UNL     1      -2.923   2.838   0.238  0.00  0.00    -0.275 OA
ATOM      7  N   UNL     1      -0.198   1.745   0.076  0.00  0.00    -0.229 NA
ATOM      9  N   UNL     1      -0.937   4.028  -0.145  0.00  0.00    -0.264 N 
ATOM     11  C   UNL     1       2.533  -0.954  -0.280  0.00  0.00    -0.019 C 
ATOM     12  C   UNL     1       3.669   0.009   0.284  0.00  0.00    +0.011 C 
ATOM     13  C   UNL     1       5.147  -0.542   0.270  0.00  0.00    +0.021 C 
ATOM     14  C   UNL     1       1.122  -0.400   0.225  0.00  0.00    +0.054 C 
ATOM     15  C   UNL     1       2.733  -2.380   0.297  0.00  0.00    +0.010 C 
ATOM     16  C   UNL     1       5.159  -1.991   0.835  0.00  0.00    +0.123 C 
ATOM     17  C   UNL     1       3.531   1.448  -0.290  0.00  0.00    +0.049 C 
ATOM     18  C   UNL     1       4.152  -2.911   0.153  0.00  0.00    +0.032 C 
ATOM     19  C   UNL     1       2.530  -1.040  -1.826  0.00  0.00    +0.012 C 
ATOM     20  C   UNL     1       1.018   1.089   0.016  0.00  0.00    +0.058 A 
ATOM     22  C   UNL     1       6.022   0.330   1.214  0.00  0.00    +0.016 C 
ATOM     23  C   UNL     1       2.113   1.902  -0.195  0.00  0.00    +0.015 A 
ATOM     26  C   UNL     1       0.001   3.030  -0.118  0.00  0.00    +0.165 A 
ATOM     31  C   UNL     1      -2.328   3.894   0.030  0.00  0.00    +0.224 C 
ATOM     40  H   UNL     1      -0.556   4.954  -0.312  0.00  0.00    +0.157 HD
ENDROOT
BRANCH  31  32
ATOM     32  C   UNL     1      -3.103   5.233  -0.064  0.00  0.00    +0.039 C 
ATOM     34  C   UNL     1      -2.875   5.861  -1.452  0.00  0.00    +0.020 C 
ATOM     35  C   UNL     1      -2.593   6.216   1.002  0.00  0.00    +0.020 C 
ATOM     36  C   UNL     1      -4.609   4.989   0.116  0.00  0.00    +0.020 C 
ENDBRANCH  31  32
BRANCH  16   2
ATOM      2  O   UNL     1       6.460  -2.566   0.715  0.00  0.00    -0.391 OA
ATOM     38  H   UNL     1       6.430  -3.449   1.122  0.00  0.00    +0.210 HD
ENDBRANCH  16   2
BRANCH  13  21
ATOM     21  C   UNL     1       5.839  -0.484  -1.111  0.00  0.00    +0.165 C 
BRANCH  21   3
ATOM      3  O   UNL     1       7.144  -0.996  -0.961  0.00  0.00    -0.394 OA
ATOM     39  H   UNL     1       7.576  -0.946  -1.831  0.00  0.00    +0.209 HD
ENDBRANCH  21   3
ENDBRANCH  13  21
BRANCH  14  24
ATOM     24  C   UNL     1      -0.096  -1.135  -0.353  0.00  0.00    +0.106 C 
BRANCH  24  25
ATOM      4  O   UNL     1      -1.109  -0.428   1.669  0.00  0.00    -0.276 OA
ATOM      6  O   UNL     1      -5.782  -4.829  -1.474  0.00  0.00    -0.276 OA
ATOM      8  N   UNL     1      -2.443  -1.649   0.213  0.00  0.00    -0.298 N 
ATOM     10  N   UNL     1      -4.429  -3.659   0.008  0.00  0.00    -0.299 N 
ATOM     25  C   UNL     1      -1.256  -1.033   0.605  0.00  0.00    +0.216 C 
ATOM     27  C   UNL     1      -2.672  -2.314  -1.077  0.00  0.00    +0.126 C 
ATOM     28  C   UNL     1      -3.617  -1.599   1.088  0.00  0.00    +0.126 C 
ATOM     29  C   UNL     1      -3.256  -3.709  -0.868  0.00  0.00    +0.126 C 
ATOM     30  C   UNL     1      -4.201  -2.994   1.298  0.00  0.00    +0.126 C 
ATOM     33  C   UNL     1      -5.616  -4.277  -0.383  0.00  0.00    +0.213 C 
ATOM     37  C   UNL     1      -6.751  -4.247   0.609  0.00  0.00    +0.109 C 
ENDBRANCH  24  25
ENDBRANCH  14  24
TORSDOF 6
