REMARK  Name = 11911975
REMARK  4 active torsions:
REMARK  status: ('A' for Active; 'I' for Inactive)
REMARK    1  A    between atoms: N_3  and  C_13
REMARK    2  A    between atoms: C_13  and  C_18
REMARK    3  A    between atoms: C_16  and  C_19
REMARK    4  A    between atoms: C_23  and  C_30
REMARK                            x       y       z     vdW  Elec       q    Type
REMARK                         _______ _______ _______ _____ _____    ______ ____
ROOT
ATOM      2  O   UNL     1      -1.425   2.076  -1.474  0.00  0.00    -0.267 OA
ATOM      3  N   UNL     1       3.417   1.043  -0.687  0.00  0.00    -0.297 NA
ATOM      4  N   UNL     1       0.479   2.151  -0.128  0.00  0.00    -0.311 N 
ATOM      6  C   UNL     1       2.605   3.412  -0.804  0.00  0.00    +0.024 C 
ATOM      7  C   UNL     1       2.529   2.217   1.332  0.00  0.00    +0.050 C 
ATOM      8  C   UNL     1       2.807   3.576   0.696  0.00  0.00    +0.017 C 
ATOM      9  C   UNL     1       3.571   2.341  -1.354  0.00  0.00    +0.090 C 
ATOM     10  C   UNL     1       3.523   1.173   0.774  0.00  0.00    +0.094 C 
ATOM     11  C   UNL     1       1.133   3.070  -1.070  0.00  0.00    +0.130 C 
ATOM     12  C   UNL     1       1.099   1.782   1.069  0.00  0.00    +0.026 A 
ATOM     14  C   UNL     1       0.441   1.032   1.968  0.00  0.00    +0.022 A 
ATOM     15  C   UNL     1      -0.834   1.747  -0.444  0.00  0.00    +0.260 A 
ATOM     16  C   UNL     1      -1.530   0.881   0.569  0.00  0.00    +0.053 A 
ATOM     17  C   UNL     1      -0.895   0.573   1.710  0.00  0.00    +0.016 A 
ENDROOT
BRANCH  16  19
ATOM      1  S   UNL     1      -3.072  -1.106  -0.458  0.00  0.00    -0.088 S 
ATOM     19  C   UNL     1      -2.852   0.396   0.327  0.00  0.00    +0.026 A 
ATOM     22  C   UNL     1      -4.060   0.982   0.647  0.00  0.00    +0.024 A 
ATOM     25  C   UNL     1      -5.192   0.196   0.246  0.00  0.00    -0.010 A 
ATOM     26  C   UNL     1      -4.791  -0.988  -0.380  0.00  0.00    +0.020 A 
ATOM     28  C   UNL     1      -6.580   0.442   0.388  0.00  0.00    +0.009 A 
ATOM     29  C   UNL     1      -5.730  -1.922  -0.860  0.00  0.00    +0.015 A 
ATOM     31  C   UNL     1      -7.513  -0.483  -0.088  0.00  0.00    +0.001 A 
ATOM     32  C   UNL     1      -7.090  -1.652  -0.705  0.00  0.00    +0.001 A 
ENDBRANCH  16  19
BRANCH   3  13
ATOM     13  C   UNL     1       4.383   0.074  -1.198  0.00  0.00    +0.119 C 
BRANCH  13  18
ATOM     18  C   UNL     1       4.174  -1.292  -0.609  0.00  0.00    -0.032 A 
ATOM     20  C   UNL     1       2.889  -1.814  -0.521  0.00  0.00    +0.023 A 
ATOM     21  C   UNL     1       5.269  -2.020  -0.157  0.00  0.00    +0.005 A 
ATOM     23  C   UNL     1       2.696  -3.082   0.026  0.00  0.00    +0.052 A 
ATOM     24  C   UNL     1       5.076  -3.288   0.390  0.00  0.00    +0.002 A 
ATOM     27  C   UNL     1       3.789  -3.820   0.481  0.00  0.00    +0.019 A 
BRANCH  23  30
ATOM      5  N   UNL     1       0.307  -4.070   0.195  0.00  0.00    -0.191 NA
ATOM     30  C   UNL     1       1.378  -3.627   0.119  0.00  0.00    +0.099 C 
ENDBRANCH  23  30
ENDBRANCH  13  18
ENDBRANCH   3  13
TORSDOF 4
