REMARK  Name = 26763399
REMARK  8 active torsions:
REMARK  status: ('A' for Active; 'I' for Inactive)
REMARK    1  A    between atoms: O_6  and  C_15
REMARK    2  A    between atoms: O_6  and  C_19
REMARK    3  A    between atoms: O_8  and  C_20
REMARK    4  A    between atoms: O_8  and  C_27
REMARK    5  A    between atoms: N_10  and  C_14
REMARK    6  A    between atoms: N_11  and  C_21
REMARK    7  A    between atoms: C_19  and  C_20
REMARK    8  A    between atoms: C_24  and  C_28
REMARK                            x       y       z     vdW  Elec       q    Type
REMARK                         _______ _______ _______ _____ _____    ______ ____
ROOT
ATOM      7  O   UNL     1      -1.504  -2.516   0.124  0.00  0.00    -0.252 OA
ATOM     10  N   UNL     1      -0.049  -0.950  -0.756  0.00  0.00    -0.292 N 
ATOM     11  N   UNL     1      -2.238  -0.349  -0.400  0.00  0.00    -0.269 N 
ATOM     18  C   UNL     1      -1.301  -1.381  -0.299  0.00  0.00    +0.304 C 
ATOM     29  H   UNL     1       0.055   0.024  -1.026  0.00  0.00    +0.151 HD
ATOM     30  H   UNL     1      -1.904   0.535  -0.775  0.00  0.00    +0.156 HD
ENDROOT
BRANCH  10  14
ATOM      4  O   UNL     1       2.985  -0.420  -1.301  0.00  0.00    -0.369 OA
ATOM      5  O   UNL     1       2.802  -2.754   0.679  0.00  0.00    -0.369 OA
ATOM     12  C   UNL     1       1.952  -1.607   0.473  0.00  0.00    +0.172 C 
ATOM     13  C   UNL     1       2.860  -0.443   0.131  0.00  0.00    +0.180 C 
ATOM     14  C   UNL     1       1.119  -1.796  -0.774  0.00  0.00    +0.131 C 
ATOM     15  C   UNL     1       4.156  -0.833   0.799  0.00  0.00    +0.176 C 
ATOM     16  C   UNL     1       2.084  -1.383  -1.871  0.00  0.00    +0.185 C 
ATOM     17  C   UNL     1       4.173  -2.333   0.614  0.00  0.00    +0.194 C 
BRANCH  15   6
ATOM      6  O   UNL     1       5.290  -0.216   0.232  0.00  0.00    -0.360 OA
BRANCH   6  19
ATOM     19  C   UNL     1       5.519   1.081   0.777  0.00  0.00    +0.280 C 
BRANCH  19  20
ATOM      9  O   UNL     1       7.427   1.113  -0.719  0.00  0.00    -0.248 OA
ATOM     20  C   UNL     1       6.741   1.674   0.125  0.00  0.00    +0.333 C 
BRANCH  20   8
ATOM      8  O   UNL     1       6.950   2.925   0.629  0.00  0.00    -0.466 OA
ATOM     27  C   UNL     1       8.085   3.620   0.101  0.00  0.00    +0.280 C 
ENDBRANCH  20   8
ENDBRANCH  19  20
ENDBRANCH   6  19
ENDBRANCH  15   6
ENDBRANCH  10  14
BRANCH  11  21
ATOM     21  C   UNL     1      -3.606  -0.381  -0.044  0.00  0.00    +0.035 A 
ATOM     22  C   UNL     1      -4.399   0.753  -0.217  0.00  0.00    +0.035 A 
ATOM     23  C   UNL     1      -4.163  -1.548   0.479  0.00  0.00    +0.023 A 
ATOM     24  C   UNL     1      -5.749   0.721   0.133  0.00  0.00    +0.057 A 
ATOM     25  C   UNL     1      -5.513  -1.580   0.830  0.00  0.00    +0.002 A 
ATOM     26  C   UNL     1      -6.306  -0.445   0.657  0.00  0.00    +0.012 A 
BRANCH  24  28
ATOM      1  F   UNL     1      -7.889   1.736   0.340  0.00  0.00    -0.166 F 
ATOM      2  F   UNL     1      -6.163   3.018   0.657  0.00  0.00    -0.166 F 
ATOM      3  F   UNL     1      -6.668   2.361  -1.347  0.00  0.00    -0.166 F 
ATOM     28  C   UNL     1      -6.597   1.934  -0.051  0.00  0.00    +0.417 C 
ENDBRANCH  24  28
ENDBRANCH  11  21
TORSDOF 7
