REMARK  Name = 40586239
REMARK  7 active torsions:
REMARK  status: ('A' for Active; 'I' for Inactive)
REMARK    1  A    between atoms: O_3  and  C_13
REMARK    2  A    between atoms: O_3  and  C_22
REMARK    3  A    between atoms: N_7  and  C_12
REMARK    4  A    between atoms: N_8  and  C_16
REMARK    5  A    between atoms: N_9  and  C_24
REMARK    6  A    between atoms: C_29  and  C_30
REMARK    7  A    between atoms: C_30  and  C_31
REMARK                            x       y       z     vdW  Elec       q    Type
REMARK                         _______ _______ _______ _____ _____    ______ ____
ROOT
ATOM      1  O   UNL     1       1.819  -0.784  -1.288  0.00  0.00    -0.368 OA
ATOM      2  O   UNL     1       1.043  -3.152   0.500  0.00  0.00    -0.368 OA
ATOM     10  C   UNL     1       0.458  -1.843   0.340  0.00  0.00    +0.173 C 
ATOM     11  C   UNL     1       1.603  -0.873   0.131  0.00  0.00    +0.192 C 
ATOM     12  C   UNL     1      -0.316  -1.774  -0.956  0.00  0.00    +0.131 C 
ATOM     13  C   UNL     1       2.749  -1.565   0.829  0.00  0.00    +0.235 C 
ATOM     14  C   UNL     1       0.779  -1.500  -1.971  0.00  0.00    +0.185 C 
ATOM     15  C   UNL     1       2.471  -3.021   0.531  0.00  0.00    +0.207 C 
ENDROOT
BRANCH  12   7
ATOM      5  O   UNL     1      -3.083  -1.992  -0.242  0.00  0.00    -0.252 OA
ATOM      7  N   UNL     1      -1.287  -0.707  -0.929  0.00  0.00    -0.292 N 
ATOM      9  N   UNL     1      -3.326   0.310  -0.634  0.00  0.00    -0.269 N 
ATOM     23  C   UNL     1      -2.626  -0.898  -0.567  0.00  0.00    +0.304 C 
ATOM     32  H   UNL     1      -0.971   0.239  -1.120  0.00  0.00    +0.151 HD
ATOM     34  H   UNL     1      -2.797   1.128  -0.925  0.00  0.00    +0.156 HD
BRANCH   9  24
ATOM     24  C   UNL     1      -4.692   0.539  -0.348  0.00  0.00    +0.035 A 
ATOM     25  C   UNL     1      -5.506  -0.518   0.058  0.00  0.00    +0.024 A 
ATOM     26  C   UNL     1      -5.225   1.822  -0.473  0.00  0.00    +0.024 A 
ATOM     27  C   UNL     1      -6.854  -0.292   0.339  0.00  0.00    +0.013 A 
ATOM     28  C   UNL     1      -6.572   2.048  -0.192  0.00  0.00    +0.013 A 
ATOM     29  C   UNL     1      -7.387   0.991   0.214  0.00  0.00    +0.017 A 
BRANCH  29  30
ATOM      6  O   UNL     1      -9.191   2.323   0.945  0.00  0.00    -0.292 OA
ATOM     30  C   UNL     1      -8.792   1.225   0.507  0.00  0.00    +0.160 C 
ATOM     31  C   UNL     1      -9.818   0.120   0.284  0.00  0.00    +0.091 C 
ENDBRANCH  29  30
ENDBRANCH   9  24
ENDBRANCH  12   7
BRANCH  13   3
ATOM      3  O   UNL     1       4.017  -1.160   0.366  0.00  0.00    -0.442 OA
BRANCH   3  22
ATOM      4  O   UNL     1       4.130   0.428   2.021  0.00  0.00    -0.226 OA
ATOM      8  N   UNL     1       5.855   0.156   0.493  0.00  0.00    -0.278 N 
ATOM     22  C   UNL     1       4.628  -0.135   1.051  0.00  0.00    +0.401 C 
ATOM     33  H   UNL     1       6.124  -0.360  -0.339  0.00  0.00    +0.152 HD
BRANCH   8  16
ATOM     16  C   UNL     1       6.738   1.188   0.989  0.00  0.00    +0.076 C 
ATOM     17  C   UNL     1       8.207   0.805   0.776  0.00  0.00    +0.022 C 
ATOM     18  C   UNL     1       6.418   2.543   0.349  0.00  0.00    +0.022 C 
ATOM     19  C   UNL     1       8.621   0.873  -0.694  0.00  0.00    +0.002 C 
ATOM     20  C   UNL     1       6.836   2.608  -1.121  0.00  0.00    +0.002 C 
ATOM     21  C   UNL     1       8.303   2.234  -1.306  0.00  0.00    +0.000 C 
ENDBRANCH   8  16
ENDBRANCH   3  22
ENDBRANCH  13   3
TORSDOF 6
