REMARK  Name = 38027204
REMARK  12 active torsions:
REMARK  status: ('A' for Active; 'I' for Inactive)
REMARK    1  A    between atoms: N_3  and  C_10
REMARK    2  A    between atoms: N_4  and  C_22
REMARK    3  A    between atoms: N_4  and  C_23
REMARK    4  A    between atoms: C_5  and  C_9
REMARK    5  A    between atoms: C_6  and  C_10
REMARK    6  A    between atoms: C_8  and  C_16
REMARK    7  A    between atoms: C_9  and  C_17
REMARK    8  A    between atoms: C_9  and  C_18
REMARK    9  A    between atoms: C_11  and  C_20
REMARK   10  A    between atoms: C_13  and  C_19
REMARK   11  A    between atoms: C_16  and  C_21
REMARK   12  A    between atoms: C_22  and  C_24
REMARK                            x       y       z     vdW  Elec       q    Type
REMARK                         _______ _______ _______ _____ _____    ______ ____
ROOT
ATOM      5  C   UNL     1       1.972   0.726  -1.219  0.00  0.00    +0.000 C 
ATOM      6  C   UNL     1       3.414   0.959  -0.703  0.00  0.00    +0.032 C 
ATOM      7  C   UNL     1       1.089   1.945  -0.911  0.00  0.00    +0.012 C 
ATOM      8  C   UNL     1       1.024   2.250   0.598  0.00  0.00    +0.023 C 
ATOM     11  C   UNL     1       2.399   2.232   1.236  0.00  0.00    -0.073 C 
ATOM     12  C   UNL     1       3.458   1.662   0.633  0.00  0.00    -0.022 C 
ATOM     20  C   UNL     1       2.538   2.924   2.563  0.00  0.00    +0.039 C 
ENDROOT
BRANCH   5   9
ATOM      9  C   UNL     1       1.947   0.434  -2.723  0.00  0.00    -0.013 C 
ATOM     17  C   UNL     1       0.694  -0.355  -3.090  0.00  0.00    +0.007 C 
ATOM     18  C   UNL     1       2.021   1.733  -3.518  0.00  0.00    +0.007 C 
ENDBRANCH   5   9
BRANCH   6  10
ATOM     10  C   UNL     1       4.189  -0.361  -0.611  0.00  0.00    +0.112 C 
BRANCH  10   3
ATOM      1  O   UNL     1       3.078  -3.022  -0.989  0.00  0.00    -0.276 OA
ATOM      3  N   UNL     1       3.618  -1.216   0.382  0.00  0.00    -0.315 N 
ATOM     19  C   UNL     1       3.108  -2.480   0.110  0.00  0.00    +0.216 C 
ATOM     30  H   UNL     1       3.625  -0.901   1.348  0.00  0.00    +0.149 HD
BRANCH  19  13
ATOM     13  C   UNL     1       2.563  -3.199   1.299  0.00  0.00    +0.075 C 
ATOM     14  C   UNL     1       1.147  -2.941   1.723  0.00  0.00    +0.013 C 
ATOM     15  C   UNL     1       1.515  -4.255   1.098  0.00  0.00    +0.013 C 
ENDBRANCH  19  13
ENDBRANCH  10   3
ENDBRANCH   6  10
BRANCH   8  16
ATOM     16  C   UNL     1       0.073   1.287   1.316  0.00  0.00    +0.103 C 
BRANCH  16  21
ATOM      2  O   UNL     1      -1.699   2.546   0.305  0.00  0.00    -0.276 OA
ATOM      4  N   UNL     1      -2.318   0.768   1.660  0.00  0.00    -0.300 N 
ATOM     21  C   UNL     1      -1.385   1.604   1.038  0.00  0.00    +0.216 C 
ATOM     23  C   UNL     1      -1.923  -0.339   2.522  0.00  0.00    +0.132 C 
BRANCH   4  22
ATOM     22  C   UNL     1      -3.759   0.942   1.492  0.00  0.00    +0.142 C 
BRANCH  22  24
ATOM     24  C   UNL     1      -4.295   0.121   0.355  0.00  0.00    -0.030 A 
ATOM     25  C   UNL     1      -4.346   0.660  -0.930  0.00  0.00    +0.005 A 
ATOM     26  C   UNL     1      -4.743  -1.180   0.584  0.00  0.00    +0.005 A 
ATOM     27  C   UNL     1      -4.845  -0.102  -1.987  0.00  0.00    +0.000 A 
ATOM     28  C   UNL     1      -5.242  -1.942  -0.473  0.00  0.00    +0.000 A 
ATOM     29  C   UNL     1      -5.292  -1.403  -1.758  0.00  0.00    +0.000 A 
ENDBRANCH  22  24
ENDBRANCH   4  22
ENDBRANCH  16  21
ENDBRANCH   8  16
TORSDOF 8
