MODEL 1
REMARK VINA RESULT:      -6.6      0.000      0.000
REMARK  Name = 51137085
REMARK  3 active torsions:
REMARK  status: ('A' for Active; 'I' for Inactive)
REMARK    1  A    between atoms: N_2  and  C_10
REMARK    2  A    between atoms: C_5  and  C_9
REMARK    3  A    between atoms: C_10  and  C_11
REMARK                            x       y       z     vdW  Elec       q    Type
REMARK                         _______ _______ _______ _____ _____    ______ ____
ROOT
ATOM      2  N   UNL     1      11.226  10.185  22.461  0.00  0.00    -0.296 NA
ATOM      5  C   UNL     1      12.604   9.401  20.732  0.00  0.00    +0.060 C 
ATOM      6  C   UNL     1      11.309   8.572  20.775  0.00  0.00    +0.027 C 
ATOM      7  C   UNL     1      12.640  10.134  22.080  0.00  0.00    +0.095 C 
ATOM      8  C   UNL     1      10.703   8.856  22.142  0.00  0.00    +0.085 C 
ENDROOT
BRANCH   5   9
ATOM      1  S   UNL     1      13.951   7.649  19.047  0.00  0.00    -0.072 S 
ATOM      3  N   UNL     1      14.910   8.588  21.250  0.00  0.00    -0.244 NA
ATOM      9  C   UNL     1      13.860   8.605  20.462  0.00  0.00    +0.084 A 
ATOM     12  C   UNL     1      15.539   7.150  19.499  0.00  0.00    +0.039 A 
ATOM     13  C   UNL     1      15.882   7.758  20.710  0.00  0.00    +0.078 A 
ATOM     15  C   UNL     1      16.417   6.283  18.830  0.00  0.00    +0.017 A 
ATOM     16  C   UNL     1      17.149   7.486  21.269  0.00  0.00    +0.029 A 
ATOM     17  C   UNL     1      17.666   6.031  19.404  0.00  0.00    +0.001 A 
ATOM     18  C   UNL     1      18.029   6.624  20.608  0.00  0.00    +0.002 A 
ENDBRANCH   5   9
BRANCH   2  10
ATOM     10  C   UNL     1      11.041  10.532  23.862  0.00  0.00    +0.139 C 
BRANCH  10  11
ATOM      4  N   UNL     1      10.654  12.443  25.318  0.00  0.00    -0.259 NA
ATOM     11  C   UNL     1      10.793  12.006  24.046  0.00  0.00    +0.055 A 
ATOM     14  C   UNL     1      10.724  12.826  22.931  0.00  0.00    +0.024 A 
ATOM     19  C   UNL     1      10.496  14.182  23.135  0.00  0.00    +0.003 A 
ATOM     20  C   UNL     1      10.434  13.768  25.476  0.00  0.00    +0.111 A 
ATOM     21  C   UNL     1      10.347  14.670  24.428  0.00  0.00    +0.020 A 
ENDBRANCH  10  11
ENDBRANCH   2  10
TORSDOF 3
ENDMDL
MODEL 2
REMARK VINA RESULT:      -6.3     27.207     28.791
REMARK  Name = 51137085
REMARK  3 active torsions:
REMARK  status: ('A' for Active; 'I' for Inactive)
REMARK    1  A    between atoms: N_2  and  C_10
REMARK    2  A    between atoms: C_5  and  C_9
REMARK    3  A    between atoms: C_10  and  C_11
REMARK                            x       y       z     vdW  Elec       q    Type
REMARK                         _______ _______ _______ _____ _____    ______ ____
ROOT
ATOM      2  N   UNL     1      -2.537 -11.334  12.580  0.00  0.00    -0.296 NA
ATOM      5  C   UNL     1      -2.886 -10.576  14.772  0.00  0.00    +0.060 C 
ATOM      6  C   UNL     1      -1.773 -11.638  14.765  0.00  0.00    +0.027 C 
ATOM      7  C   UNL     1      -3.582 -10.735  13.414  0.00  0.00    +0.095 C 
ATOM      8  C   UNL     1      -1.917 -12.352  13.428  0.00  0.00    +0.085 C 
ENDROOT
BRANCH   5   9
ATOM      1  S   UNL     1      -5.412 -10.003  15.781  0.00  0.00    -0.072 S 
ATOM      3  N   UNL     1      -3.556 -11.226  17.091  0.00  0.00    -0.244 NA
ATOM      9  C   UNL     1      -3.843 -10.666  15.938  0.00  0.00    +0.084 A 
ATOM     12  C   UNL     1      -5.770 -10.495  17.395  0.00  0.00    +0.039 A 
ATOM     13  C   UNL     1      -4.652 -11.136  17.936  0.00  0.00    +0.078 A 
ATOM     15  C   UNL     1      -6.956 -10.327  18.128  0.00  0.00    +0.017 A 
ATOM     16  C   UNL     1      -4.725 -11.623  19.259  0.00  0.00    +0.029 A 
ATOM     17  C   UNL     1      -7.002 -10.819  19.434  0.00  0.00    +0.001 A 
ATOM     18  C   UNL     1      -5.903 -11.459  19.994  0.00  0.00    +0.002 A 
ENDBRANCH   5   9
BRANCH   2  10
ATOM     10  C   UNL     1      -3.065 -11.890  11.342  0.00  0.00    +0.139 C 
BRANCH  10  11
ATOM      4  N   UNL     1      -5.153 -11.158  10.331  0.00  0.00    -0.259 NA
ATOM     11  C   UNL     1      -3.852 -10.871  10.562  0.00  0.00    +0.055 A 
ATOM     14  C   UNL     1      -3.224  -9.714  10.131  0.00  0.00    +0.024 A 
ATOM     19  C   UNL     1      -3.979  -8.792   9.414  0.00  0.00    +0.003 A 
ATOM     20  C   UNL     1      -5.855 -10.238   9.631  0.00  0.00    +0.111 A 
ATOM     21  C   UNL     1      -5.320  -9.051   9.155  0.00  0.00    +0.020 A 
ENDBRANCH  10  11
ENDBRANCH   2  10
TORSDOF 3
ENDMDL
MODEL 3
REMARK VINA RESULT:      -6.3      4.011      6.148
REMARK  Name = 51137085
REMARK  3 active torsions:
REMARK  status: ('A' for Active; 'I' for Inactive)
REMARK    1  A    between atoms: N_2  and  C_10
REMARK    2  A    between atoms: C_5  and  C_9
REMARK    3  A    between atoms: C_10  and  C_11
REMARK                            x       y       z     vdW  Elec       q    Type
REMARK                         _______ _______ _______ _____ _____    ______ ____
ROOT
ATOM      2  N   UNL     1      15.745   7.637  20.918  0.00  0.00    -0.296 NA
ATOM      5  C   UNL     1      17.971   7.097  20.416  0.00  0.00    +0.060 C 
ATOM      6  C   UNL     1      17.027   6.248  19.547  0.00  0.00    +0.027 C 
ATOM      7  C   UNL     1      17.075   7.656  21.530  0.00  0.00    +0.095 C 
ATOM      8  C   UNL     1      15.668   6.350  20.225  0.00  0.00    +0.085 C 
ENDROOT
BRANCH   5   9
ATOM      1  S   UNL     1      19.948   6.934  22.364  0.00  0.00    -0.072 S 
ATOM      3  N   UNL     1      19.698   5.290  20.392  0.00  0.00    -0.244 NA
ATOM      9  C   UNL     1      19.179   6.360  20.948  0.00  0.00    +0.084 A 
ATOM     12  C   UNL     1      21.091   5.648  22.253  0.00  0.00    +0.039 A 
ATOM     13  C   UNL     1      20.795   4.869  21.130  0.00  0.00    +0.078 A 
ATOM     15  C   UNL     1      22.171   5.349  23.098  0.00  0.00    +0.017 A 
ATOM     16  C   UNL     1      21.611   3.754  20.845  0.00  0.00    +0.029 A 
ATOM     17  C   UNL     1      22.963   4.239  22.794  0.00  0.00    +0.001 A 
ATOM     18  C   UNL     1      22.689   3.451  21.683  0.00  0.00    +0.002 A 
ENDBRANCH   5   9
BRANCH   2  10
ATOM     10  C   UNL     1      14.680   7.804  21.897  0.00  0.00    +0.139 C 
BRANCH  10  11
ATOM      4  N   UNL     1      12.295   7.359  21.712  0.00  0.00    -0.259 NA
ATOM     11  C   UNL     1      13.351   8.061  21.240  0.00  0.00    +0.055 A 
ATOM     14  C   UNL     1      13.270   8.985  20.211  0.00  0.00    +0.024 A 
ATOM     19  C   UNL     1      12.027   9.201  19.627  0.00  0.00    +0.003 A 
ATOM     20  C   UNL     1      11.104   7.596  21.119  0.00  0.00    +0.111 A 
ATOM     21  C   UNL     1      10.918   8.498  20.083  0.00  0.00    +0.020 A 
ENDBRANCH  10  11
ENDBRANCH   2  10
TORSDOF 3
ENDMDL
MODEL 4
REMARK VINA RESULT:      -6.1     27.405     29.507
REMARK  Name = 51137085
REMARK  3 active torsions:
REMARK  status: ('A' for Active; 'I' for Inactive)
REMARK    1  A    between atoms: N_2  and  C_10
REMARK    2  A    between atoms: C_5  and  C_9
REMARK    3  A    between atoms: C_10  and  C_11
REMARK                            x       y       z     vdW  Elec       q    Type
REMARK                         _______ _______ _______ _____ _____    ______ ____
ROOT
ATOM      2  N   UNL     1      -4.198 -10.620  14.630  0.00  0.00    -0.296 NA
ATOM      5  C   UNL     1      -5.519  -9.657  16.312  0.00  0.00    +0.060 C 
ATOM      6  C   UNL     1      -4.336 -10.404  16.951  0.00  0.00    +0.027 C 
ATOM      7  C   UNL     1      -5.574 -10.179  14.870  0.00  0.00    +0.095 C 
ATOM      8  C   UNL     1      -3.809 -11.320  15.855  0.00  0.00    +0.085 C 
ENDROOT
BRANCH   5   9
ATOM      1  S   UNL     1      -6.947 -10.922  18.334  0.00  0.00    -0.072 S 
ATOM      3  N   UNL     1      -7.923  -9.132  16.754  0.00  0.00    -0.244 NA
ATOM      9  C   UNL     1      -6.834  -9.806  17.042  0.00  0.00    +0.084 A 
ATOM     12  C   UNL     1      -8.601 -10.486  18.553  0.00  0.00    +0.039 A 
ATOM     13  C   UNL     1      -8.945  -9.510  17.612  0.00  0.00    +0.078 A 
ATOM     15  C   UNL     1      -9.528 -10.972  19.489  0.00  0.00    +0.017 A 
ATOM     16  C   UNL     1     -10.263  -9.006  17.611  0.00  0.00    +0.029 A 
ATOM     17  C   UNL     1     -10.825 -10.455  19.467  0.00  0.00    +0.001 A 
ATOM     18  C   UNL     1     -11.190  -9.485  18.541  0.00  0.00    +0.002 A 
ENDBRANCH   5   9
BRANCH   2  10
ATOM     10  C   UNL     1      -4.083 -11.463  13.449  0.00  0.00    +0.139 C 
BRANCH  10  11
ATOM      4  N   UNL     1      -4.895 -10.357  11.440  0.00  0.00    -0.259 NA
ATOM     11  C   UNL     1      -3.821 -10.654  12.207  0.00  0.00    +0.055 A 
ATOM     14  C   UNL     1      -2.526 -10.258  11.916  0.00  0.00    +0.024 A 
ATOM     19  C   UNL     1      -2.319  -9.510  10.762  0.00  0.00    +0.003 A 
ATOM     20  C   UNL     1      -4.654  -9.629  10.327  0.00  0.00    +0.111 A 
ATOM     21  C   UNL     1      -3.397  -9.185   9.948  0.00  0.00    +0.020 A 
ENDBRANCH  10  11
ENDBRANCH   2  10
TORSDOF 3
ENDMDL
MODEL 5
REMARK VINA RESULT:      -6.1     26.964     29.676
REMARK  Name = 51137085
REMARK  3 active torsions:
REMARK  status: ('A' for Active; 'I' for Inactive)
REMARK    1  A    between atoms: N_2  and  C_10
REMARK    2  A    between atoms: C_5  and  C_9
REMARK    3  A    between atoms: C_10  and  C_11
REMARK                            x       y       z     vdW  Elec       q    Type
REMARK                         _______ _______ _______ _____ _____    ______ ____
ROOT
ATOM      2  N   UNL     1      -4.505 -11.667  17.359  0.00  0.00    -0.296 NA
ATOM      5  C   UNL     1      -6.194 -10.629  18.612  0.00  0.00    +0.060 C 
ATOM      6  C   UNL     1      -5.666 -11.855  19.376  0.00  0.00    +0.027 C 
ATOM      7  C   UNL     1      -5.684 -10.817  17.177  0.00  0.00    +0.095 C 
ATOM      8  C   UNL     1      -4.917 -12.676  18.336  0.00  0.00    +0.085 C 
ENDROOT
BRANCH   5   9
ATOM      1  S   UNL     1      -8.474  -9.546  17.447  0.00  0.00    -0.072 S 
ATOM      3  N   UNL     1      -8.455 -10.898  19.644  0.00  0.00    -0.244 NA
ATOM      9  C   UNL     1      -7.691 -10.432  18.683  0.00  0.00    +0.084 A 
ATOM     12  C   UNL     1      -9.984  -9.790  18.243  0.00  0.00    +0.039 A 
ATOM     13  C   UNL     1      -9.773 -10.538  19.405  0.00  0.00    +0.078 A 
ATOM     15  C   UNL     1     -11.264  -9.352  17.865  0.00  0.00    +0.017 A 
ATOM     16  C   UNL     1     -10.883 -10.856  20.216  0.00  0.00    +0.029 A 
ATOM     17  C   UNL     1     -12.345  -9.681  18.686  0.00  0.00    +0.001 A 
ATOM     18  C   UNL     1     -12.160 -10.423  19.847  0.00  0.00    +0.002 A 
ENDBRANCH   5   9
BRANCH   2  10
ATOM     10  C   UNL     1      -4.049 -12.259  16.110  0.00  0.00    +0.139 C 
BRANCH  10  11
ATOM      4  N   UNL     1      -3.182 -11.244  14.075  0.00  0.00    -0.259 NA
ATOM     11  C   UNL     1      -3.040 -11.387  15.413  0.00  0.00    +0.055 A 
ATOM     14  C   UNL     1      -2.038 -10.782  16.155  0.00  0.00    +0.024 A 
ATOM     19  C   UNL     1      -1.123  -9.981  15.481  0.00  0.00    +0.003 A 
ATOM     20  C   UNL     1      -2.274 -10.458  13.455  0.00  0.00    +0.111 A 
ATOM     21  C   UNL     1      -1.236  -9.810  14.106  0.00  0.00    +0.020 A 
ENDBRANCH  10  11
ENDBRANCH   2  10
TORSDOF 3
ENDMDL
MODEL 6
REMARK VINA RESULT:      -6.1      2.963      9.133
REMARK  Name = 51137085
REMARK  3 active torsions:
REMARK  status: ('A' for Active; 'I' for Inactive)
REMARK    1  A    between atoms: N_2  and  C_10
REMARK    2  A    between atoms: C_5  and  C_9
REMARK    3  A    between atoms: C_10  and  C_11
REMARK                            x       y       z     vdW  Elec       q    Type
REMARK                         _______ _______ _______ _____ _____    ______ ____
ROOT
ATOM      2  N   UNL     1      18.129   6.218  20.658  0.00  0.00    -0.296 NA
ATOM      5  C   UNL     1      15.856   6.494  21.165  0.00  0.00    +0.060 C 
ATOM      6  C   UNL     1      16.016   6.198  19.664  0.00  0.00    +0.027 C 
ATOM      7  C   UNL     1      17.264   6.881  21.636  0.00  0.00    +0.095 C 
ATOM      8  C   UNL     1      17.486   6.457  19.365  0.00  0.00    +0.085 C 
ENDROOT
BRANCH   5   9
ATOM      1  S   UNL     1      15.319   9.145  21.808  0.00  0.00    -0.072 S 
ATOM      3  N   UNL     1      13.526   7.304  21.573  0.00  0.00    -0.244 NA
ATOM      9  C   UNL     1      14.816   7.539  21.498  0.00  0.00    +0.084 A 
ATOM     12  C   UNL     1      13.675   9.598  22.070  0.00  0.00    +0.039 A 
ATOM     13  C   UNL     1      12.859   8.476  21.899  0.00  0.00    +0.078 A 
ATOM     15  C   UNL     1      13.147  10.855  22.403  0.00  0.00    +0.017 A 
ATOM     16  C   UNL     1      11.465   8.620  22.069  0.00  0.00    +0.029 A 
ATOM     17  C   UNL     1      11.764  10.971  22.564  0.00  0.00    +0.001 A 
ATOM     18  C   UNL     1      10.933   9.869  22.400  0.00  0.00    +0.002 A 
ENDBRANCH   5   9
BRANCH   2  10
ATOM     10  C   UNL     1      19.496   6.716  20.698  0.00  0.00    +0.139 C 
BRANCH  10  11
ATOM      4  N   UNL     1      21.107   5.982  22.367  0.00  0.00    -0.259 NA
ATOM     11  C   UNL     1      20.454   5.680  21.222  0.00  0.00    +0.055 A 
ATOM     14  C   UNL     1      20.617   4.493  20.526  0.00  0.00    +0.024 A 
ATOM     19  C   UNL     1      21.508   3.556  21.037  0.00  0.00    +0.003 A 
ATOM     20  C   UNL     1      21.965   5.047  22.834  0.00  0.00    +0.111 A 
ATOM     21  C   UNL     1      22.198   3.830  22.213  0.00  0.00    +0.020 A 
ENDBRANCH  10  11
ENDBRANCH   2  10
TORSDOF 3
ENDMDL
MODEL 7
REMARK VINA RESULT:      -5.9     28.141     30.817
REMARK  Name = 51137085
REMARK  3 active torsions:
REMARK  status: ('A' for Active; 'I' for Inactive)
REMARK    1  A    between atoms: N_2  and  C_10
REMARK    2  A    between atoms: C_5  and  C_9
REMARK    3  A    between atoms: C_10  and  C_11
REMARK                            x       y       z     vdW  Elec       q    Type
REMARK                         _______ _______ _______ _____ _____    ______ ____
ROOT
ATOM      2  N   UNL     1      -9.443  -8.867  16.579  0.00  0.00    -0.296 NA
ATOM      5  C   UNL     1     -11.076  -7.187  16.457  0.00  0.00    +0.060 C 
ATOM      6  C   UNL     1     -11.695  -8.466  17.047  0.00  0.00    +0.027 C 
ATOM      7  C   UNL     1      -9.758  -7.652  15.824  0.00  0.00    +0.095 C 
ATOM      8  C   UNL     1     -10.717  -9.578  16.694  0.00  0.00    +0.085 C 
ENDROOT
BRANCH   5   9
ATOM      1  S   UNL     1     -13.641  -6.773  15.469  0.00  0.00    -0.072 S 
ATOM      3  N   UNL     1     -11.535  -5.536  14.638  0.00  0.00    -0.244 NA
ATOM      9  C   UNL     1     -11.963  -6.440  15.488  0.00  0.00    +0.084 A 
ATOM     12  C   UNL     1     -13.847  -5.610  14.213  0.00  0.00    +0.039 A 
ATOM     13  C   UNL     1     -12.605  -5.050  13.900  0.00  0.00    +0.078 A 
ATOM     15  C   UNL     1     -15.023  -5.221  13.552  0.00  0.00    +0.017 A 
ATOM     16  C   UNL     1     -12.540  -4.067  12.889  0.00  0.00    +0.029 A 
ATOM     17  C   UNL     1     -14.931  -4.246  12.556  0.00  0.00    +0.001 A 
ATOM     18  C   UNL     1     -13.707  -3.675  12.227  0.00  0.00    +0.002 A 
ENDBRANCH   5   9
BRANCH   2  10
ATOM     10  C   UNL     1      -8.415  -9.671  15.934  0.00  0.00    +0.139 C 
BRANCH  10  11
ATOM      4  N   UNL     1      -6.047 -10.025  16.362  0.00  0.00    -0.259 NA
ATOM     11  C   UNL     1      -7.296 -10.012  16.880  0.00  0.00    +0.055 A 
ATOM     14  C   UNL     1      -7.588 -10.288  18.206  0.00  0.00    +0.024 A 
ATOM     19  C   UNL     1      -6.531 -10.598  19.055  0.00  0.00    +0.003 A 
ATOM     20  C   UNL     1      -5.045 -10.330  17.217  0.00  0.00    +0.111 A 
ATOM     21  C   UNL     1      -5.233 -10.621  18.559  0.00  0.00    +0.020 A 
ENDBRANCH  10  11
ENDBRANCH   2  10
TORSDOF 3
ENDMDL
MODEL 8
REMARK VINA RESULT:      -5.7     17.935     20.210
REMARK  Name = 51137085
REMARK  3 active torsions:
REMARK  status: ('A' for Active; 'I' for Inactive)
REMARK    1  A    between atoms: N_2  and  C_10
REMARK    2  A    between atoms: C_5  and  C_9
REMARK    3  A    between atoms: C_10  and  C_11
REMARK                            x       y       z     vdW  Elec       q    Type
REMARK                         _______ _______ _______ _____ _____    ______ ____
ROOT
ATOM      2  N   UNL     1      10.434   6.105   4.252  0.00  0.00    -0.296 NA
ATOM      5  C   UNL     1      11.796   5.311   2.516  0.00  0.00    +0.060 C 
ATOM      6  C   UNL     1      11.819   6.849   2.526  0.00  0.00    +0.027 C 
ATOM      7  C   UNL     1      10.587   4.936   3.383  0.00  0.00    +0.095 C 
ATOM      8  C   UNL     1      10.618   7.257   3.368  0.00  0.00    +0.085 C 
ENDROOT
BRANCH   5   9
ATOM      1  S   UNL     1      12.892   3.479   0.736  0.00  0.00    -0.072 S 
ATOM      3  N   UNL     1      10.881   5.006   0.209  0.00  0.00    -0.244 NA
ATOM      9  C   UNL     1      11.749   4.685   1.140  0.00  0.00    +0.084 A 
ATOM     12  C   UNL     1      12.185   3.349  -0.832  0.00  0.00    +0.039 A 
ATOM     13  C   UNL     1      11.118   4.246  -0.927  0.00  0.00    +0.078 A 
ATOM     15  C   UNL     1      12.548   2.512  -1.899  0.00  0.00    +0.017 A 
ATOM     16  C   UNL     1      10.390   4.308  -2.135  0.00  0.00    +0.029 A 
ATOM     17  C   UNL     1      11.811   2.592  -3.083  0.00  0.00    +0.001 A 
ATOM     18  C   UNL     1      10.746   3.478  -3.202  0.00  0.00    +0.002 A 
ENDBRANCH   5   9
BRANCH   2  10
ATOM     10  C   UNL     1       9.146   6.128   4.930  0.00  0.00    +0.139 C 
BRANCH  10  11
ATOM      4  N   UNL     1       8.924   6.852   7.243  0.00  0.00    -0.259 NA
ATOM     11  C   UNL     1       9.285   5.854   6.404  0.00  0.00    +0.055 A 
ATOM     14  C   UNL     1       9.762   4.623   6.823  0.00  0.00    +0.024 A 
ATOM     19  C   UNL     1       9.877   4.402   8.191  0.00  0.00    +0.003 A 
ATOM     20  C   UNL     1       9.050   6.600   8.565  0.00  0.00    +0.111 A 
ATOM     21  C   UNL     1       9.516   5.403   9.085  0.00  0.00    +0.020 A 
ENDBRANCH  10  11
ENDBRANCH   2  10
TORSDOF 3
ENDMDL
MODEL 9
REMARK VINA RESULT:      -5.7     26.266     28.701
REMARK  Name = 51137085
REMARK  3 active torsions:
REMARK  status: ('A' for Active; 'I' for Inactive)
REMARK    1  A    between atoms: N_2  and  C_10
REMARK    2  A    between atoms: C_5  and  C_9
REMARK    3  A    between atoms: C_10  and  C_11
REMARK                            x       y       z     vdW  Elec       q    Type
REMARK                         _______ _______ _______ _____ _____    ______ ____
ROOT
ATOM      2  N   UNL     1     -15.798   4.641  23.659  0.00  0.00    -0.296 NA
ATOM      5  C   UNL     1     -14.556   6.390  22.711  0.00  0.00    +0.060 C 
ATOM      6  C   UNL     1     -16.000   6.859  22.957  0.00  0.00    +0.027 C 
ATOM      7  C   UNL     1     -14.622   4.860  22.814  0.00  0.00    +0.095 C 
ATOM      8  C   UNL     1     -16.802   5.580  23.156  0.00  0.00    +0.085 C 
ENDROOT
BRANCH   5   9
ATOM      1  S   UNL     1     -14.970   7.481  20.188  0.00  0.00    -0.072 S 
ATOM      3  N   UNL     1     -12.661   6.842  21.144  0.00  0.00    -0.244 NA
ATOM      9  C   UNL     1     -13.946   6.866  21.412  0.00  0.00    +0.084 A 
ATOM     12  C   UNL     1     -13.592   7.751  19.186  0.00  0.00    +0.039 A 
ATOM     13  C   UNL     1     -12.443   7.347  19.871  0.00  0.00    +0.078 A 
ATOM     15  C   UNL     1     -13.533   8.283  17.888  0.00  0.00    +0.017 A 
ATOM     16  C   UNL     1     -11.191   7.480  19.232  0.00  0.00    +0.029 A 
ATOM     17  C   UNL     1     -12.282   8.405  17.278  0.00  0.00    +0.001 A 
ATOM     18  C   UNL     1     -11.126   8.009  17.940  0.00  0.00    +0.002 A 
ENDBRANCH   5   9
BRANCH   2  10
ATOM     10  C   UNL     1     -16.261   3.261  23.619  0.00  0.00    +0.139 C 
BRANCH  10  11
ATOM      4  N   UNL     1     -16.701   1.358  25.070  0.00  0.00    -0.259 NA
ATOM     11  C   UNL     1     -16.363   2.666  24.998  0.00  0.00    +0.055 A 
ATOM     14  C   UNL     1     -16.109   3.463  26.102  0.00  0.00    +0.024 A 
ATOM     19  C   UNL     1     -16.209   2.882  27.361  0.00  0.00    +0.003 A 
ATOM     20  C   UNL     1     -16.790   0.828  26.311  0.00  0.00    +0.111 A 
ATOM     21  C   UNL     1     -16.556   1.540  27.476  0.00  0.00    +0.020 A 
ENDBRANCH  10  11
ENDBRANCH   2  10
TORSDOF 3
ENDMDL
MODEL 10
REMARK VINA RESULT:      -5.7     15.129     17.530
REMARK  Name = 51137085
REMARK  3 active torsions:
REMARK  status: ('A' for Active; 'I' for Inactive)
REMARK    1  A    between atoms: N_2  and  C_10
REMARK    2  A    between atoms: C_5  and  C_9
REMARK    3  A    between atoms: C_10  and  C_11
REMARK                            x       y       z     vdW  Elec       q    Type
REMARK                         _______ _______ _______ _____ _____    ______ ____
ROOT
ATOM      2  N   UNL     1      16.352   8.750   5.237  0.00  0.00    -0.296 NA
ATOM      5  C   UNL     1      14.245   7.730   5.092  0.00  0.00    +0.060 C 
ATOM      6  C   UNL     1      14.309   8.920   4.119  0.00  0.00    +0.027 C 
ATOM      7  C   UNL     1      15.433   7.940   6.040  0.00  0.00    +0.095 C 
ATOM      8  C   UNL     1      15.502   9.745   4.582  0.00  0.00    +0.085 C 
ENDROOT
BRANCH   5   9
ATOM      1  S   UNL     1      11.706   8.748   5.587  0.00  0.00    -0.072 S 
ATOM      3  N   UNL     1      12.649   6.592   6.643  0.00  0.00    -0.244 NA
ATOM      9  C   UNL     1      12.930   7.577   5.822  0.00  0.00    +0.084 A 
ATOM     12  C   UNL     1      10.685   7.884   6.676  0.00  0.00    +0.039 A 
ATOM     13  C   UNL     1      11.364   6.754   7.140  0.00  0.00    +0.078 A 
ATOM     15  C   UNL     1       9.377   8.184   7.088  0.00  0.00    +0.017 A 
ATOM     16  C   UNL     1      10.710   5.896   8.050  0.00  0.00    +0.029 A 
ATOM     17  C   UNL     1       8.751   7.319   7.989  0.00  0.00    +0.001 A 
ATOM     18  C   UNL     1       9.407   6.189   8.465  0.00  0.00    +0.002 A 
ENDBRANCH   5   9
BRANCH   2  10
ATOM     10  C   UNL     1      17.402   9.360   6.040  0.00  0.00    +0.139 C 
BRANCH  10  11
ATOM      4  N   UNL     1      19.559   8.654   6.917  0.00  0.00    -0.259 NA
ATOM     11  C   UNL     1      18.724   8.666   5.852  0.00  0.00    +0.055 A 
ATOM     14  C   UNL     1      19.017   8.083   4.630  0.00  0.00    +0.024 A 
ATOM     19  C   UNL     1      20.247   7.448   4.490  0.00  0.00    +0.003 A 
ATOM     20  C   UNL     1      20.744   8.028   6.743  0.00  0.00    +0.111 A 
ATOM     21  C   UNL     1      21.132   7.415   5.562  0.00  0.00    +0.020 A 
ENDBRANCH  10  11
ENDBRANCH   2  10
TORSDOF 3
ENDMDL
