MODEL 1
REMARK VINA RESULT:      -6.6      0.000      0.000
REMARK  Name = 38026613
REMARK  10 active torsions:
REMARK  status: ('A' for Active; 'I' for Inactive)
REMARK    1  A    between atoms: O_2  and  C_10
REMARK    2  A    between atoms: O_3  and  C_16
REMARK    3  A    between atoms: N_5  and  C_8
REMARK    4  A    between atoms: N_6  and  C_14
REMARK    5  A    between atoms: N_7  and  C_29
REMARK    6  A    between atoms: N_7  and  C_30
REMARK    7  A    between atoms: N_7  and  C_31
REMARK    8  A    between atoms: C_9  and  C_14
REMARK    9  A    between atoms: C_11  and  C_16
REMARK   10  A    between atoms: C_23  and  C_24
REMARK                            x       y       z     vdW  Elec       q    Type
REMARK                         _______ _______ _______ _____ _____    ______ ____
ROOT
ATOM      1  O   UNL     1       8.718   6.652   8.440  0.00  0.00    -0.365 OA
ATOM      8  C   UNL     1      10.764   7.519   7.585  0.00  0.00    +0.118 C 
ATOM      9  C   UNL     1       9.235   7.596   7.476  0.00  0.00    +0.155 C 
ATOM     10  C   UNL     1      11.000   6.112   8.111  0.00  0.00    +0.165 C 
ATOM     11  C   UNL     1       9.821   5.967   9.065  0.00  0.00    +0.174 C 
ENDROOT
BRANCH   8   5
ATOM      5  N   UNL     1      11.516   7.870   6.381  0.00  0.00    -0.290 NA
ATOM     12  C   UNL     1      11.469   9.318   6.140  0.00  0.00    +0.090 C 
ATOM     13  C   UNL     1      12.914   7.419   6.499  0.00  0.00    +0.120 C 
ATOM     15  C   UNL     1      12.080   9.638   4.773  0.00  0.00    +0.051 C 
ATOM     17  C   UNL     1      13.787   7.870   5.351  0.00  0.00    -0.030 A 
ATOM     18  C   UNL     1      13.408   8.961   4.552  0.00  0.00    -0.042 A 
ATOM     19  C   UNL     1      15.016   7.237   5.118  0.00  0.00    +0.005 A 
ATOM     20  C   UNL     1      14.243   9.380   3.508  0.00  0.00    +0.004 A 
ATOM     21  C   UNL     1      15.846   7.667   4.083  0.00  0.00    +0.000 A 
ATOM     22  C   UNL     1      15.458   8.736   3.277  0.00  0.00    +0.000 A 
ENDBRANCH   8   5
BRANCH  10   2
ATOM      2  O   UNL     1      10.916   5.147   7.070  0.00  0.00    -0.388 OA
ATOM     32  H   UNL     1      10.411   5.513   6.329  0.00  0.00    +0.210 HD
ENDBRANCH  10   2
BRANCH   9  14
ATOM     14  C   UNL     1       8.627   7.241   6.124  0.00  0.00    +0.137 C 
BRANCH  14   6
ATOM      4  O   UNL     1       8.753   7.359   3.258  0.00  0.00    -0.270 OA
ATOM      6  N   UNL     1       9.585   6.590   5.283  0.00  0.00    -0.309 N 
ATOM     23  C   UNL     1       9.572   6.702   3.894  0.00  0.00    +0.244 C 
ATOM     33  H   UNL     1      10.258   5.986   5.742  0.00  0.00    +0.149 HD
BRANCH  23  24
ATOM     24  C   UNL     1      10.619   5.943   3.163  0.00  0.00    +0.037 A 
ATOM     25  C   UNL     1      10.496   4.563   3.001  0.00  0.00    +0.015 A 
ATOM     26  C   UNL     1      11.728   6.610   2.639  0.00  0.00    +0.015 A 
ATOM     27  C   UNL     1      11.479   3.850   2.315  0.00  0.00    +0.024 A 
ATOM     28  C   UNL     1      12.710   5.897   1.954  0.00  0.00    +0.024 A 
ATOM     29  C   UNL     1      12.586   4.517   1.791  0.00  0.00    +0.029 A 
BRANCH  29   7
ATOM      7  N   UNL     1      13.580   3.796   1.097  0.00  0.00    -0.336 N 
ATOM     30  C   UNL     1      14.875   3.563   1.702  0.00  0.00    +0.129 C 
ATOM     31  C   UNL     1      13.317   3.274  -0.230  0.00  0.00    +0.129 C 
ENDBRANCH  29   7
ENDBRANCH  23  24
ENDBRANCH  14   6
ENDBRANCH   9  14
BRANCH  11  16
ATOM     16  C   UNL     1       9.409   4.542   9.384  0.00  0.00    +0.190 C 
BRANCH  16   3
ATOM      3  O   UNL     1       9.831   4.225  10.701  0.00  0.00    -0.392 OA
ATOM     34  H   UNL     1       9.115   4.491  11.303  0.00  0.00    +0.210 HD
ENDBRANCH  16   3
ENDBRANCH  11  16
TORSDOF 8
ENDMDL
MODEL 2
REMARK VINA RESULT:      -6.3     23.416     26.172
REMARK  Name = 38026613
REMARK  10 active torsions:
REMARK  status: ('A' for Active; 'I' for Inactive)
REMARK    1  A    between atoms: O_2  and  C_10
REMARK    2  A    between atoms: O_3  and  C_16
REMARK    3  A    between atoms: N_5  and  C_8
REMARK    4  A    between atoms: N_6  and  C_14
REMARK    5  A    between atoms: N_7  and  C_29
REMARK    6  A    between atoms: N_7  and  C_30
REMARK    7  A    between atoms: N_7  and  C_31
REMARK    8  A    between atoms: C_9  and  C_14
REMARK    9  A    between atoms: C_11  and  C_16
REMARK   10  A    between atoms: C_23  and  C_24
REMARK                            x       y       z     vdW  Elec       q    Type
REMARK                         _______ _______ _______ _____ _____    ______ ____
ROOT
ATOM      1  O   UNL     1      -9.751  -7.983   4.330  0.00  0.00    -0.365 OA
ATOM      8  C   UNL     1      -8.480  -8.939   6.100  0.00  0.00    +0.118 C 
ATOM      9  C   UNL     1      -9.643  -7.994   5.770  0.00  0.00    +0.155 C 
ATOM     10  C   UNL     1      -7.620  -8.877   4.847  0.00  0.00    +0.165 C 
ATOM     11  C   UNL     1      -8.697  -8.793   3.772  0.00  0.00    +0.174 C 
ENDROOT
BRANCH   8   5
ATOM      5  N   UNL     1      -7.773  -8.682   7.354  0.00  0.00    -0.290 NA
ATOM     12  C   UNL     1      -8.593  -9.080   8.506  0.00  0.00    +0.090 C 
ATOM     13  C   UNL     1      -6.485  -9.396   7.374  0.00  0.00    +0.120 C 
ATOM     15  C   UNL     1      -7.928  -8.614   9.805  0.00  0.00    +0.051 C 
ATOM     17  C   UNL     1      -5.762  -9.289   8.697  0.00  0.00    -0.030 A 
ATOM     18  C   UNL     1      -6.463  -8.957   9.869  0.00  0.00    -0.042 A 
ATOM     19  C   UNL     1      -4.394  -9.584   8.772  0.00  0.00    +0.005 A 
ATOM     20  C   UNL     1      -5.780  -8.888  11.090  0.00  0.00    +0.004 A 
ATOM     21  C   UNL     1      -3.724  -9.522   9.993  0.00  0.00    +0.000 A 
ATOM     22  C   UNL     1      -4.416  -9.172  11.151  0.00  0.00    +0.000 A 
ENDBRANCH   8   5
BRANCH  10   2
ATOM      2  O   UNL     1      -6.810  -7.709   4.829  0.00  0.00    -0.388 OA
ATOM     32  H   UNL     1      -7.019  -7.159   5.598  0.00  0.00    +0.210 HD
ENDBRANCH  10   2
BRANCH   9  14
ATOM     14  C   UNL     1      -9.497  -6.547   6.225  0.00  0.00    +0.137 C 
BRANCH  14   6
ATOM      4  O   UNL     1      -8.911  -4.849   8.464  0.00  0.00    -0.270 OA
ATOM      6  N   UNL     1     -10.359  -6.265   7.332  0.00  0.00    -0.309 N 
ATOM     23  C   UNL     1      -9.991  -5.424   8.381  0.00  0.00    +0.244 C 
ATOM     33  H   UNL     1     -11.248  -6.752   7.352  0.00  0.00    +0.149 HD
BRANCH  23  24
ATOM     24  C   UNL     1     -10.990  -5.254   9.468  0.00  0.00    +0.037 A 
ATOM     25  C   UNL     1     -11.322  -3.976   9.916  0.00  0.00    +0.015 A 
ATOM     26  C   UNL     1     -11.593  -6.373  10.044  0.00  0.00    +0.015 A 
ATOM     27  C   UNL     1     -12.259  -3.815  10.936  0.00  0.00    +0.024 A 
ATOM     28  C   UNL     1     -12.529  -6.212  11.065  0.00  0.00    +0.024 A 
ATOM     29  C   UNL     1     -12.863  -4.933  11.511  0.00  0.00    +0.029 A 
BRANCH  29   7
ATOM      7  N   UNL     1     -13.811  -4.772  12.543  0.00  0.00    -0.336 N 
ATOM     30  C   UNL     1     -14.582  -3.550  12.646  0.00  0.00    +0.129 C 
ATOM     31  C   UNL     1     -14.030  -5.829  13.510  0.00  0.00    +0.129 C 
ENDBRANCH  29   7
ENDBRANCH  23  24
ENDBRANCH  14   6
ENDBRANCH   9  14
BRANCH  11  16
ATOM     16  C   UNL     1      -8.254  -8.197   2.448  0.00  0.00    +0.190 C 
BRANCH  16   3
ATOM      3  O   UNL     1      -8.162  -6.789   2.587  0.00  0.00    -0.392 OA
ATOM     34  H   UNL     1      -8.624  -6.395   1.826  0.00  0.00    +0.210 HD
ENDBRANCH  16   3
ENDBRANCH  11  16
TORSDOF 8
ENDMDL
MODEL 3
REMARK VINA RESULT:      -6.1     25.580     29.839
REMARK  Name = 38026613
REMARK  10 active torsions:
REMARK  status: ('A' for Active; 'I' for Inactive)
REMARK    1  A    between atoms: O_2  and  C_10
REMARK    2  A    between atoms: O_3  and  C_16
REMARK    3  A    between atoms: N_5  and  C_8
REMARK    4  A    between atoms: N_6  and  C_14
REMARK    5  A    between atoms: N_7  and  C_29
REMARK    6  A    between atoms: N_7  and  C_30
REMARK    7  A    between atoms: N_7  and  C_31
REMARK    8  A    between atoms: C_9  and  C_14
REMARK    9  A    between atoms: C_11  and  C_16
REMARK   10  A    between atoms: C_23  and  C_24
REMARK                            x       y       z     vdW  Elec       q    Type
REMARK                         _______ _______ _______ _____ _____    ______ ____
ROOT
ATOM      1  O   UNL     1     -10.653 -13.165  20.127  0.00  0.00    -0.365 OA
ATOM      8  C   UNL     1     -11.301 -11.480  18.575  0.00  0.00    +0.118 C 
ATOM      9  C   UNL     1     -10.113 -12.292  19.110  0.00  0.00    +0.155 C 
ATOM     10  C   UNL     1     -12.270 -11.478  19.747  0.00  0.00    +0.165 C 
ATOM     11  C   UNL     1     -12.057 -12.886  20.290  0.00  0.00    +0.174 C 
ENDROOT
BRANCH   8   5
ATOM      5  N   UNL     1     -10.986 -10.163  18.023  0.00  0.00    -0.290 NA
ATOM     12  C   UNL     1      -9.907 -10.257  17.032  0.00  0.00    +0.090 C 
ATOM     13  C   UNL     1     -12.186  -9.561  17.415  0.00  0.00    +0.120 C 
ATOM     15  C   UNL     1      -9.452  -8.853  16.622  0.00  0.00    +0.051 C 
ATOM     17  C   UNL     1     -11.905  -8.259  16.701  0.00  0.00    -0.030 A 
ATOM     18  C   UNL     1     -10.602  -7.941  16.282  0.00  0.00    -0.042 A 
ATOM     19  C   UNL     1     -12.960  -7.389  16.395  0.00  0.00    +0.005 A 
ATOM     20  C   UNL     1     -10.367  -6.741  15.599  0.00  0.00    +0.004 A 
ATOM     21  C   UNL     1     -12.718  -6.201  15.706  0.00  0.00    +0.000 A 
ATOM     22  C   UNL     1     -11.422  -5.876  15.310  0.00  0.00    +0.000 A 
ENDBRANCH   8   5
BRANCH  10   2
ATOM      2  O   UNL     1     -11.906 -10.510  20.722  0.00  0.00    -0.388 OA
ATOM     32  H   UNL     1     -11.123 -10.026  20.421  0.00  0.00    +0.210 HD
ENDBRANCH  10   2
BRANCH   9  14
ATOM     14  C   UNL     1      -8.976 -11.502  19.747  0.00  0.00    +0.137 C 
BRANCH  14   6
ATOM      4  O   UNL     1      -6.400 -10.392  20.359  0.00  0.00    -0.270 OA
ATOM      6  N   UNL     1      -7.855 -11.406  18.862  0.00  0.00    -0.309 N 
ATOM     23  C   UNL     1      -6.636 -10.849  19.245  0.00  0.00    +0.244 C 
ATOM     33  H   UNL     1      -8.001 -11.717  17.909  0.00  0.00    +0.149 HD
BRANCH  23  24
ATOM     24  C   UNL     1      -5.580 -10.800  18.201  0.00  0.00    +0.037 A 
ATOM     25  C   UNL     1      -4.350 -11.420  18.424  0.00  0.00    +0.015 A 
ATOM     26  C   UNL     1      -5.817 -10.133  16.999  0.00  0.00    +0.015 A 
ATOM     27  C   UNL     1      -3.358 -11.374  17.444  0.00  0.00    +0.024 A 
ATOM     28  C   UNL     1      -4.824 -10.087  16.020  0.00  0.00    +0.024 A 
ATOM     29  C   UNL     1      -3.595 -10.707  16.243  0.00  0.00    +0.029 A 
BRANCH  29   7
ATOM      7  N   UNL     1      -2.592 -10.661  15.252  0.00  0.00    -0.336 N 
ATOM     30  C   UNL     1      -2.946 -10.696  13.847  0.00  0.00    +0.129 C 
ATOM     31  C   UNL     1      -1.194 -10.571  15.626  0.00  0.00    +0.129 C 
ENDBRANCH  29   7
ENDBRANCH  23  24
ENDBRANCH  14   6
ENDBRANCH   9  14
BRANCH  11  16
ATOM     16  C   UNL     1     -12.443 -13.091  21.744  0.00  0.00    +0.190 C 
BRANCH  16   3
ATOM      3  O   UNL     1     -13.562 -12.271  22.042  0.00  0.00    -0.392 OA
ATOM     34  H   UNL     1     -13.288 -11.657  22.745  0.00  0.00    +0.210 HD
ENDBRANCH  16   3
ENDBRANCH  11  16
TORSDOF 8
ENDMDL
MODEL 4
REMARK VINA RESULT:      -6.0     24.778     28.355
REMARK  Name = 38026613
REMARK  10 active torsions:
REMARK  status: ('A' for Active; 'I' for Inactive)
REMARK    1  A    between atoms: O_2  and  C_10
REMARK    2  A    between atoms: O_3  and  C_16
REMARK    3  A    between atoms: N_5  and  C_8
REMARK    4  A    between atoms: N_6  and  C_14
REMARK    5  A    between atoms: N_7  and  C_29
REMARK    6  A    between atoms: N_7  and  C_30
REMARK    7  A    between atoms: N_7  and  C_31
REMARK    8  A    between atoms: C_9  and  C_14
REMARK    9  A    between atoms: C_11  and  C_16
REMARK   10  A    between atoms: C_23  and  C_24
REMARK                            x       y       z     vdW  Elec       q    Type
REMARK                         _______ _______ _______ _____ _____    ______ ____
ROOT
ATOM      1  O   UNL     1     -11.469  -8.407  17.544  0.00  0.00    -0.365 OA
ATOM      8  C   UNL     1     -10.413  -9.908  16.028  0.00  0.00    +0.118 C 
ATOM      9  C   UNL     1     -10.835  -9.704  17.489  0.00  0.00    +0.155 C 
ATOM     10  C   UNL     1     -10.249  -8.485  15.516  0.00  0.00    +0.165 C 
ATOM     11  C   UNL     1     -11.395  -7.791  16.243  0.00  0.00    +0.174 C 
ENDROOT
BRANCH   8   5
ATOM      5  N   UNL     1      -9.267 -10.788  15.802  0.00  0.00    -0.290 NA
ATOM     12  C   UNL     1      -9.632 -12.190  16.040  0.00  0.00    +0.090 C 
ATOM     13  C   UNL     1      -8.753 -10.621  14.432  0.00  0.00    +0.120 C 
ATOM     15  C   UNL     1      -8.378 -13.068  16.004  0.00  0.00    +0.051 C 
ATOM     17  C   UNL     1      -7.656 -11.599  14.081  0.00  0.00    -0.030 A 
ATOM     18  C   UNL     1      -7.504 -12.792  14.807  0.00  0.00    -0.042 A 
ATOM     19  C   UNL     1      -6.820 -11.348  12.984  0.00  0.00    +0.005 A 
ATOM     20  C   UNL     1      -6.497 -13.698  14.451  0.00  0.00    +0.004 A 
ATOM     21  C   UNL     1      -5.827 -12.261  12.631  0.00  0.00    +0.000 A 
ATOM     22  C   UNL     1      -5.664 -13.433  13.365  0.00  0.00    +0.000 A 
ENDBRANCH   8   5
BRANCH  10   2
ATOM      2  O   UNL     1      -9.003  -7.930  15.913  0.00  0.00    -0.388 OA
ATOM     32  H   UNL     1      -8.997  -6.980  15.728  0.00  0.00    +0.210 HD
ENDBRANCH  10   2
BRANCH   9  14
ATOM     14  C   UNL     1      -9.721  -9.708  18.529  0.00  0.00    +0.137 C 
BRANCH  14   6
ATOM      4  O   UNL     1      -7.356 -10.675  19.837  0.00  0.00    -0.270 OA
ATOM      6  N   UNL     1      -8.449  -9.954  17.921  0.00  0.00    -0.309 N 
ATOM     23  C   UNL     1      -7.349 -10.426  18.635  0.00  0.00    +0.244 C 
ATOM     33  H   UNL     1      -8.360  -9.717  16.940  0.00  0.00    +0.149 HD
BRANCH  23  24
ATOM     24  C   UNL     1      -6.092 -10.607  17.863  0.00  0.00    +0.037 A 
ATOM     25  C   UNL     1      -5.089 -11.444  18.351  0.00  0.00    +0.015 A 
ATOM     26  C   UNL     1      -5.915  -9.938  16.652  0.00  0.00    +0.015 A 
ATOM     27  C   UNL     1      -3.908 -11.613  17.627  0.00  0.00    +0.024 A 
ATOM     28  C   UNL     1      -4.734 -10.107  15.929  0.00  0.00    +0.024 A 
ATOM     29  C   UNL     1      -3.731 -10.945  16.416  0.00  0.00    +0.029 A 
BRANCH  29   7
ATOM      7  N   UNL     1      -2.538 -11.117  15.684  0.00  0.00    -0.336 N 
ATOM     30  C   UNL     1      -1.377 -10.299  15.971  0.00  0.00    +0.129 C 
ATOM     31  C   UNL     1      -2.456 -12.117  14.638  0.00  0.00    +0.129 C 
ENDBRANCH  29   7
ENDBRANCH  23  24
ENDBRANCH  14   6
ENDBRANCH   9  14
BRANCH  11  16
ATOM     16  C   UNL     1     -11.251  -6.289  16.407  0.00  0.00    +0.190 C 
BRANCH  16   3
ATOM      3  O   UNL     1     -10.577  -5.766  15.274  0.00  0.00    -0.392 OA
ATOM     34  H   UNL     1      -9.646  -6.039  15.344  0.00  0.00    +0.210 HD
ENDBRANCH  16   3
ENDBRANCH  11  16
TORSDOF 8
ENDMDL
MODEL 5
REMARK VINA RESULT:      -6.0     25.007     28.745
REMARK  Name = 38026613
REMARK  10 active torsions:
REMARK  status: ('A' for Active; 'I' for Inactive)
REMARK    1  A    between atoms: O_2  and  C_10
REMARK    2  A    between atoms: O_3  and  C_16
REMARK    3  A    between atoms: N_5  and  C_8
REMARK    4  A    between atoms: N_6  and  C_14
REMARK    5  A    between atoms: N_7  and  C_29
REMARK    6  A    between atoms: N_7  and  C_30
REMARK    7  A    between atoms: N_7  and  C_31
REMARK    8  A    between atoms: C_9  and  C_14
REMARK    9  A    between atoms: C_11  and  C_16
REMARK   10  A    between atoms: C_23  and  C_24
REMARK                            x       y       z     vdW  Elec       q    Type
REMARK                         _______ _______ _______ _____ _____    ______ ____
ROOT
ATOM      1  O   UNL     1      -1.323 -11.551  14.566  0.00  0.00    -0.365 OA
ATOM      8  C   UNL     1      -3.683 -11.329  14.352  0.00  0.00    +0.118 C 
ATOM      9  C   UNL     1      -2.446 -10.819  15.104  0.00  0.00    +0.155 C 
ATOM     10  C   UNL     1      -3.274 -12.732  13.930  0.00  0.00    +0.165 C 
ATOM     11  C   UNL     1      -1.803 -12.508  13.602  0.00  0.00    +0.174 C 
ENDROOT
BRANCH   8   5
ATOM      5  N   UNL     1      -4.956 -11.239  15.066  0.00  0.00    -0.290 NA
ATOM     12  C   UNL     1      -5.565  -9.916  14.880  0.00  0.00    +0.090 C 
ATOM     13  C   UNL     1      -5.877 -12.294  14.609  0.00  0.00    +0.120 C 
ATOM     15  C   UNL     1      -6.784  -9.770  15.797  0.00  0.00    +0.051 C 
ATOM     17  C   UNL     1      -7.262 -12.177  15.202  0.00  0.00    -0.030 A 
ATOM     18  C   UNL     1      -7.712 -10.955  15.732  0.00  0.00    -0.042 A 
ATOM     19  C   UNL     1      -8.131 -13.276  15.170  0.00  0.00    +0.005 A 
ATOM     20  C   UNL     1      -9.007 -10.860  16.254  0.00  0.00    +0.004 A 
ATOM     21  C   UNL     1      -9.423 -13.169  15.683  0.00  0.00    +0.000 A 
ATOM     22  C   UNL     1      -9.860 -11.963  16.227  0.00  0.00    +0.000 A 
ENDBRANCH   8   5
BRANCH  10   2
ATOM      2  O   UNL     1      -3.408 -13.657  15.001  0.00  0.00    -0.388 OA
ATOM     32  H   UNL     1      -2.582 -14.151  15.107  0.00  0.00    +0.210 HD
ENDBRANCH  10   2
BRANCH   9  14
ATOM     14  C   UNL     1      -2.434 -11.017  16.615  0.00  0.00    +0.137 C 
BRANCH  14   6
ATOM      4  O   UNL     1      -3.182 -11.850  19.259  0.00  0.00    -0.270 OA
ATOM      6  N   UNL     1      -3.765 -11.131  17.131  0.00  0.00    -0.309 N 
ATOM     23  C   UNL     1      -4.037 -11.545  18.433  0.00  0.00    +0.244 C 
ATOM     33  H   UNL     1      -4.521 -10.946  16.482  0.00  0.00    +0.149 HD
BRANCH  23  24
ATOM     24  C   UNL     1      -5.472 -11.636  18.808  0.00  0.00    +0.037 A 
ATOM     25  C   UNL     1      -6.127 -10.522  19.334  0.00  0.00    +0.015 A 
ATOM     26  C   UNL     1      -6.165 -12.834  18.635  0.00  0.00    +0.015 A 
ATOM     27  C   UNL     1      -7.474 -10.606  19.686  0.00  0.00    +0.024 A 
ATOM     28  C   UNL     1      -7.511 -12.918  18.987  0.00  0.00    +0.024 A 
ATOM     29  C   UNL     1      -8.166 -11.804  19.512  0.00  0.00    +0.029 A 
BRANCH  29   7
ATOM      7  N   UNL     1      -9.529 -11.890  19.868  0.00  0.00    -0.336 N 
ATOM     30  C   UNL     1     -10.320 -10.688  20.035  0.00  0.00    +0.129 C 
ATOM     31  C   UNL     1     -10.156 -13.182  20.063  0.00  0.00    +0.129 C 
ENDBRANCH  29   7
ENDBRANCH  23  24
ENDBRANCH  14   6
ENDBRANCH   9  14
BRANCH  11  16
ATOM     16  C   UNL     1      -0.927 -13.747  13.648  0.00  0.00    +0.190 C 
BRANCH  16   3
ATOM      3  O   UNL     1      -1.425 -14.696  12.718  0.00  0.00    -0.392 OA
ATOM     34  H   UNL     1      -0.873 -14.630  11.919  0.00  0.00    +0.210 HD
ENDBRANCH  16   3
ENDBRANCH  11  16
TORSDOF 8
ENDMDL
MODEL 6
REMARK VINA RESULT:      -6.0      3.282      7.126
REMARK  Name = 38026613
REMARK  10 active torsions:
REMARK  status: ('A' for Active; 'I' for Inactive)
REMARK    1  A    between atoms: O_2  and  C_10
REMARK    2  A    between atoms: O_3  and  C_16
REMARK    3  A    between atoms: N_5  and  C_8
REMARK    4  A    between atoms: N_6  and  C_14
REMARK    5  A    between atoms: N_7  and  C_29
REMARK    6  A    between atoms: N_7  and  C_30
REMARK    7  A    between atoms: N_7  and  C_31
REMARK    8  A    between atoms: C_9  and  C_14
REMARK    9  A    between atoms: C_11  and  C_16
REMARK   10  A    between atoms: C_23  and  C_24
REMARK                            x       y       z     vdW  Elec       q    Type
REMARK                         _______ _______ _______ _____ _____    ______ ____
ROOT
ATOM      1  O   UNL     1      13.978   5.272  -0.353  0.00  0.00    -0.365 OA
ATOM      8  C   UNL     1      12.073   5.230   1.074  0.00  0.00    +0.118 C 
ATOM      9  C   UNL     1      12.797   6.034  -0.013  0.00  0.00    +0.155 C 
ATOM     10  C   UNL     1      13.198   4.434   1.719  0.00  0.00    +0.165 C 
ATOM     11  C   UNL     1      14.050   4.112   0.498  0.00  0.00    +0.174 C 
ENDROOT
BRANCH   8   5
ATOM      5  N   UNL     1      11.241   5.998   2.000  0.00  0.00    -0.290 NA
ATOM     12  C   UNL     1       9.956   6.344   1.381  0.00  0.00    +0.090 C 
ATOM     13  C   UNL     1      11.021   5.239   3.243  0.00  0.00    +0.120 C 
ATOM     15  C   UNL     1       9.190   7.318   2.281  0.00  0.00    +0.051 C 
ATOM     17  C   UNL     1      10.055   5.911   4.191  0.00  0.00    -0.030 A 
ATOM     18  C   UNL     1       9.148   6.876   3.721  0.00  0.00    -0.042 A 
ATOM     19  C   UNL     1      10.017   5.527   5.538  0.00  0.00    +0.005 A 
ATOM     20  C   UNL     1       8.243   7.469   4.611  0.00  0.00    +0.004 A 
ATOM     21  C   UNL     1       9.106   6.116   6.415  0.00  0.00    +0.000 A 
ATOM     22  C   UNL     1       8.221   7.088   5.952  0.00  0.00    +0.000 A 
ENDBRANCH   8   5
BRANCH  10   2
ATOM      2  O   UNL     1      13.933   5.227   2.641  0.00  0.00    -0.388 OA
ATOM     32  H   UNL     1      13.620   6.143   2.602  0.00  0.00    +0.210 HD
ENDBRANCH  10   2
BRANCH   9  14
ATOM     14  C   UNL     1      13.258   7.437   0.365  0.00  0.00    +0.137 C 
BRANCH  14   6
ATOM      4  O   UNL     1      12.904  10.147   1.243  0.00  0.00    -0.270 OA
ATOM      6  N   UNL     1      12.649   7.867   1.588  0.00  0.00    -0.309 N 
ATOM     23  C   UNL     1      12.519   9.210   1.935  0.00  0.00    +0.244 C 
ATOM     33  H   UNL     1      12.358   7.139   2.231  0.00  0.00    +0.149 HD
BRANCH  23  24
ATOM     24  C   UNL     1      11.888   9.490   3.251  0.00  0.00    +0.037 A 
ATOM     25  C   UNL     1      12.258   8.750   4.374  0.00  0.00    +0.015 A 
ATOM     26  C   UNL     1      10.923  10.491   3.363  0.00  0.00    +0.015 A 
ATOM     27  C   UNL     1      11.666   9.013   5.609  0.00  0.00    +0.024 A 
ATOM     28  C   UNL     1      10.330  10.753   4.598  0.00  0.00    +0.024 A 
ATOM     29  C   UNL     1      10.702  10.014   5.721  0.00  0.00    +0.029 A 
BRANCH  29   7
ATOM      7  N   UNL     1      10.103  10.280   6.970  0.00  0.00    -0.336 N 
ATOM     30  C   UNL     1       9.278  11.457   7.153  0.00  0.00    +0.129 C 
ATOM     31  C   UNL     1      10.300   9.376   8.086  0.00  0.00    +0.129 C 
ENDBRANCH  29   7
ENDBRANCH  23  24
ENDBRANCH  14   6
ENDBRANCH   9  14
BRANCH  11  16
ATOM     16  C   UNL     1      15.505   3.790   0.783  0.00  0.00    +0.190 C 
BRANCH  16   3
ATOM      3  O   UNL     1      15.585   3.059   1.996  0.00  0.00    -0.392 OA
ATOM     34  H   UNL     1      16.156   3.566   2.599  0.00  0.00    +0.210 HD
ENDBRANCH  16   3
ENDBRANCH  11  16
TORSDOF 8
ENDMDL
MODEL 7
REMARK VINA RESULT:      -6.0     23.122     27.064
REMARK  Name = 38026613
REMARK  10 active torsions:
REMARK  status: ('A' for Active; 'I' for Inactive)
REMARK    1  A    between atoms: O_2  and  C_10
REMARK    2  A    between atoms: O_3  and  C_16
REMARK    3  A    between atoms: N_5  and  C_8
REMARK    4  A    between atoms: N_6  and  C_14
REMARK    5  A    between atoms: N_7  and  C_29
REMARK    6  A    between atoms: N_7  and  C_30
REMARK    7  A    between atoms: N_7  and  C_31
REMARK    8  A    between atoms: C_9  and  C_14
REMARK    9  A    between atoms: C_11  and  C_16
REMARK   10  A    between atoms: C_23  and  C_24
REMARK                            x       y       z     vdW  Elec       q    Type
REMARK                         _______ _______ _______ _____ _____    ______ ____
ROOT
ATOM      1  O   UNL     1      -5.846 -12.116  19.334  0.00  0.00    -0.365 OA
ATOM      8  C   UNL     1      -5.862 -13.280  17.257  0.00  0.00    +0.118 C 
ATOM      9  C   UNL     1      -4.958 -12.679  18.343  0.00  0.00    +0.155 C 
ATOM     10  C   UNL     1      -7.137 -12.459  17.378  0.00  0.00    +0.165 C 
ATOM     11  C   UNL     1      -7.208 -12.272  18.889  0.00  0.00    +0.174 C 
ENDROOT
BRANCH   8   5
ATOM      5  N   UNL     1      -5.294 -13.355  15.912  0.00  0.00    -0.290 NA
ATOM     12  C   UNL     1      -4.353 -14.477  15.806  0.00  0.00    +0.090 C 
ATOM     13  C   UNL     1      -6.364 -13.491  14.909  0.00  0.00    +0.120 C 
ATOM     15  C   UNL     1      -3.616 -14.414  14.464  0.00  0.00    +0.051 C 
ATOM     17  C   UNL     1      -5.846 -13.715  13.507  0.00  0.00    -0.030 A 
ATOM     18  C   UNL     1      -4.544 -14.199  13.296  0.00  0.00    -0.042 A 
ATOM     19  C   UNL     1      -6.688 -13.499  12.408  0.00  0.00    +0.005 A 
ATOM     20  C   UNL     1      -4.090 -14.424  11.991  0.00  0.00    +0.004 A 
ATOM     21  C   UNL     1      -6.231 -13.735  11.112  0.00  0.00    +0.000 A 
ATOM     22  C   UNL     1      -4.933 -14.195  10.903  0.00  0.00    +0.000 A 
ENDBRANCH   8   5
BRANCH  10   2
ATOM      2  O   UNL     1      -7.008 -11.201  16.729  0.00  0.00    -0.388 OA
ATOM     32  H   UNL     1      -7.869 -10.925  16.382  0.00  0.00    +0.210 HD
ENDBRANCH  10   2
BRANCH   9  14
ATOM     14  C   UNL     1      -4.008 -11.571  17.905  0.00  0.00    +0.137 C 
BRANCH  14   6
ATOM      4  O   UNL     1      -1.889 -10.672  16.190  0.00  0.00    -0.270 OA
ATOM      6  N   UNL     1      -4.086 -11.352  16.492  0.00  0.00    -0.309 N 
ATOM     23  C   UNL     1      -3.003 -10.913  15.735  0.00  0.00    +0.244 C 
ATOM     33  H   UNL     1      -4.995 -11.481  16.062  0.00  0.00    +0.149 HD
BRANCH  23  24
ATOM     24  C   UNL     1      -3.254 -10.709  14.284  0.00  0.00    +0.037 A 
ATOM     25  C   UNL     1      -2.199 -10.794  13.376  0.00  0.00    +0.015 A 
ATOM     26  C   UNL     1      -4.544 -10.432  13.831  0.00  0.00    +0.015 A 
ATOM     27  C   UNL     1      -2.434 -10.604  12.014  0.00  0.00    +0.024 A 
ATOM     28  C   UNL     1      -4.778 -10.241  12.470  0.00  0.00    +0.024 A 
ATOM     29  C   UNL     1      -3.723 -10.327  11.561  0.00  0.00    +0.029 A 
BRANCH  29   7
ATOM      7  N   UNL     1      -3.961 -10.134  10.184  0.00  0.00    -0.336 N 
ATOM     30  C   UNL     1      -4.082  -8.797   9.641  0.00  0.00    +0.129 C 
ATOM     31  C   UNL     1      -4.082 -11.272   9.294  0.00  0.00    +0.129 C 
ENDBRANCH  29   7
ENDBRANCH  23  24
ENDBRANCH  14   6
ENDBRANCH   9  14
BRANCH  11  16
ATOM     16  C   UNL     1      -8.029 -11.087  19.363  0.00  0.00    +0.190 C 
BRANCH  16   3
ATOM      3  O   UNL     1      -7.150 -10.030  19.713  0.00  0.00    -0.392 OA
ATOM     34  H   UNL     1      -6.446 -10.010  19.043  0.00  0.00    +0.210 HD
ENDBRANCH  16   3
ENDBRANCH  11  16
TORSDOF 8
ENDMDL
MODEL 8
REMARK VINA RESULT:      -6.0     23.918     26.771
REMARK  Name = 38026613
REMARK  10 active torsions:
REMARK  status: ('A' for Active; 'I' for Inactive)
REMARK    1  A    between atoms: O_2  and  C_10
REMARK    2  A    between atoms: O_3  and  C_16
REMARK    3  A    between atoms: N_5  and  C_8
REMARK    4  A    between atoms: N_6  and  C_14
REMARK    5  A    between atoms: N_7  and  C_29
REMARK    6  A    between atoms: N_7  and  C_30
REMARK    7  A    between atoms: N_7  and  C_31
REMARK    8  A    between atoms: C_9  and  C_14
REMARK    9  A    between atoms: C_11  and  C_16
REMARK   10  A    between atoms: C_23  and  C_24
REMARK                            x       y       z     vdW  Elec       q    Type
REMARK                         _______ _______ _______ _____ _____    ______ ____
ROOT
ATOM      1  O   UNL     1      -4.084 -12.616  17.221  0.00  0.00    -0.365 OA
ATOM      8  C   UNL     1      -6.289 -11.785  16.880  0.00  0.00    +0.118 C 
ATOM      9  C   UNL     1      -4.942 -12.064  16.198  0.00  0.00    +0.155 C 
ATOM     10  C   UNL     1      -5.901 -11.587  18.337  0.00  0.00    +0.165 C 
ATOM     11  C   UNL     1      -4.791 -12.622  18.476  0.00  0.00    +0.174 C 
ENDROOT
BRANCH   8   5
ATOM      5  N   UNL     1      -7.099 -10.716  16.299  0.00  0.00    -0.290 NA
ATOM     12  C   UNL     1      -7.818 -11.193  15.111  0.00  0.00    +0.090 C 
ATOM     13  C   UNL     1      -8.050 -10.192  17.295  0.00  0.00    +0.120 C 
ATOM     15  C   UNL     1      -8.491 -10.015  14.401  0.00  0.00    +0.051 C 
ATOM     17  C   UNL     1      -9.016  -9.180  16.725  0.00  0.00    -0.030 A 
ATOM     18  C   UNL     1      -9.260  -9.125  15.342  0.00  0.00    -0.042 A 
ATOM     19  C   UNL     1      -9.724  -8.329  17.585  0.00  0.00    +0.005 A 
ATOM     20  C   UNL     1     -10.178  -8.196  14.836  0.00  0.00    +0.004 A 
ATOM     21  C   UNL     1     -10.644  -7.414  17.073  0.00  0.00    +0.000 A 
ATOM     22  C   UNL     1     -10.868  -7.346  15.699  0.00  0.00    +0.000 A 
ENDBRANCH   8   5
BRANCH  10   2
ATOM      2  O   UNL     1      -5.390 -10.280  18.566  0.00  0.00    -0.388 OA
ATOM     32  H   UNL     1      -6.011  -9.624  18.217  0.00  0.00    +0.210 HD
ENDBRANCH  10   2
BRANCH   9  14
ATOM     14  C   UNL     1      -4.218 -10.864  15.599  0.00  0.00    +0.137 C 
BRANCH  14   6
ATOM      4  O   UNL     1      -2.569 -10.406  13.294  0.00  0.00    -0.270 OA
ATOM      6  N   UNL     1      -4.668 -10.604  14.264  0.00  0.00    -0.309 N 
ATOM     23  C   UNL     1      -3.793 -10.392  13.201  0.00  0.00    +0.244 C 
ATOM     33  H   UNL     1      -5.669 -10.525  14.129  0.00  0.00    +0.149 HD
BRANCH  23  24
ATOM     24  C   UNL     1      -4.418 -10.110  11.882  0.00  0.00    +0.037 A 
ATOM     25  C   UNL     1      -5.672  -9.503  11.821  0.00  0.00    +0.015 A 
ATOM     26  C   UNL     1      -3.750 -10.452  10.706  0.00  0.00    +0.015 A 
ATOM     27  C   UNL     1      -6.259  -9.238  10.584  0.00  0.00    +0.024 A 
ATOM     28  C   UNL     1      -4.338 -10.186   9.469  0.00  0.00    +0.024 A 
ATOM     29  C   UNL     1      -5.592  -9.579   9.408  0.00  0.00    +0.029 A 
BRANCH  29   7
ATOM      7  N   UNL     1      -6.185  -9.311   8.157  0.00  0.00    -0.336 N 
ATOM     30  C   UNL     1      -5.662  -9.920   6.951  0.00  0.00    +0.129 C 
ATOM     31  C   UNL     1      -7.330  -8.427   8.061  0.00  0.00    +0.129 C 
ENDBRANCH  29   7
ENDBRANCH  23  24
ENDBRANCH  14   6
ENDBRANCH   9  14
BRANCH  11  16
ATOM     16  C   UNL     1      -3.808 -12.379  19.606  0.00  0.00    +0.190 C 
BRANCH  16   3
ATOM      3  O   UNL     1      -2.615 -11.833  19.068  0.00  0.00    -0.392 OA
ATOM     34  H   UNL     1      -2.643 -10.874  19.227  0.00  0.00    +0.210 HD
ENDBRANCH  16   3
ENDBRANCH  11  16
TORSDOF 8
ENDMDL
MODEL 9
REMARK VINA RESULT:      -5.9     23.664     28.221
REMARK  Name = 38026613
REMARK  10 active torsions:
REMARK  status: ('A' for Active; 'I' for Inactive)
REMARK    1  A    between atoms: O_2  and  C_10
REMARK    2  A    between atoms: O_3  and  C_16
REMARK    3  A    between atoms: N_5  and  C_8
REMARK    4  A    between atoms: N_6  and  C_14
REMARK    5  A    between atoms: N_7  and  C_29
REMARK    6  A    between atoms: N_7  and  C_30
REMARK    7  A    between atoms: N_7  and  C_31
REMARK    8  A    between atoms: C_9  and  C_14
REMARK    9  A    between atoms: C_11  and  C_16
REMARK   10  A    between atoms: C_23  and  C_24
REMARK                            x       y       z     vdW  Elec       q    Type
REMARK                         _______ _______ _______ _____ _____    ______ ____
ROOT
ATOM      1  O   UNL     1      -2.731 -12.440  12.161  0.00  0.00    -0.365 OA
ATOM      8  C   UNL     1      -3.343 -12.563  14.458  0.00  0.00    +0.118 C 
ATOM      9  C   UNL     1      -3.657 -13.098  13.054  0.00  0.00    +0.155 C 
ATOM     10  C   UNL     1      -2.733 -11.199  14.178  0.00  0.00    +0.165 C 
ATOM     11  C   UNL     1      -1.937 -11.501  12.914  0.00  0.00    +0.174 C 
ENDROOT
BRANCH   8   5
ATOM      5  N   UNL     1      -4.451 -12.568  15.413  0.00  0.00    -0.290 NA
ATOM     12  C   UNL     1      -4.620 -13.899  16.009  0.00  0.00    +0.090 C 
ATOM     13  C   UNL     1      -4.224 -11.562  16.466  0.00  0.00    +0.120 C 
ATOM     15  C   UNL     1      -5.905 -13.937  16.843  0.00  0.00    +0.051 C 
ATOM     17  C   UNL     1      -5.260 -11.605  17.567  0.00  0.00    -0.030 A 
ATOM     18  C   UNL     1      -6.034 -12.759  17.774  0.00  0.00    -0.042 A 
ATOM     19  C   UNL     1      -5.408 -10.510  18.429  0.00  0.00    +0.005 A 
ATOM     20  C   UNL     1      -6.970 -12.788  18.815  0.00  0.00    +0.004 A 
ATOM     21  C   UNL     1      -6.336 -10.552  19.469  0.00  0.00    +0.000 A 
ATOM     22  C   UNL     1      -7.119 -11.689  19.660  0.00  0.00    +0.000 A 
ENDBRANCH   8   5
BRANCH  10   2
ATOM      2  O   UNL     1      -3.735 -10.226  13.911  0.00  0.00    -0.388 OA
ATOM     32  H   UNL     1      -3.428  -9.356  14.205  0.00  0.00    +0.210 HD
ENDBRANCH  10   2
BRANCH   9  14
ATOM     14  C   UNL     1      -5.061 -12.839  12.522  0.00  0.00    +0.137 C 
BRANCH  14   6
ATOM      4  O   UNL     1      -7.837 -13.311  13.079  0.00  0.00    -0.270 OA
ATOM      6  N   UNL     1      -5.865 -12.162  13.494  0.00  0.00    -0.309 N 
ATOM     23  C   UNL     1      -7.211 -12.456  13.698  0.00  0.00    +0.244 C 
ATOM     33  H   UNL     1      -5.421 -11.406  14.002  0.00  0.00    +0.149 HD
BRANCH  23  24
ATOM     24  C   UNL     1      -7.912 -11.645  14.727  0.00  0.00    +0.037 A 
ATOM     25  C   UNL     1      -7.504 -10.336  14.980  0.00  0.00    +0.015 A 
ATOM     26  C   UNL     1      -8.978 -12.194  15.442  0.00  0.00    +0.015 A 
ATOM     27  C   UNL     1      -8.161  -9.574  15.945  0.00  0.00    +0.024 A 
ATOM     28  C   UNL     1      -9.634 -11.432  16.407  0.00  0.00    +0.024 A 
ATOM     29  C   UNL     1      -9.227 -10.122  16.659  0.00  0.00    +0.029 A 
BRANCH  29   7
ATOM      7  N   UNL     1      -9.893  -9.352  17.636  0.00  0.00    -0.336 N 
ATOM     30  C   UNL     1     -10.082  -7.928  17.444  0.00  0.00    +0.129 C 
ATOM     31  C   UNL     1     -10.402  -9.976  18.841  0.00  0.00    +0.129 C 
ENDBRANCH  29   7
ENDBRANCH  23  24
ENDBRANCH  14   6
ENDBRANCH   9  14
BRANCH  11  16
ATOM     16  C   UNL     1      -1.617 -10.302  12.040  0.00  0.00    +0.190 C 
BRANCH  16   3
ATOM      3  O   UNL     1      -2.696 -10.085  11.146  0.00  0.00    -0.392 OA
ATOM     34  H   UNL     1      -3.445 -10.616  11.467  0.00  0.00    +0.210 HD
ENDBRANCH  16   3
ENDBRANCH  11  16
TORSDOF 8
ENDMDL
MODEL 10
REMARK VINA RESULT:      -5.9     23.764     27.853
REMARK  Name = 38026613
REMARK  10 active torsions:
REMARK  status: ('A' for Active; 'I' for Inactive)
REMARK    1  A    between atoms: O_2  and  C_10
REMARK    2  A    between atoms: O_3  and  C_16
REMARK    3  A    between atoms: N_5  and  C_8
REMARK    4  A    between atoms: N_6  and  C_14
REMARK    5  A    between atoms: N_7  and  C_29
REMARK    6  A    between atoms: N_7  and  C_30
REMARK    7  A    between atoms: N_7  and  C_31
REMARK    8  A    between atoms: C_9  and  C_14
REMARK    9  A    between atoms: C_11  and  C_16
REMARK   10  A    between atoms: C_23  and  C_24
REMARK                            x       y       z     vdW  Elec       q    Type
REMARK                         _______ _______ _______ _____ _____    ______ ____
ROOT
ATOM      1  O   UNL     1      -7.572 -11.276  19.856  0.00  0.00    -0.365 OA
ATOM      8  C   UNL     1      -7.173 -12.731  18.015  0.00  0.00    +0.118 C 
ATOM      9  C   UNL     1      -6.500 -11.913  19.125  0.00  0.00    +0.155 C 
ATOM     10  C   UNL     1      -8.485 -11.995  17.793  0.00  0.00    +0.165 C 
ATOM     11  C   UNL     1      -8.827 -11.593  19.223  0.00  0.00    +0.174 C 
ENDROOT
BRANCH   8   5
ATOM      5  N   UNL     1      -6.377 -12.962  16.810  0.00  0.00    -0.290 NA
ATOM     12  C   UNL     1      -5.523 -14.146  16.969  0.00  0.00    +0.090 C 
ATOM     13  C   UNL     1      -7.254 -13.121  15.637  0.00  0.00    +0.120 C 
ATOM     15  C   UNL     1      -4.551 -14.250  15.789  0.00  0.00    +0.051 C 
ATOM     17  C   UNL     1      -6.508 -13.502  14.379  0.00  0.00    -0.030 A 
ATOM     18  C   UNL     1      -5.231 -14.084  14.455  0.00  0.00    -0.042 A 
ATOM     19  C   UNL     1      -7.116 -13.334  13.128  0.00  0.00    +0.005 A 
ATOM     20  C   UNL     1      -4.566 -14.453  13.279  0.00  0.00    +0.004 A 
ATOM     21  C   UNL     1      -6.451 -13.714  11.963  0.00  0.00    +0.000 A 
ATOM     22  C   UNL     1      -5.176 -14.271  12.038  0.00  0.00    +0.000 A 
ENDBRANCH   8   5
BRANCH  10   2
ATOM      2  O   UNL     1      -8.304 -10.840  16.984  0.00  0.00    -0.388 OA
ATOM     32  H   UNL     1      -7.579 -10.306  17.341  0.00  0.00    +0.210 HD
ENDBRANCH  10   2
BRANCH   9  14
ATOM     14  C   UNL     1      -5.540 -10.816  18.681  0.00  0.00    +0.137 C 
BRANCH  14   6
ATOM      4  O   UNL     1      -3.212 -10.719  17.004  0.00  0.00    -0.270 OA
ATOM      6  N   UNL     1      -5.519 -10.696  17.255  0.00  0.00    -0.309 N 
ATOM     23  C   UNL     1      -4.337 -10.656  16.518  0.00  0.00    +0.244 C 
ATOM     33  H   UNL     1      -6.415 -10.585  16.794  0.00  0.00    +0.149 HD
BRANCH  23  24
ATOM     24  C   UNL     1      -4.484 -10.503  15.047  0.00  0.00    +0.037 A 
ATOM     25  C   UNL     1      -5.678 -10.019  14.513  0.00  0.00    +0.015 A 
ATOM     26  C   UNL     1      -3.429 -10.845  14.200  0.00  0.00    +0.015 A 
ATOM     27  C   UNL     1      -5.817  -9.875  13.132  0.00  0.00    +0.024 A 
ATOM     28  C   UNL     1      -3.569 -10.701  12.820  0.00  0.00    +0.024 A 
ATOM     29  C   UNL     1      -4.762 -10.216  12.286  0.00  0.00    +0.029 A 
BRANCH  29   7
ATOM      7  N   UNL     1      -4.902 -10.070  10.890  0.00  0.00    -0.336 N 
ATOM     30  C   UNL     1      -6.180 -10.312  10.251  0.00  0.00    +0.129 C 
ATOM     31  C   UNL     1      -3.771  -9.670  10.077  0.00  0.00    +0.129 C 
ENDBRANCH  29   7
ENDBRANCH  23  24
ENDBRANCH  14   6
ENDBRANCH   9  14
BRANCH  11  16
ATOM     16  C   UNL     1      -9.771 -10.413  19.363  0.00  0.00    +0.190 C 
BRANCH  16   3
ATOM      3  O   UNL     1     -10.070 -10.225  20.736  0.00  0.00    -0.392 OA
ATOM     34  H   UNL     1      -9.398  -9.620  21.096  0.00  0.00    +0.210 HD
ENDBRANCH  16   3
ENDBRANCH  11  16
TORSDOF 8
ENDMDL
