MODEL 1
REMARK VINA RESULT:      -7.6      0.000      0.000
REMARK  Name = 25389527
REMARK  9 active torsions:
REMARK  status: ('A' for Active; 'I' for Inactive)
REMARK    1  A    between atoms: O_1  and  C_15
REMARK    2  A    between atoms: O_1  and  C_20
REMARK    3  A    between atoms: N_4  and  C_18
REMARK    4  A    between atoms: N_6  and  C_23
REMARK    5  A    between atoms: C_8  and  C_14
REMARK    6  A    between atoms: C_9  and  C_15
REMARK    7  A    between atoms: C_17  and  C_19
REMARK    8  A    between atoms: C_23  and  C_27
REMARK    9  A    between atoms: C_23  and  C_28
REMARK                            x       y       z     vdW  Elec       q    Type
REMARK                         _______ _______ _______ _____ _____    ______ ____
ROOT
ATOM      3  N   UNL     1      12.935   6.921  21.173  0.00  0.00    -0.296 NA
ATOM      7  C   UNL     1      11.399   8.844  20.322  0.00  0.00    +0.002 C 
ATOM      8  C   UNL     1      12.046   8.095  19.125  0.00  0.00    +0.055 C 
ATOM      9  C   UNL     1      13.261   8.184  21.885  0.00  0.00    +0.095 C 
ATOM     10  C   UNL     1      12.509   9.376  21.253  0.00  0.00    +0.026 C 
ATOM     11  C   UNL     1      10.600   7.794  21.124  0.00  0.00    +0.019 C 
ATOM     12  C   UNL     1      13.094   7.105  19.708  0.00  0.00    +0.094 C 
ATOM     13  C   UNL     1      11.513   6.599  21.446  0.00  0.00    +0.085 C 
ENDROOT
BRANCH   8  14
ATOM      4  N   UNL     1      11.942   9.121  16.805  0.00  0.00    -0.270 N 
ATOM      5  N   UNL     1      12.611   9.881  15.922  0.00  0.00    -0.171 NA
ATOM     14  C   UNL     1      12.609   8.924  17.979  0.00  0.00    +0.044 A 
ATOM     16  C   UNL     1      13.797   9.601  17.854  0.00  0.00    +0.053 A 
ATOM     17  C   UNL     1      13.743  10.172  16.568  0.00  0.00    +0.093 A 
ATOM     18  C   UNL     1      10.641   8.604  16.450  0.00  0.00    +0.172 C 
BRANCH  17  19
ATOM     19  C   UNL     1      14.753  10.987  15.945  0.00  0.00    +0.003 A 
ATOM     21  C   UNL     1      14.878  11.002  14.555  0.00  0.00    +0.018 A 
ATOM     22  C   UNL     1      15.603  11.762  16.728  0.00  0.00    +0.011 A 
ATOM     24  C   UNL     1      15.857  11.792  13.932  0.00  0.00    -0.017 A 
ATOM     25  C   UNL     1      16.581  12.553  16.126  0.00  0.00    +0.009 A 
ATOM     26  C   UNL     1      16.721  12.580  14.729  0.00  0.00    -0.018 A 
ATOM     29  C   UNL     1      15.998  11.819  12.535  0.00  0.00    +0.008 A 
ATOM     30  C   UNL     1      17.701  13.371  14.106  0.00  0.00    +0.008 A 
ATOM     31  C   UNL     1      16.976  12.610  11.932  0.00  0.00    +0.001 A 
ATOM     32  C   UNL     1      17.825  13.385  12.717  0.00  0.00    +0.001 A 
ENDBRANCH  17  19
ENDBRANCH   8  14
BRANCH   9  15
ATOM     15  C   UNL     1      14.769   8.437  21.961  0.00  0.00    +0.252 C 
BRANCH  15   1
ATOM      1  O   UNL     1      15.438   7.200  21.806  0.00  0.00    -0.449 OA
BRANCH   1  20
ATOM      2  O   UNL     1      16.615   7.551  19.866  0.00  0.00    -0.226 OA
ATOM      6  N   UNL     1      17.660   6.793  21.795  0.00  0.00    -0.279 N 
ATOM     20  C   UNL     1      16.581   7.212  21.045  0.00  0.00    +0.401 C 
ATOM     33  H   UNL     1      17.501   6.586  22.776  0.00  0.00    +0.152 HD
BRANCH   6  23
ATOM     23  C   UNL     1      19.006   6.695  21.278  0.00  0.00    +0.070 C 
ATOM     27  C   UNL     1      19.109   5.546  20.283  0.00  0.00    +0.027 C 
ATOM     28  C   UNL     1      20.005   6.530  22.417  0.00  0.00    +0.027 C 
ENDBRANCH   6  23
ENDBRANCH   1  20
ENDBRANCH  15   1
ENDBRANCH   9  15
TORSDOF 6
ENDMDL
MODEL 2
REMARK VINA RESULT:      -7.4      3.957      7.212
REMARK  Name = 25389527
REMARK  9 active torsions:
REMARK  status: ('A' for Active; 'I' for Inactive)
REMARK    1  A    between atoms: O_1  and  C_15
REMARK    2  A    between atoms: O_1  and  C_20
REMARK    3  A    between atoms: N_4  and  C_18
REMARK    4  A    between atoms: N_6  and  C_23
REMARK    5  A    between atoms: C_8  and  C_14
REMARK    6  A    between atoms: C_9  and  C_15
REMARK    7  A    between atoms: C_17  and  C_19
REMARK    8  A    between atoms: C_23  and  C_27
REMARK    9  A    between atoms: C_23  and  C_28
REMARK                            x       y       z     vdW  Elec       q    Type
REMARK                         _______ _______ _______ _____ _____    ______ ____
ROOT
ATOM      3  N   UNL     1      11.311  11.938  21.589  0.00  0.00    -0.296 NA
ATOM      7  C   UNL     1      13.030  11.995  23.544  0.00  0.00    +0.002 C 
ATOM      8  C   UNL     1      13.759  12.098  22.177  0.00  0.00    +0.055 C 
ATOM      9  C   UNL     1      11.052  10.814  22.525  0.00  0.00    +0.095 C 
ATOM     10  C   UNL     1      12.181  10.706  23.574  0.00  0.00    +0.026 C 
ATOM     11  C   UNL     1      12.051  13.186  23.617  0.00  0.00    +0.019 C 
ATOM     12  C   UNL     1      12.698  11.855  21.065  0.00  0.00    +0.094 C 
ATOM     13  C   UNL     1      11.179  13.203  22.350  0.00  0.00    +0.085 C 
ENDROOT
BRANCH   8  14
ATOM      4  N   UNL     1      16.270  11.729  22.238  0.00  0.00    -0.270 N 
ATOM      5  N   UNL     1      17.245  10.839  21.985  0.00  0.00    -0.171 NA
ATOM     14  C   UNL     1      15.016  11.265  21.967  0.00  0.00    +0.044 A 
ATOM     16  C   UNL     1      15.182   9.984  21.503  0.00  0.00    +0.053 A 
ATOM     17  C   UNL     1      16.574   9.775  21.536  0.00  0.00    +0.093 A 
ATOM     18  C   UNL     1      16.620  13.034  22.749  0.00  0.00    +0.172 C 
BRANCH  17  19
ATOM     19  C   UNL     1      17.276   8.580  21.145  0.00  0.00    +0.003 A 
ATOM     21  C   UNL     1      18.597   8.384  21.548  0.00  0.00    +0.018 A 
ATOM     22  C   UNL     1      16.635   7.620  20.367  0.00  0.00    +0.011 A 
ATOM     24  C   UNL     1      19.295   7.223  21.176  0.00  0.00    -0.017 A 
ATOM     25  C   UNL     1      17.312   6.461  19.989  0.00  0.00    +0.009 A 
ATOM     26  C   UNL     1      18.642   6.247  20.385  0.00  0.00    -0.018 A 
ATOM     29  C   UNL     1      20.625   7.009  21.571  0.00  0.00    +0.008 A 
ATOM     30  C   UNL     1      19.340   5.086  20.013  0.00  0.00    +0.008 A 
ATOM     31  C   UNL     1      21.303   5.850  21.192  0.00  0.00    +0.001 A 
ATOM     32  C   UNL     1      20.661   4.890  20.415  0.00  0.00    +0.001 A 
ENDBRANCH  17  19
ENDBRANCH   8  14
BRANCH   9  15
ATOM     15  C   UNL     1      10.825   9.488  21.796  0.00  0.00    +0.252 C 
BRANCH  15   1
ATOM      1  O   UNL     1      11.960   8.667  21.997  0.00  0.00    -0.449 OA
BRANCH   1  20
ATOM      2  O   UNL     1      12.760   6.717  21.087  0.00  0.00    -0.226 OA
ATOM      6  N   UNL     1      12.127   8.504  19.750  0.00  0.00    -0.279 N 
ATOM     20  C   UNL     1      12.324   7.855  20.950  0.00  0.00    +0.401 C 
ATOM     33  H   UNL     1      11.714   9.431  19.777  0.00  0.00    +0.152 HD
BRANCH   6  23
ATOM     23  C   UNL     1      12.417   7.915  18.463  0.00  0.00    +0.070 C 
ATOM     27  C   UNL     1      13.855   8.208  18.057  0.00  0.00    +0.027 C 
ATOM     28  C   UNL     1      11.433   8.416  17.412  0.00  0.00    +0.027 C 
ENDBRANCH   6  23
ENDBRANCH   1  20
ENDBRANCH  15   1
ENDBRANCH   9  15
TORSDOF 6
ENDMDL
MODEL 3
REMARK VINA RESULT:      -7.3     24.314     26.624
REMARK  Name = 25389527
REMARK  9 active torsions:
REMARK  status: ('A' for Active; 'I' for Inactive)
REMARK    1  A    between atoms: O_1  and  C_15
REMARK    2  A    between atoms: O_1  and  C_20
REMARK    3  A    between atoms: N_4  and  C_18
REMARK    4  A    between atoms: N_6  and  C_23
REMARK    5  A    between atoms: C_8  and  C_14
REMARK    6  A    between atoms: C_9  and  C_15
REMARK    7  A    between atoms: C_17  and  C_19
REMARK    8  A    between atoms: C_23  and  C_27
REMARK    9  A    between atoms: C_23  and  C_28
REMARK                            x       y       z     vdW  Elec       q    Type
REMARK                         _______ _______ _______ _____ _____    ______ ____
ROOT
ATOM      3  N   UNL     1      15.202  -6.936  -5.866  0.00  0.00    -0.296 NA
ATOM      7  C   UNL     1      14.441  -5.570  -3.783  0.00  0.00    +0.002 C 
ATOM      8  C   UNL     1      15.886  -5.175  -4.194  0.00  0.00    +0.055 C 
ATOM      9  C   UNL     1      14.648  -7.850  -4.833  0.00  0.00    +0.095 C 
ATOM     10  C   UNL     1      14.384  -7.089  -3.516  0.00  0.00    +0.026 C 
ATOM     11  C   UNL     1      13.540  -5.290  -5.004  0.00  0.00    +0.019 C 
ATOM     12  C   UNL     1      16.340  -6.165  -5.305  0.00  0.00    +0.094 C 
ATOM     13  C   UNL     1      14.136  -5.978  -6.244  0.00  0.00    +0.085 C 
ENDROOT
BRANCH   8  14
ATOM      4  N   UNL     1      17.292  -3.812  -2.578  0.00  0.00    -0.270 N 
ATOM      5  N   UNL     1      18.229  -3.892  -1.618  0.00  0.00    -0.171 NA
ATOM     14  C   UNL     1      16.929  -5.022  -3.096  0.00  0.00    +0.044 A 
ATOM     16  C   UNL     1      17.682  -5.956  -2.429  0.00  0.00    +0.053 A 
ATOM     17  C   UNL     1      18.464  -5.203  -1.532  0.00  0.00    +0.093 A 
ATOM     18  C   UNL     1      16.779  -2.517  -2.959  0.00  0.00    +0.172 C 
BRANCH  17  19
ATOM     19  C   UNL     1      19.430  -5.714  -0.595  0.00  0.00    +0.003 A 
ATOM     21  C   UNL     1      19.925  -4.888   0.415  0.00  0.00    +0.018 A 
ATOM     22  C   UNL     1      19.870  -7.031  -0.696  0.00  0.00    +0.011 A 
ATOM     24  C   UNL     1      20.868  -5.371   1.338  0.00  0.00    -0.017 A 
ATOM     25  C   UNL     1      20.805  -7.526   0.211  0.00  0.00    +0.009 A 
ATOM     26  C   UNL     1      21.314  -6.710   1.235  0.00  0.00    -0.018 A 
ATOM     29  C   UNL     1      21.378  -4.555   2.361  0.00  0.00    +0.008 A 
ATOM     30  C   UNL     1      22.257  -7.193   2.157  0.00  0.00    +0.008 A 
ATOM     31  C   UNL     1      22.313  -5.051   3.268  0.00  0.00    +0.001 A 
ATOM     32  C   UNL     1      22.752  -6.368   3.166  0.00  0.00    +0.001 A 
ENDBRANCH  17  19
ENDBRANCH   8  14
BRANCH   9  15
ATOM     15  C   UNL     1      15.528  -9.082  -4.612  0.00  0.00    +0.252 C 
BRANCH  15   1
ATOM      1  O   UNL     1      15.975  -9.076  -3.269  0.00  0.00    -0.449 OA
BRANCH   1  20
ATOM      2  O   UNL     1      18.158  -9.445  -3.879  0.00  0.00    -0.226 OA
ATOM      6  N   UNL     1      17.374 -10.036  -1.778  0.00  0.00    -0.279 N 
ATOM     20  C   UNL     1      17.259  -9.515  -3.048  0.00  0.00    +0.401 C 
ATOM     33  H   UNL     1      16.560  -9.991  -1.173  0.00  0.00    +0.152 HD
BRANCH   6  23
ATOM     23  C   UNL     1      18.601 -10.582  -1.243  0.00  0.00    +0.070 C 
ATOM     27  C   UNL     1      18.776 -12.028  -1.689  0.00  0.00    +0.027 C 
ATOM     28  C   UNL     1      18.620 -10.467   0.276  0.00  0.00    +0.027 C 
ENDBRANCH   6  23
ENDBRANCH   1  20
ENDBRANCH  15   1
ENDBRANCH   9  15
TORSDOF 6
ENDMDL
MODEL 4
REMARK VINA RESULT:      -7.3     26.500     29.422
REMARK  Name = 25389527
REMARK  9 active torsions:
REMARK  status: ('A' for Active; 'I' for Inactive)
REMARK    1  A    between atoms: O_1  and  C_15
REMARK    2  A    between atoms: O_1  and  C_20
REMARK    3  A    between atoms: N_4  and  C_18
REMARK    4  A    between atoms: N_6  and  C_23
REMARK    5  A    between atoms: C_8  and  C_14
REMARK    6  A    between atoms: C_9  and  C_15
REMARK    7  A    between atoms: C_17  and  C_19
REMARK    8  A    between atoms: C_23  and  C_27
REMARK    9  A    between atoms: C_23  and  C_28
REMARK                            x       y       z     vdW  Elec       q    Type
REMARK                         _______ _______ _______ _____ _____    ______ ____
ROOT
ATOM      3  N   UNL     1      -5.933 -10.452  18.177  0.00  0.00    -0.296 NA
ATOM      7  C   UNL     1      -4.750 -12.439  16.980  0.00  0.00    +0.002 C 
ATOM      8  C   UNL     1      -4.090 -11.092  16.579  0.00  0.00    +0.055 C 
ATOM      9  C   UNL     1      -6.943 -11.327  17.528  0.00  0.00    +0.095 C 
ATOM     10  C   UNL     1      -6.256 -12.389  16.643  0.00  0.00    +0.026 C 
ATOM     11  C   UNL     1      -4.633 -12.552  18.515  0.00  0.00    +0.019 C 
ATOM     12  C   UNL     1      -4.968  -9.950  17.166  0.00  0.00    +0.094 C 
ATOM     13  C   UNL     1      -5.187 -11.271  19.162  0.00  0.00    +0.085 C 
ENDROOT
BRANCH   8  14
ATOM      4  N   UNL     1      -2.486 -10.623  14.668  0.00  0.00    -0.270 N 
ATOM      5  N   UNL     1      -2.401 -10.449  13.338  0.00  0.00    -0.171 NA
ATOM     14  C   UNL     1      -3.754 -10.865  15.112  0.00  0.00    +0.044 A 
ATOM     16  C   UNL     1      -4.552 -10.846  13.996  0.00  0.00    +0.053 A 
ATOM     17  C   UNL     1      -3.666 -10.585  12.933  0.00  0.00    +0.093 A 
ATOM     18  C   UNL     1      -1.287 -10.542  15.469  0.00  0.00    +0.172 C 
BRANCH  17  19
ATOM     19  C   UNL     1      -4.005 -10.464  11.539  0.00  0.00    +0.003 A 
ATOM     21  C   UNL     1      -3.938 -11.581  10.705  0.00  0.00    +0.018 A 
ATOM     22  C   UNL     1      -4.401  -9.234  11.023  0.00  0.00    +0.011 A 
ATOM     24  C   UNL     1      -4.266 -11.480   9.343  0.00  0.00    -0.017 A 
ATOM     25  C   UNL     1      -4.731  -9.115   9.673  0.00  0.00    +0.009 A 
ATOM     26  C   UNL     1      -4.669 -10.229   8.820  0.00  0.00    -0.018 A 
ATOM     29  C   UNL     1      -4.204 -12.593   8.489  0.00  0.00    +0.008 A 
ATOM     30  C   UNL     1      -4.998 -10.127   7.458  0.00  0.00    +0.008 A 
ATOM     31  C   UNL     1      -4.534 -12.475   7.140  0.00  0.00    +0.001 A 
ATOM     32  C   UNL     1      -4.930 -11.244   6.625  0.00  0.00    +0.001 A 
ENDBRANCH  17  19
ENDBRANCH   8  14
BRANCH   9  15
ATOM     15  C   UNL     1      -7.991 -10.529  16.749  0.00  0.00    +0.252 C 
BRANCH  15   1
ATOM      1  O   UNL     1      -8.272  -9.342  17.466  0.00  0.00    -0.449 OA
BRANCH   1  20
ATOM      2  O   UNL     1     -10.325  -9.535  18.477  0.00  0.00    -0.226 OA
ATOM      6  N   UNL     1      -9.979  -8.065  16.715  0.00  0.00    -0.279 N 
ATOM     20  C   UNL     1      -9.599  -9.024  17.630  0.00  0.00    +0.401 C 
ATOM     33  H   UNL     1      -9.264  -7.692  16.098  0.00  0.00    +0.152 HD
BRANCH   6  23
ATOM     23  C   UNL     1     -11.315  -7.522  16.630  0.00  0.00    +0.070 C 
ATOM     27  C   UNL     1     -12.157  -8.336  15.656  0.00  0.00    +0.027 C 
ATOM     28  C   UNL     1     -11.270  -6.053  16.228  0.00  0.00    +0.027 C 
ENDBRANCH   6  23
ENDBRANCH   1  20
ENDBRANCH  15   1
ENDBRANCH   9  15
TORSDOF 6
ENDMDL
MODEL 5
REMARK VINA RESULT:      -7.3     26.706     29.575
REMARK  Name = 25389527
REMARK  9 active torsions:
REMARK  status: ('A' for Active; 'I' for Inactive)
REMARK    1  A    between atoms: O_1  and  C_15
REMARK    2  A    between atoms: O_1  and  C_20
REMARK    3  A    between atoms: N_4  and  C_18
REMARK    4  A    between atoms: N_6  and  C_23
REMARK    5  A    between atoms: C_8  and  C_14
REMARK    6  A    between atoms: C_9  and  C_15
REMARK    7  A    between atoms: C_17  and  C_19
REMARK    8  A    between atoms: C_23  and  C_27
REMARK    9  A    between atoms: C_23  and  C_28
REMARK                            x       y       z     vdW  Elec       q    Type
REMARK                         _______ _______ _______ _____ _____    ______ ____
ROOT
ATOM      3  N   UNL     1      -6.387 -10.498  18.037  0.00  0.00    -0.296 NA
ATOM      7  C   UNL     1      -4.411 -12.063  17.384  0.00  0.00    +0.002 C 
ATOM      8  C   UNL     1      -4.257 -10.678  16.698  0.00  0.00    +0.055 C 
ATOM      9  C   UNL     1      -6.910 -11.811  17.579  0.00  0.00    +0.095 C 
ATOM     10  C   UNL     1      -5.773 -12.677  16.994  0.00  0.00    +0.026 C 
ATOM     11  C   UNL     1      -4.449 -11.804  18.905  0.00  0.00    +0.019 C 
ATOM     12  C   UNL     1      -5.563  -9.877  16.970  0.00  0.00    +0.094 C 
ATOM     13  C   UNL     1      -5.516 -10.740  19.212  0.00  0.00    +0.085 C 
ENDROOT
BRANCH   8  14
ATOM      4  N   UNL     1      -2.553 -10.627  14.818  0.00  0.00    -0.270 N 
ATOM      5  N   UNL     1      -2.408 -10.596  13.482  0.00  0.00    -0.171 NA
ATOM     14  C   UNL     1      -3.853 -10.643  15.231  0.00  0.00    +0.044 A 
ATOM     16  C   UNL     1      -4.611 -10.618  14.087  0.00  0.00    +0.053 A 
ATOM     17  C   UNL     1      -3.669 -10.590  13.041  0.00  0.00    +0.093 A 
ATOM     18  C   UNL     1      -1.376 -10.640  15.655  0.00  0.00    +0.172 C 
BRANCH  17  19
ATOM     19  C   UNL     1      -3.950 -10.557  11.629  0.00  0.00    +0.003 A 
ATOM     21  C   UNL     1      -3.912 -11.735  10.883  0.00  0.00    +0.018 A 
ATOM     22  C   UNL     1      -4.260  -9.350  11.009  0.00  0.00    +0.011 A 
ATOM     24  C   UNL     1      -4.185 -11.720   9.505  0.00  0.00    -0.017 A 
ATOM     25  C   UNL     1      -4.533  -9.316   9.642  0.00  0.00    +0.009 A 
ATOM     26  C   UNL     1      -4.501 -10.492   8.875  0.00  0.00    -0.018 A 
ATOM     29  C   UNL     1      -4.151 -12.896   8.738  0.00  0.00    +0.008 A 
ATOM     30  C   UNL     1      -4.773 -10.477   7.498  0.00  0.00    +0.008 A 
ATOM     31  C   UNL     1      -4.425 -12.863   7.371  0.00  0.00    +0.001 A 
ATOM     32  C   UNL     1      -4.736 -11.655   6.752  0.00  0.00    +0.001 A 
ENDBRANCH  17  19
ENDBRANCH   8  14
BRANCH   9  15
ATOM     15  C   UNL     1      -8.076 -11.665  16.599  0.00  0.00    +0.252 C 
BRANCH  15   1
ATOM      1  O   UNL     1      -7.668 -12.169  15.342  0.00  0.00    -0.449 OA
BRANCH   1  20
ATOM      2  O   UNL     1      -9.578 -11.410  14.316  0.00  0.00    -0.226 OA
ATOM      6  N   UNL     1      -7.649 -11.850  13.105  0.00  0.00    -0.279 N 
ATOM     20  C   UNL     1      -8.408 -11.774  14.253  0.00  0.00    +0.401 C 
ATOM     33  H   UNL     1      -6.675 -12.124  13.200  0.00  0.00    +0.152 HD
BRANCH   6  23
ATOM     23  C   UNL     1      -8.143 -11.502  11.792  0.00  0.00    +0.070 C 
ATOM     27  C   UNL     1      -7.569 -12.445  10.743  0.00  0.00    +0.027 C 
ATOM     28  C   UNL     1      -7.817 -10.049  11.466  0.00  0.00    +0.027 C 
ENDBRANCH   6  23
ENDBRANCH   1  20
ENDBRANCH  15   1
ENDBRANCH   9  15
TORSDOF 6
ENDMDL
MODEL 6
REMARK VINA RESULT:      -7.1     27.433     30.430
REMARK  Name = 25389527
REMARK  9 active torsions:
REMARK  status: ('A' for Active; 'I' for Inactive)
REMARK    1  A    between atoms: O_1  and  C_15
REMARK    2  A    between atoms: O_1  and  C_20
REMARK    3  A    between atoms: N_4  and  C_18
REMARK    4  A    between atoms: N_6  and  C_23
REMARK    5  A    between atoms: C_8  and  C_14
REMARK    6  A    between atoms: C_9  and  C_15
REMARK    7  A    between atoms: C_17  and  C_19
REMARK    8  A    between atoms: C_23  and  C_27
REMARK    9  A    between atoms: C_23  and  C_28
REMARK                            x       y       z     vdW  Elec       q    Type
REMARK                         _______ _______ _______ _____ _____    ______ ____
ROOT
ATOM      3  N   UNL     1      -5.156 -12.761  17.168  0.00  0.00    -0.296 NA
ATOM      7  C   UNL     1      -5.610 -10.723  18.726  0.00  0.00    +0.002 C 
ATOM      8  C   UNL     1      -6.919 -11.523  18.482  0.00  0.00    +0.055 C 
ATOM      9  C   UNL     1      -4.588 -11.526  16.568  0.00  0.00    +0.095 C 
ATOM     10  C   UNL     1      -5.023 -10.279  17.369  0.00  0.00    +0.026 C 
ATOM     11  C   UNL     1      -4.600 -11.705  19.357  0.00  0.00    +0.019 C 
ATOM     12  C   UNL     1      -6.614 -12.592  17.394  0.00  0.00    +0.094 C 
ATOM     13  C   UNL     1      -4.506 -12.968  18.484  0.00  0.00    +0.085 C 
ENDROOT
BRANCH   8  14
ATOM      4  N   UNL     1      -9.354 -10.927  18.878  0.00  0.00    -0.270 N 
ATOM      5  N   UNL     1     -10.363 -10.142  18.462  0.00  0.00    -0.171 NA
ATOM     14  C   UNL     1      -8.192 -10.744  18.186  0.00  0.00    +0.044 A 
ATOM     16  C   UNL     1      -8.461  -9.775  17.252  0.00  0.00    +0.053 A 
ATOM     17  C   UNL     1      -9.812  -9.441  17.468  0.00  0.00    +0.093 A 
ATOM     18  C   UNL     1      -9.579 -11.849  19.967  0.00  0.00    +0.172 C 
BRANCH  17  19
ATOM     19  C   UNL     1     -10.585  -8.467  16.743  0.00  0.00    +0.003 A 
ATOM     21  C   UNL     1     -11.946  -8.681  16.523  0.00  0.00    +0.018 A 
ATOM     22  C   UNL     1      -9.975  -7.311  16.264  0.00  0.00    +0.011 A 
ATOM     24  C   UNL     1     -12.714  -7.740  15.818  0.00  0.00    -0.017 A 
ATOM     25  C   UNL     1     -10.723  -6.366  15.562  0.00  0.00    +0.009 A 
ATOM     26  C   UNL     1     -12.094  -6.565  15.331  0.00  0.00    -0.018 A 
ATOM     29  C   UNL     1     -14.085  -7.939  15.586  0.00  0.00    +0.008 A 
ATOM     30  C   UNL     1     -12.862  -5.624  14.626  0.00  0.00    +0.008 A 
ATOM     31  C   UNL     1     -14.833  -6.994  14.884  0.00  0.00    +0.001 A 
ATOM     32  C   UNL     1     -14.222  -5.838  14.405  0.00  0.00    +0.001 A 
ENDBRANCH  17  19
ENDBRANCH   8  14
BRANCH   9  15
ATOM     15  C   UNL     1      -4.924 -11.393  15.080  0.00  0.00    +0.252 C 
BRANCH  15   1
ATOM      1  O   UNL     1      -4.150 -10.338  14.541  0.00  0.00    -0.449 OA
BRANCH   1  20
ATOM      2  O   UNL     1      -2.190 -11.230  13.743  0.00  0.00    -0.226 OA
ATOM      6  N   UNL     1      -3.763 -10.297  12.315  0.00  0.00    -0.279 N 
ATOM     20  C   UNL     1      -3.266 -10.674  13.544  0.00  0.00    +0.401 C 
ATOM     33  H   UNL     1      -4.691  -9.885  12.288  0.00  0.00    +0.152 HD
BRANCH   6  23
ATOM     23  C   UNL     1      -3.065 -10.511  11.068  0.00  0.00    +0.070 C 
ATOM     27  C   UNL     1      -3.212  -9.295  10.163  0.00  0.00    +0.027 C 
ATOM     28  C   UNL     1      -3.574 -11.774  10.382  0.00  0.00    +0.027 C 
ENDBRANCH   6  23
ENDBRANCH   1  20
ENDBRANCH  15   1
ENDBRANCH   9  15
TORSDOF 6
ENDMDL
MODEL 7
REMARK VINA RESULT:      -7.0     12.012     14.322
REMARK  Name = 25389527
REMARK  9 active torsions:
REMARK  status: ('A' for Active; 'I' for Inactive)
REMARK    1  A    between atoms: O_1  and  C_15
REMARK    2  A    between atoms: O_1  and  C_20
REMARK    3  A    between atoms: N_4  and  C_18
REMARK    4  A    between atoms: N_6  and  C_23
REMARK    5  A    between atoms: C_8  and  C_14
REMARK    6  A    between atoms: C_9  and  C_15
REMARK    7  A    between atoms: C_17  and  C_19
REMARK    8  A    between atoms: C_23  and  C_27
REMARK    9  A    between atoms: C_23  and  C_28
REMARK                            x       y       z     vdW  Elec       q    Type
REMARK                         _______ _______ _______ _____ _____    ______ ____
ROOT
ATOM      3  N   UNL     1       9.253   7.129   5.447  0.00  0.00    -0.296 NA
ATOM      7  C   UNL     1      10.484   7.745   7.658  0.00  0.00    +0.002 C 
ATOM      8  C   UNL     1      10.957   8.664   6.498  0.00  0.00    +0.055 C 
ATOM      9  C   UNL     1       9.815   5.905   6.073  0.00  0.00    +0.095 C 
ATOM     10  C   UNL     1      10.721   6.270   7.269  0.00  0.00    +0.026 C 
ATOM     11  C   UNL     1       8.958   7.941   7.786  0.00  0.00    +0.019 C 
ATOM     12  C   UNL     1      10.337   8.110   5.184  0.00  0.00    +0.094 C 
ATOM     13  C   UNL     1       8.303   7.738   6.409  0.00  0.00    +0.085 C 
ENDROOT
BRANCH   8  14
ATOM      4  N   UNL     1      13.061  10.015   6.935  0.00  0.00    -0.270 N 
ATOM      5  N   UNL     1      14.382  10.078   6.695  0.00  0.00    -0.171 NA
ATOM     14  C   UNL     1      12.448   8.939   6.362  0.00  0.00    +0.044 A 
ATOM     16  C   UNL     1      13.436   8.252   5.701  0.00  0.00    +0.053 A 
ATOM     17  C   UNL     1      14.605   8.999   5.941  0.00  0.00    +0.093 A 
ATOM     18  C   UNL     1      12.439  11.042   7.737  0.00  0.00    +0.172 C 
BRANCH  17  19
ATOM     19  C   UNL     1      15.930   8.702   5.462  0.00  0.00    +0.003 A 
ATOM     21  C   UNL     1      17.016   8.760   6.336  0.00  0.00    +0.018 A 
ATOM     22  C   UNL     1      16.127   8.355   4.129  0.00  0.00    +0.011 A 
ATOM     24  C   UNL     1      18.315   8.472   5.885  0.00  0.00    -0.017 A 
ATOM     25  C   UNL     1      17.410   8.066   3.664  0.00  0.00    +0.009 A 
ATOM     26  C   UNL     1      18.515   8.119   4.529  0.00  0.00    -0.018 A 
ATOM     29  C   UNL     1      19.420   8.526   6.750  0.00  0.00    +0.008 A 
ATOM     30  C   UNL     1      19.813   7.832   4.078  0.00  0.00    +0.008 A 
ATOM     31  C   UNL     1      20.703   8.237   6.285  0.00  0.00    +0.001 A 
ATOM     32  C   UNL     1      20.899   7.890   4.951  0.00  0.00    +0.001 A 
ENDBRANCH  17  19
ENDBRANCH   8  14
BRANCH   9  15
ATOM     15  C   UNL     1      10.539   5.012   5.062  0.00  0.00    +0.252 C 
BRANCH  15   1
ATOM      1  O   UNL     1       9.821   5.044   3.844  0.00  0.00    -0.449 OA
BRANCH   1  20
ATOM      2  O   UNL     1      10.159   5.937   1.755  0.00  0.00    -0.226 OA
ATOM      6  N   UNL     1      11.779   4.639   2.792  0.00  0.00    -0.279 N 
ATOM     20  C   UNL     1      10.556   5.269   2.705  0.00  0.00    +0.401 C 
ATOM     33  H   UNL     1      12.000   4.156   3.657  0.00  0.00    +0.152 HD
BRANCH   6  23
ATOM     23  C   UNL     1      12.781   4.685   1.751  0.00  0.00    +0.070 C 
ATOM     27  C   UNL     1      13.456   3.327   1.606  0.00  0.00    +0.027 C 
ATOM     28  C   UNL     1      13.800   5.781   2.038  0.00  0.00    +0.027 C 
ENDBRANCH   6  23
ENDBRANCH   1  20
ENDBRANCH  15   1
ENDBRANCH   9  15
TORSDOF 6
ENDMDL
MODEL 8
REMARK VINA RESULT:      -7.0     13.881     17.498
REMARK  Name = 25389527
REMARK  9 active torsions:
REMARK  status: ('A' for Active; 'I' for Inactive)
REMARK    1  A    between atoms: O_1  and  C_15
REMARK    2  A    between atoms: O_1  and  C_20
REMARK    3  A    between atoms: N_4  and  C_18
REMARK    4  A    between atoms: N_6  and  C_23
REMARK    5  A    between atoms: C_8  and  C_14
REMARK    6  A    between atoms: C_9  and  C_15
REMARK    7  A    between atoms: C_17  and  C_19
REMARK    8  A    between atoms: C_23  and  C_27
REMARK    9  A    between atoms: C_23  and  C_28
REMARK                            x       y       z     vdW  Elec       q    Type
REMARK                         _______ _______ _______ _____ _____    ______ ____
ROOT
ATOM      3  N   UNL     1       9.241   8.621   6.654  0.00  0.00    -0.296 NA
ATOM      7  C   UNL     1       9.530   6.053   6.338  0.00  0.00    +0.002 C 
ATOM      8  C   UNL     1      10.802   6.806   5.862  0.00  0.00    +0.055 C 
ATOM      9  C   UNL     1       8.061   8.061   5.947  0.00  0.00    +0.095 C 
ATOM     10  C   UNL     1       8.304   6.584   5.567  0.00  0.00    +0.026 C 
ATOM     11  C   UNL     1       9.326   6.421   7.824  0.00  0.00    +0.019 C 
ATOM     12  C   UNL     1      10.480   8.327   5.891  0.00  0.00    +0.094 C 
ATOM     13  C   UNL     1       9.341   7.952   7.973  0.00  0.00    +0.085 C 
ENDROOT
BRANCH   8  14
ATOM      4  N   UNL     1      12.648   6.849   4.119  0.00  0.00    -0.270 N 
ATOM      5  N   UNL     1      13.037   6.346   2.935  0.00  0.00    -0.171 NA
ATOM     14  C   UNL     1      11.442   6.376   4.549  0.00  0.00    +0.044 A 
ATOM     16  C   UNL     1      11.012   5.506   3.578  0.00  0.00    +0.053 A 
ATOM     17  C   UNL     1      12.034   5.527   2.609  0.00  0.00    +0.093 A 
ATOM     18  C   UNL     1      13.499   7.798   4.798  0.00  0.00    +0.172 C 
BRANCH  17  19
ATOM     19  C   UNL     1      12.069   4.781   1.378  0.00  0.00    +0.003 A 
ATOM     21  C   UNL     1      11.141   5.052   0.372  0.00  0.00    +0.018 A 
ATOM     22  C   UNL     1      13.028   3.790   1.192  0.00  0.00    +0.011 A 
ATOM     24  C   UNL     1      11.161   4.334  -0.835  0.00  0.00    -0.017 A 
ATOM     25  C   UNL     1      13.064   3.067  -0.000  0.00  0.00    +0.009 A 
ATOM     26  C   UNL     1      12.138   3.326  -1.024  0.00  0.00    -0.018 A 
ATOM     29  C   UNL     1      10.235   4.592  -1.858  0.00  0.00    +0.008 A 
ATOM     30  C   UNL     1      12.159   2.608  -2.231  0.00  0.00    +0.008 A 
ATOM     31  C   UNL     1      10.271   3.869  -3.050  0.00  0.00    +0.001 A 
ATOM     32  C   UNL     1      11.232   2.879  -3.236  0.00  0.00    +0.001 A 
ENDBRANCH  17  19
ENDBRANCH   8  14
BRANCH   9  15
ATOM     15  C   UNL     1       7.655   8.901   4.733  0.00  0.00    +0.252 C 
BRANCH  15   1
ATOM      1  O   UNL     1       7.821   8.114   3.570  0.00  0.00    -0.449 OA
BRANCH   1  20
ATOM      2  O   UNL     1       7.427   9.690   1.947  0.00  0.00    -0.226 OA
ATOM      6  N   UNL     1       9.286   8.304   1.860  0.00  0.00    -0.279 N 
ATOM     20  C   UNL     1       8.118   8.788   2.410  0.00  0.00    +0.401 C 
ATOM     33  H   UNL     1       9.786   7.584   2.372  0.00  0.00    +0.152 HD
BRANCH   6  23
ATOM     23  C   UNL     1       9.864   8.808   0.635  0.00  0.00    +0.070 C 
ATOM     27  C   UNL     1       9.305   8.053  -0.564  0.00  0.00    +0.027 C 
ATOM     28  C   UNL     1      11.384   8.717   0.685  0.00  0.00    +0.027 C 
ENDBRANCH   6  23
ENDBRANCH   1  20
ENDBRANCH  15   1
ENDBRANCH   9  15
TORSDOF 6
ENDMDL
MODEL 9
REMARK VINA RESULT:      -6.8     12.881     17.249
REMARK  Name = 25389527
REMARK  9 active torsions:
REMARK  status: ('A' for Active; 'I' for Inactive)
REMARK    1  A    between atoms: O_1  and  C_15
REMARK    2  A    between atoms: O_1  and  C_20
REMARK    3  A    between atoms: N_4  and  C_18
REMARK    4  A    between atoms: N_6  and  C_23
REMARK    5  A    between atoms: C_8  and  C_14
REMARK    6  A    between atoms: C_9  and  C_15
REMARK    7  A    between atoms: C_17  and  C_19
REMARK    8  A    between atoms: C_23  and  C_27
REMARK    9  A    between atoms: C_23  and  C_28
REMARK                            x       y       z     vdW  Elec       q    Type
REMARK                         _______ _______ _______ _____ _____    ______ ____
ROOT
ATOM      3  N   UNL     1      15.138   6.724  -0.860  0.00  0.00    -0.296 NA
ATOM      7  C   UNL     1      14.113   4.441  -0.138  0.00  0.00    +0.002 C 
ATOM      8  C   UNL     1      12.996   5.505  -0.321  0.00  0.00    +0.055 C 
ATOM      9  C   UNL     1      15.861   6.195   0.326  0.00  0.00    +0.095 C 
ATOM     10  C   UNL     1      15.141   4.952   0.894  0.00  0.00    +0.026 C 
ATOM     11  C   UNL     1      14.846   4.329  -1.492  0.00  0.00    +0.019 C 
ATOM     12  C   UNL     1      13.694   6.876  -0.551  0.00  0.00    +0.094 C 
ATOM     13  C   UNL     1      15.274   5.733  -1.955  0.00  0.00    +0.085 C 
ENDROOT
BRANCH   8  14
ATOM      4  N   UNL     1      10.604   5.238   0.485  0.00  0.00    -0.270 N 
ATOM      5  N   UNL     1       9.792   5.381   1.546  0.00  0.00    -0.171 NA
ATOM     14  C   UNL     1      11.900   5.585   0.732  0.00  0.00    +0.044 A 
ATOM     16  C   UNL     1      11.938   5.983   2.046  0.00  0.00    +0.053 A 
ATOM     17  C   UNL     1      10.612   5.836   2.496  0.00  0.00    +0.093 A 
ATOM     18  C   UNL     1      10.058   4.755  -0.763  0.00  0.00    +0.172 C 
BRANCH  17  19
ATOM     19  C   UNL     1      10.114   6.124   3.816  0.00  0.00    +0.003 A 
ATOM     21  C   UNL     1      10.436   5.282   4.882  0.00  0.00    +0.018 A 
ATOM     22  C   UNL     1       9.312   7.241   4.030  0.00  0.00    +0.011 A 
ATOM     24  C   UNL     1       9.960   5.549   6.175  0.00  0.00    -0.017 A 
ATOM     25  C   UNL     1       8.831   7.522   5.308  0.00  0.00    +0.009 A 
ATOM     26  C   UNL     1       9.145   6.686   6.392  0.00  0.00    -0.018 A 
ATOM     29  C   UNL     1      10.273   4.713   7.259  0.00  0.00    +0.008 A 
ATOM     30  C   UNL     1       8.668   6.953   7.686  0.00  0.00    +0.008 A 
ATOM     31  C   UNL     1       9.791   4.993   8.538  0.00  0.00    +0.001 A 
ATOM     32  C   UNL     1       8.990   6.112   8.750  0.00  0.00    +0.001 A 
ENDBRANCH  17  19
ENDBRANCH   8  14
BRANCH   9  15
ATOM     15  C   UNL     1      16.082   7.264   1.398  0.00  0.00    +0.252 C 
BRANCH  15   1
ATOM      1  O   UNL     1      15.608   6.762   2.633  0.00  0.00    -0.449 OA
BRANCH   1  20
ATOM      2  O   UNL     1      15.709   8.831   3.624  0.00  0.00    -0.226 OA
ATOM      6  N   UNL     1      14.317   7.165   4.443  0.00  0.00    -0.279 N 
ATOM     20  C   UNL     1      15.250   7.694   3.577  0.00  0.00    +0.401 C 
ATOM     33  H   UNL     1      13.986   6.222   4.262  0.00  0.00    +0.152 HD
BRANCH   6  23
ATOM     23  C   UNL     1      13.743   7.898   5.549  0.00  0.00    +0.070 C 
ATOM     27  C   UNL     1      13.412   6.952   6.696  0.00  0.00    +0.027 C 
ATOM     28  C   UNL     1      12.509   8.669   5.095  0.00  0.00    +0.027 C 
ENDBRANCH   6  23
ENDBRANCH   1  20
ENDBRANCH  15   1
ENDBRANCH   9  15
TORSDOF 6
ENDMDL
MODEL 10
REMARK VINA RESULT:      -6.8     22.272     26.707
REMARK  Name = 25389527
REMARK  9 active torsions:
REMARK  status: ('A' for Active; 'I' for Inactive)
REMARK    1  A    between atoms: O_1  and  C_15
REMARK    2  A    between atoms: O_1  and  C_20
REMARK    3  A    between atoms: N_4  and  C_18
REMARK    4  A    between atoms: N_6  and  C_23
REMARK    5  A    between atoms: C_8  and  C_14
REMARK    6  A    between atoms: C_9  and  C_15
REMARK    7  A    between atoms: C_17  and  C_19
REMARK    8  A    between atoms: C_23  and  C_27
REMARK    9  A    between atoms: C_23  and  C_28
REMARK                            x       y       z     vdW  Elec       q    Type
REMARK                         _______ _______ _______ _____ _____    ______ ____
ROOT
ATOM      3  N   UNL     1      -6.633  14.752  32.825  0.00  0.00    -0.296 NA
ATOM      7  C   UNL     1      -7.427  12.340  32.247  0.00  0.00    +0.002 C 
ATOM      8  C   UNL     1      -7.524  12.592  33.777  0.00  0.00    +0.055 C 
ATOM      9  C   UNL     1      -5.627  14.079  31.963  0.00  0.00    +0.095 C 
ATOM     10  C   UNL     1      -5.977  12.586  31.780  0.00  0.00    +0.026 C 
ATOM     11  C   UNL     1      -8.311  13.405  31.564  0.00  0.00    +0.019 C 
ATOM     12  C   UNL     1      -6.849  13.964  34.065  0.00  0.00    +0.094 C 
ATOM     13  C   UNL     1      -7.913  14.800  32.078  0.00  0.00    +0.085 C 
ENDROOT
BRANCH   8  14
ATOM      4  N   UNL     1      -7.794  10.419  35.061  0.00  0.00    -0.270 N 
ATOM      5  N   UNL     1      -7.181   9.570  35.903  0.00  0.00    -0.171 NA
ATOM     14  C   UNL     1      -7.035  11.499  34.717  0.00  0.00    +0.044 A 
ATOM     16  C   UNL     1      -5.844  11.347  35.382  0.00  0.00    +0.053 A 
ATOM     17  C   UNL     1      -5.990  10.142  36.096  0.00  0.00    +0.093 A 
ATOM     18  C   UNL     1      -9.137  10.126  34.617  0.00  0.00    +0.172 C 
BRANCH  17  19
ATOM     19  C   UNL     1      -5.014   9.529  36.959  0.00  0.00    +0.003 A 
ATOM     21  C   UNL     1      -3.679   9.457  36.561  0.00  0.00    +0.018 A 
ATOM     22  C   UNL     1      -5.403   9.009  38.190  0.00  0.00    +0.011 A 
ATOM     24  C   UNL     1      -2.715   8.862  37.392  0.00  0.00    -0.017 A 
ATOM     25  C   UNL     1      -4.459   8.415  39.028  0.00  0.00    +0.009 A 
ATOM     26  C   UNL     1      -3.111   8.334  38.644  0.00  0.00    -0.018 A 
ATOM     29  C   UNL     1      -1.367   8.781  37.008  0.00  0.00    +0.008 A 
ATOM     30  C   UNL     1      -2.147   7.740  39.475  0.00  0.00    +0.008 A 
ATOM     31  C   UNL     1      -0.422   8.187  37.845  0.00  0.00    +0.001 A 
ATOM     32  C   UNL     1      -0.812   7.668  39.077  0.00  0.00    +0.001 A 
ENDBRANCH  17  19
ENDBRANCH   8  14
BRANCH   9  15
ATOM     15  C   UNL     1      -4.198  14.270  32.476  0.00  0.00    +0.252 C 
BRANCH  15   1
ATOM      1  O   UNL     1      -3.782  13.068  33.096  0.00  0.00    -0.449 OA
BRANCH   1  20
ATOM      2  O   UNL     1      -3.135  13.493  35.258  0.00  0.00    -0.226 OA
ATOM      6  N   UNL     1      -1.591  12.917  33.625  0.00  0.00    -0.279 N 
ATOM     20  C   UNL     1      -2.855  13.187  34.103  0.00  0.00    +0.401 C 
ATOM     33  H   UNL     1      -1.504  12.629  32.655  0.00  0.00    +0.152 HD
BRANCH   6  23
ATOM     23  C   UNL     1      -0.398  12.959  34.441  0.00  0.00    +0.070 C 
ATOM     27  C   UNL     1       0.737  13.636  33.684  0.00  0.00    +0.027 C 
ATOM     28  C   UNL     1      -0.006  11.556  34.887  0.00  0.00    +0.027 C 
ENDBRANCH   6  23
ENDBRANCH   1  20
ENDBRANCH  15   1
ENDBRANCH   9  15
TORSDOF 6
ENDMDL
