REMARK  Name = 11879567
REMARK  7 active torsions:
REMARK  status: ('A' for Active; 'I' for Inactive)
REMARK    1  A    between atoms: O_3  and  C_20
REMARK    2  A    between atoms: O_3  and  C_25
REMARK    3  A    between atoms: N_6  and  C_15
REMARK    4  A    between atoms: N_7  and  C_16
REMARK    5  A    between atoms: N_12  and  C_28
REMARK    6  A    between atoms: N_12  and  C_31
REMARK    7  A    between atoms: N_12  and  C_32
REMARK                            x       y       z     vdW  Elec       q    Type
REMARK                         _______ _______ _______ _____ _____    ______ ____
ROOT
ATOM      1  O   UNL     1      -1.566  -2.993   0.340  0.00  0.00    -0.370 OA
ATOM      2  O   UNL     1      -1.290  -0.718  -1.815  0.00  0.00    -0.370 OA
ATOM     13  C   UNL     1      -0.915  -0.832  -0.430  0.00  0.00    +0.176 C 
ATOM     14  C   UNL     1      -2.004  -1.627   0.265  0.00  0.00    +0.171 C 
ATOM     15  C   UNL     1       0.330  -1.690  -0.302  0.00  0.00    +0.171 C 
ATOM     16  C   UNL     1      -3.198  -1.508  -0.655  0.00  0.00    +0.131 C 
ATOM     17  C   UNL     1      -0.237  -3.101  -0.188  0.00  0.00    +0.190 C 
ATOM     18  C   UNL     1      -2.544  -1.383  -2.019  0.00  0.00    +0.185 C 
ENDROOT
BRANCH  16   7
ATOM      4  O   UNL     1      -5.938  -1.181  -1.202  0.00  0.00    -0.253 OA
ATOM      5  O   UNL     1      -7.530   2.998   0.875  0.00  0.00    -0.377 OA
ATOM      7  N   UNL     1      -3.986  -0.337  -0.343  0.00  0.00    -0.292 N 
ATOM      9  N   UNL     1      -5.967   0.950  -0.288  0.00  0.00    -0.281 N 
ATOM     19  C   UNL     1      -5.339  -0.254  -0.647  0.00  0.00    +0.303 C 
ATOM     21  C   UNL     1      -7.345   1.194  -0.721  0.00  0.00    +0.137 C 
ATOM     22  C   UNL     1      -5.329   2.098   0.372  0.00  0.00    +0.137 C 
ATOM     23  C   UNL     1      -8.168   1.812   0.398  0.00  0.00    +0.179 C 
ATOM     24  C   UNL     1      -6.249   2.696   1.430  0.00  0.00    +0.179 C 
ATOM     33  H   UNL     1      -3.476   0.485  -0.049  0.00  0.00    +0.151 HD
ENDBRANCH  16   7
BRANCH  15   6
ATOM      6  N   UNL     1       1.187  -1.273   0.811  0.00  0.00    -0.187 N 
ATOM      8  N   UNL     1       0.717  -1.237   2.062  0.00  0.00    -0.041 NA
ATOM     10  N   UNL     1       2.853  -0.600   2.011  0.00  0.00    -0.071 NA
ATOM     11  N   UNL     1       1.744  -0.823   2.795  0.00  0.00    -0.020 NA
ATOM     20  C   UNL     1       2.483  -0.886   0.784  0.00  0.00    +0.342 A 
BRANCH  20   3
ATOM      3  O   UNL     1       3.230  -0.814  -0.302  0.00  0.00    -0.423 OA
BRANCH   3  25
ATOM     25  C   UNL     1       4.557  -0.408  -0.271  0.00  0.00    +0.134 A 
ATOM     26  C   UNL     1       4.850   0.934  -0.419  0.00  0.00    +0.069 A 
ATOM     27  C   UNL     1       5.545  -1.357  -0.093  0.00  0.00    +0.046 A 
ATOM     28  C   UNL     1       6.184   1.343  -0.389  0.00  0.00    +0.033 A 
ATOM     29  C   UNL     1       6.878  -0.948  -0.063  0.00  0.00    +0.005 A 
ATOM     30  C   UNL     1       7.198   0.402  -0.210  0.00  0.00    +0.023 A 
BRANCH  28  12
ATOM     12  N   UNL     1       6.506   2.708  -0.539  0.00  0.00    -0.336 N 
ATOM     31  C   UNL     1       5.579   3.733  -0.104  0.00  0.00    +0.129 C 
ATOM     32  C   UNL     1       7.763   3.102  -1.143  0.00  0.00    +0.129 C 
ENDBRANCH  28  12
ENDBRANCH   3  25
ENDBRANCH  20   3
ENDBRANCH  15   6
TORSDOF 5
