MODEL 1
REMARK VINA RESULT:      -7.0      0.000      0.000
REMARK  Name = 45361418
REMARK  14 active torsions:
REMARK  status: ('A' for Active; 'I' for Inactive)
REMARK    1  A    between atoms: O_1  and  C_10
REMARK    2  A    between atoms: N_5  and  C_14
REMARK    3  A    between atoms: N_6  and  C_25
REMARK    4  A    between atoms: C_7  and  C_17
REMARK    5  A    between atoms: C_9  and  C_19
REMARK    6  A    between atoms: C_13  and  C_18
REMARK    7  A    between atoms: C_18  and  C_20
REMARK    8  A    between atoms: C_18  and  C_21
REMARK    9  A    between atoms: C_22  and  C_23
REMARK   10  A    between atoms: C_23  and  C_24
REMARK   11  A    between atoms: C_24  and  C_26
REMARK   12  A    between atoms: C_24  and  C_27
REMARK   13  A    between atoms: C_24  and  C_28
REMARK   14  A    between atoms: C_25  and  C_29
REMARK                            x       y       z     vdW  Elec       q    Type
REMARK                         _______ _______ _______ _____ _____    ______ ____
ROOT
ATOM      7  C   UNL     1     -16.223   6.309  21.955  0.00  0.00    -0.027 C 
ATOM      8  C   UNL     1     -14.838   5.888  22.550  0.00  0.00    +0.028 C 
ATOM      9  C   UNL     1     -13.728   5.893  21.439  0.00  0.00    +0.012 C 
ATOM     10  C   UNL     1     -14.955   4.571  23.372  0.00  0.00    +0.122 C 
ATOM     11  C   UNL     1     -17.268   6.402  23.092  0.00  0.00    +0.007 C 
ATOM     12  C   UNL     1     -16.093   7.712  21.319  0.00  0.00    +0.009 C 
ATOM     13  C   UNL     1     -16.073   4.633  24.440  0.00  0.00    +0.029 C 
ATOM     14  C   UNL     1     -13.657   7.288  20.756  0.00  0.00    +0.076 C 
ATOM     15  C   UNL     1     -17.413   5.102  23.873  0.00  0.00    +0.007 C 
ATOM     16  C   UNL     1     -15.011   7.787  20.251  0.00  0.00    +0.023 C 
ATOM     17  C   UNL     1     -16.739   5.310  20.886  0.00  0.00    +0.011 C 
ATOM     19  C   UNL     1     -12.332   5.516  21.964  0.00  0.00    +0.010 C 
ENDROOT
BRANCH  14   5
ATOM      3  O   UNL     1     -11.522   9.185  20.273  0.00  0.00    -0.276 OA
ATOM      5  N   UNL     1     -12.723   7.296  19.649  0.00  0.00    -0.312 N 
ATOM     22  C   UNL     1     -11.732   8.249  19.503  0.00  0.00    +0.214 C 
ATOM     33  H   UNL     1     -12.836   6.583  18.934  0.00  0.00    +0.149 HD
BRANCH  22  23
ATOM     23  C   UNL     1     -10.891   8.042  18.254  0.00  0.00    +0.102 C 
BRANCH  23  24
ATOM     24  C   UNL     1     -11.082   9.118  17.160  0.00  0.00    -0.029 C 
ATOM     26  C   UNL     1     -12.514   9.679  17.165  0.00  0.00    +0.011 C 
ATOM     27  C   UNL     1     -10.082  10.274  17.338  0.00  0.00    +0.011 C 
ATOM     28  C   UNL     1     -10.823   8.457  15.791  0.00  0.00    +0.011 C 
ENDBRANCH  23  24
ENDBRANCH  22  23
ENDBRANCH  14   5
BRANCH  10   1
ATOM      1  O   UNL     1     -13.733   4.337  24.073  0.00  0.00    -0.391 OA
ATOM     34  H   UNL     1     -13.144   3.827  23.491  0.00  0.00    +0.210 HD
ENDBRANCH  10   1
BRANCH  13  18
ATOM     18  C   UNL     1     -16.258   3.286  25.149  0.00  0.00    +0.077 C 
ATOM     20  C   UNL     1     -17.417   2.519  24.520  0.00  0.00    +0.017 C 
BRANCH  18  21
ATOM      2  O   UNL     1     -17.548   3.921  27.098  0.00  0.00    -0.276 OA
ATOM      6  N   UNL     1     -15.363   3.203  27.399  0.00  0.00    -0.308 N 
ATOM     21  C   UNL     1     -16.483   3.511  26.640  0.00  0.00    +0.217 C 
ATOM     35  H   UNL     1     -14.513   2.897  26.933  0.00  0.00    +0.149 HD
BRANCH   6  25
ATOM     25  C   UNL     1     -15.332   3.337  28.837  0.00  0.00    +0.178 C 
BRANCH  25  29
ATOM      4  O   UNL     1     -13.858   1.887  30.116  0.00  0.00    -0.466 OA
ATOM     29  C   UNL     1     -15.071   2.025  29.518  0.00  0.00    +0.122 A 
ATOM     30  C   UNL     1     -15.821   0.882  29.676  0.00  0.00    +0.046 A 
ATOM     31  C   UNL     1     -15.016  -0.014  30.421  0.00  0.00    +0.041 A 
ATOM     32  C   UNL     1     -13.833   0.644  30.663  0.00  0.00    +0.195 A 
ENDBRANCH  25  29
ENDBRANCH   6  25
ENDBRANCH  18  21
ENDBRANCH  13  18
TORSDOF 8
ENDMDL
MODEL 2
REMARK VINA RESULT:      -6.7     19.634     21.254
REMARK  Name = 45361418
REMARK  14 active torsions:
REMARK  status: ('A' for Active; 'I' for Inactive)
REMARK    1  A    between atoms: O_1  and  C_10
REMARK    2  A    between atoms: N_5  and  C_14
REMARK    3  A    between atoms: N_6  and  C_25
REMARK    4  A    between atoms: C_7  and  C_17
REMARK    5  A    between atoms: C_9  and  C_19
REMARK    6  A    between atoms: C_13  and  C_18
REMARK    7  A    between atoms: C_18  and  C_20
REMARK    8  A    between atoms: C_18  and  C_21
REMARK    9  A    between atoms: C_22  and  C_23
REMARK   10  A    between atoms: C_23  and  C_24
REMARK   11  A    between atoms: C_24  and  C_26
REMARK   12  A    between atoms: C_24  and  C_27
REMARK   13  A    between atoms: C_24  and  C_28
REMARK   14  A    between atoms: C_25  and  C_29
REMARK                            x       y       z     vdW  Elec       q    Type
REMARK                         _______ _______ _______ _____ _____    ______ ____
ROOT
ATOM      7  C   UNL     1      -3.531 -10.669  10.818  0.00  0.00    -0.027 C 
ATOM      8  C   UNL     1      -4.822 -10.307  11.626  0.00  0.00    +0.028 C 
ATOM      9  C   UNL     1      -5.639  -9.181  10.897  0.00  0.00    +0.012 C 
ATOM     10  C   UNL     1      -4.491 -10.031  13.121  0.00  0.00    +0.122 C 
ATOM     11  C   UNL     1      -2.809 -11.855  11.501  0.00  0.00    +0.007 C 
ATOM     12  C   UNL     1      -3.937 -11.122   9.396  0.00  0.00    +0.009 C 
ATOM     13  C   UNL     1      -3.678 -11.175  13.772  0.00  0.00    +0.029 C 
ATOM     14  C   UNL     1      -5.977  -9.617   9.444  0.00  0.00    +0.076 C 
ATOM     15  C   UNL     1      -2.449 -11.573  12.954  0.00  0.00    +0.007 C 
ATOM     16  C   UNL     1      -4.757 -10.080   8.648  0.00  0.00    +0.023 C 
ATOM     17  C   UNL     1      -2.543  -9.479  10.712  0.00  0.00    +0.011 C 
ATOM     19  C   UNL     1      -6.938  -8.796  11.624  0.00  0.00    +0.010 C 
ENDROOT
BRANCH  14   5
ATOM      3  O   UNL     1      -8.116  -9.886   7.508  0.00  0.00    -0.276 OA
ATOM      5  N   UNL     1      -6.632  -8.557   8.704  0.00  0.00    -0.312 N 
ATOM     22  C   UNL     1      -7.649  -8.785   7.796  0.00  0.00    +0.214 C 
ATOM     33  H   UNL     1      -6.292  -7.610   8.842  0.00  0.00    +0.149 HD
BRANCH  22  23
ATOM     23  C   UNL     1      -8.161  -7.509   7.147  0.00  0.00    +0.102 C 
BRANCH  23  24
ATOM     24  C   UNL     1      -9.282  -6.789   7.933  0.00  0.00    -0.029 C 
ATOM     26  C   UNL     1      -9.784  -7.643   9.108  0.00  0.00    +0.011 C 
ATOM     27  C   UNL     1      -8.800  -5.427   8.463  0.00  0.00    +0.011 C 
ATOM     28  C   UNL     1     -10.459  -6.547   6.968  0.00  0.00    +0.011 C 
ENDBRANCH  23  24
ENDBRANCH  22  23
ENDBRANCH  14   5
BRANCH  10   1
ATOM      1  O   UNL     1      -5.706  -9.919  13.865  0.00  0.00    -0.391 OA
ATOM     34  H   UNL     1      -5.718 -10.625  14.531  0.00  0.00    +0.210 HD
ENDBRANCH  10   1
BRANCH  13  18
ATOM     18  C   UNL     1      -3.252 -10.827  15.204  0.00  0.00    +0.077 C 
ATOM     20  C   UNL     1      -1.731 -10.851  15.317  0.00  0.00    +0.017 C 
BRANCH  18  21
ATOM      2  O   UNL     1      -4.534 -12.785  15.827  0.00  0.00    -0.276 OA
ATOM      6  N   UNL     1      -3.686 -11.432  17.510  0.00  0.00    -0.308 N 
ATOM     21  C   UNL     1      -3.898 -11.797  16.188  0.00  0.00    +0.217 C 
ATOM     35  H   UNL     1      -3.170 -10.581  17.717  0.00  0.00    +0.149 HD
BRANCH   6  25
ATOM     25  C   UNL     1      -4.202 -12.195  18.623  0.00  0.00    +0.178 C 
BRANCH  25  29
ATOM      4  O   UNL     1      -6.553 -12.810  18.642  0.00  0.00    -0.466 OA
ATOM     29  C   UNL     1      -5.631 -11.851  18.925  0.00  0.00    +0.122 A 
ATOM     30  C   UNL     1      -6.240 -10.733  19.446  0.00  0.00    +0.046 A 
ATOM     31  C   UNL     1      -7.625 -11.024  19.487  0.00  0.00    +0.041 A 
ATOM     32  C   UNL     1      -7.764 -12.298  18.987  0.00  0.00    +0.195 A 
ENDBRANCH  25  29
ENDBRANCH   6  25
ENDBRANCH  18  21
ENDBRANCH  13  18
TORSDOF 8
ENDMDL
MODEL 3
REMARK VINA RESULT:      -6.6     18.818     21.933
REMARK  Name = 45361418
REMARK  14 active torsions:
REMARK  status: ('A' for Active; 'I' for Inactive)
REMARK    1  A    between atoms: O_1  and  C_10
REMARK    2  A    between atoms: N_5  and  C_14
REMARK    3  A    between atoms: N_6  and  C_25
REMARK    4  A    between atoms: C_7  and  C_17
REMARK    5  A    between atoms: C_9  and  C_19
REMARK    6  A    between atoms: C_13  and  C_18
REMARK    7  A    between atoms: C_18  and  C_20
REMARK    8  A    between atoms: C_18  and  C_21
REMARK    9  A    between atoms: C_22  and  C_23
REMARK   10  A    between atoms: C_23  and  C_24
REMARK   11  A    between atoms: C_24  and  C_26
REMARK   12  A    between atoms: C_24  and  C_27
REMARK   13  A    between atoms: C_24  and  C_28
REMARK   14  A    between atoms: C_25  and  C_29
REMARK                            x       y       z     vdW  Elec       q    Type
REMARK                         _______ _______ _______ _____ _____    ______ ____
ROOT
ATOM      7  C   UNL     1      -4.795 -11.026  16.817  0.00  0.00    -0.027 C 
ATOM      8  C   UNL     1      -5.539 -10.444  15.569  0.00  0.00    +0.028 C 
ATOM      9  C   UNL     1      -7.095 -10.600  15.725  0.00  0.00    +0.012 C 
ATOM     10  C   UNL     1      -4.941 -11.001  14.245  0.00  0.00    +0.122 C 
ATOM     11  C   UNL     1      -3.277 -10.758  16.684  0.00  0.00    +0.007 C 
ATOM     12  C   UNL     1      -5.292 -10.299  18.086  0.00  0.00    +0.009 C 
ATOM     13  C   UNL     1      -3.407 -10.823  14.164  0.00  0.00    +0.029 C 
ATOM     14  C   UNL     1      -7.573  -9.929  17.043  0.00  0.00    +0.076 C 
ATOM     15  C   UNL     1      -2.680 -11.335  15.407  0.00  0.00    +0.007 C 
ATOM     16  C   UNL     1      -6.799 -10.392  18.277  0.00  0.00    +0.023 C 
ATOM     17  C   UNL     1      -5.016 -12.552  16.983  0.00  0.00    +0.011 C 
ATOM     19  C   UNL     1      -7.892 -10.021  14.544  0.00  0.00    +0.010 C 
ENDROOT
BRANCH  14   5
ATOM      3  O   UNL     1      -9.584  -7.944  17.686  0.00  0.00    -0.276 OA
ATOM      5  N   UNL     1      -8.985 -10.152  17.276  0.00  0.00    -0.312 N 
ATOM     22  C   UNL     1      -9.872  -9.135  17.579  0.00  0.00    +0.214 C 
ATOM     33  H   UNL     1      -9.320 -11.111  17.249  0.00  0.00    +0.149 HD
BRANCH  22  23
ATOM     23  C   UNL     1     -11.293  -9.631  17.788  0.00  0.00    +0.102 C 
BRANCH  23  24
ATOM     24  C   UNL     1     -11.544 -10.325  19.148  0.00  0.00    -0.029 C 
ATOM     26  C   UNL     1     -10.326 -10.197  20.078  0.00  0.00    +0.011 C 
ATOM     27  C   UNL     1     -12.783  -9.741  19.848  0.00  0.00    +0.011 C 
ATOM     28  C   UNL     1     -11.797 -11.822  18.879  0.00  0.00    +0.011 C 
ENDBRANCH  23  24
ENDBRANCH  22  23
ENDBRANCH  14   5
BRANCH  10   1
ATOM      1  O   UNL     1      -5.495 -10.291  13.137  0.00  0.00    -0.391 OA
ATOM     34  H   UNL     1      -5.798 -10.942  12.482  0.00  0.00    +0.210 HD
ENDBRANCH  10   1
BRANCH  13  18
ATOM     18  C   UNL     1      -2.821 -11.492  12.914  0.00  0.00    +0.077 C 
ATOM     20  C   UNL     1      -1.602 -12.327  13.290  0.00  0.00    +0.017 C 
BRANCH  18  21
ATOM      2  O   UNL     1      -1.380  -9.868  11.841  0.00  0.00    -0.276 OA
ATOM      6  N   UNL     1      -3.514 -10.191  10.990  0.00  0.00    -0.308 N 
ATOM     21  C   UNL     1      -2.471 -10.433  11.874  0.00  0.00    +0.217 C 
ATOM     35  H   UNL     1      -4.394 -10.685  11.109  0.00  0.00    +0.149 HD
BRANCH   6  25
ATOM     25  C   UNL     1      -3.421  -9.229   9.917  0.00  0.00    +0.178 C 
BRANCH  25  29
ATOM      4  O   UNL     1      -5.631  -8.258   9.631  0.00  0.00    -0.466 OA
ATOM     29  C   UNL     1      -4.703  -9.124   9.144  0.00  0.00    +0.122 A 
ATOM     30  C   UNL     1      -5.165  -9.737   8.002  0.00  0.00    +0.046 A 
ATOM     31  C   UNL     1      -6.460  -9.214   7.773  0.00  0.00    +0.041 A 
ATOM     32  C   UNL     1      -6.697  -8.319   8.791  0.00  0.00    +0.195 A 
ENDBRANCH  25  29
ENDBRANCH   6  25
ENDBRANCH  18  21
ENDBRANCH  13  18
TORSDOF 8
ENDMDL
MODEL 4
REMARK VINA RESULT:      -6.6     27.929     32.836
REMARK  Name = 45361418
REMARK  14 active torsions:
REMARK  status: ('A' for Active; 'I' for Inactive)
REMARK    1  A    between atoms: O_1  and  C_10
REMARK    2  A    between atoms: N_5  and  C_14
REMARK    3  A    between atoms: N_6  and  C_25
REMARK    4  A    between atoms: C_7  and  C_17
REMARK    5  A    between atoms: C_9  and  C_19
REMARK    6  A    between atoms: C_13  and  C_18
REMARK    7  A    between atoms: C_18  and  C_20
REMARK    8  A    between atoms: C_18  and  C_21
REMARK    9  A    between atoms: C_22  and  C_23
REMARK   10  A    between atoms: C_23  and  C_24
REMARK   11  A    between atoms: C_24  and  C_26
REMARK   12  A    between atoms: C_24  and  C_27
REMARK   13  A    between atoms: C_24  and  C_28
REMARK   14  A    between atoms: C_25  and  C_29
REMARK                            x       y       z     vdW  Elec       q    Type
REMARK                         _______ _______ _______ _____ _____    ______ ____
ROOT
ATOM      7  C   UNL     1       9.421   6.358   6.186  0.00  0.00    -0.027 C 
ATOM      8  C   UNL     1      10.525   7.339   5.668  0.00  0.00    +0.028 C 
ATOM      9  C   UNL     1      10.141   8.829   5.984  0.00  0.00    +0.012 C 
ATOM     10  C   UNL     1      10.890   7.044   4.185  0.00  0.00    +0.122 C 
ATOM     11  C   UNL     1       9.880   4.898   5.961  0.00  0.00    +0.007 C 
ATOM     12  C   UNL     1       9.237   6.564   7.707  0.00  0.00    +0.009 C 
ATOM     13  C   UNL     1      11.248   5.558   3.944  0.00  0.00    +0.029 C 
ATOM     14  C   UNL     1       9.885   9.007   7.507  0.00  0.00    +0.076 C 
ATOM     15  C   UNL     1      10.200   4.595   4.503  0.00  0.00    +0.007 C 
ATOM     16  C   UNL     1       8.889   7.998   8.079  0.00  0.00    +0.023 C 
ATOM     17  C   UNL     1       8.059   6.566   5.475  0.00  0.00    +0.011 C 
ATOM     19  C   UNL     1      11.199   9.847   5.527  0.00  0.00    +0.010 C 
ENDROOT
BRANCH  14   5
ATOM      3  O   UNL     1      11.221  11.002   9.129  0.00  0.00    -0.276 OA
ATOM      5  N   UNL     1       9.418  10.342   7.821  0.00  0.00    -0.312 N 
ATOM     22  C   UNL     1      10.129  11.227   8.608  0.00  0.00    +0.214 C 
ATOM     33  H   UNL     1       8.504  10.614   7.468  0.00  0.00    +0.149 HD
BRANCH  22  23
ATOM     23  C   UNL     1       9.419  12.558   8.794  0.00  0.00    +0.102 C 
BRANCH  23  24
ATOM     24  C   UNL     1       9.061  12.901  10.259  0.00  0.00    -0.029 C 
ATOM     26  C   UNL     1       8.682  11.642  11.056  0.00  0.00    +0.011 C 
ATOM     27  C   UNL     1      10.227  13.617  10.962  0.00  0.00    +0.011 C 
ATOM     28  C   UNL     1       7.846  13.850  10.242  0.00  0.00    +0.011 C 
ENDBRANCH  23  24
ENDBRANCH  22  23
ENDBRANCH  14   5
BRANCH  10   1
ATOM      1  O   UNL     1      12.040   7.806   3.816  0.00  0.00    -0.391 OA
ATOM     34  H   UNL     1      12.222   8.441   4.529  0.00  0.00    +0.210 HD
ENDBRANCH  10   1
BRANCH  13  18
ATOM     18  C   UNL     1      11.477   5.261   2.457  0.00  0.00    +0.077 C 
ATOM     20  C   UNL     1      10.755   3.977   2.062  0.00  0.00    +0.017 C 
BRANCH  18  21
ATOM      2  O   UNL     1      13.716   6.148   2.198  0.00  0.00    -0.276 OA
ATOM      6  N   UNL     1      13.380   3.875   1.882  0.00  0.00    -0.308 N 
ATOM     21  C   UNL     1      12.973   5.169   2.171  0.00  0.00    +0.217 C 
ATOM     35  H   UNL     1      12.690   3.129   1.854  0.00  0.00    +0.149 HD
BRANCH   6  25
ATOM     25  C   UNL     1      14.751   3.537   1.576  0.00  0.00    +0.178 C 
BRANCH  25  29
ATOM      4  O   UNL     1      14.157   3.855  -0.760  0.00  0.00    -0.466 OA
ATOM     29  C   UNL     1      15.133   3.945   0.183  0.00  0.00    +0.122 A 
ATOM     30  C   UNL     1      16.302   4.410  -0.374  0.00  0.00    +0.046 A 
ATOM     31  C   UNL     1      16.026   4.620  -1.746  0.00  0.00    +0.041 A 
ATOM     32  C   UNL     1      14.709   4.268  -1.931  0.00  0.00    +0.195 A 
ENDBRANCH  25  29
ENDBRANCH   6  25
ENDBRANCH  18  21
ENDBRANCH  13  18
TORSDOF 8
ENDMDL
MODEL 5
REMARK VINA RESULT:      -6.5     26.250     29.144
REMARK  Name = 45361418
REMARK  14 active torsions:
REMARK  status: ('A' for Active; 'I' for Inactive)
REMARK    1  A    between atoms: O_1  and  C_10
REMARK    2  A    between atoms: N_5  and  C_14
REMARK    3  A    between atoms: N_6  and  C_25
REMARK    4  A    between atoms: C_7  and  C_17
REMARK    5  A    between atoms: C_9  and  C_19
REMARK    6  A    between atoms: C_13  and  C_18
REMARK    7  A    between atoms: C_18  and  C_20
REMARK    8  A    between atoms: C_18  and  C_21
REMARK    9  A    between atoms: C_22  and  C_23
REMARK   10  A    between atoms: C_23  and  C_24
REMARK   11  A    between atoms: C_24  and  C_26
REMARK   12  A    between atoms: C_24  and  C_27
REMARK   13  A    between atoms: C_24  and  C_28
REMARK   14  A    between atoms: C_25  and  C_29
REMARK                            x       y       z     vdW  Elec       q    Type
REMARK                         _______ _______ _______ _____ _____    ______ ____
ROOT
ATOM      7  C   UNL     1      13.215   8.890  17.393  0.00  0.00    -0.027 C 
ATOM      8  C   UNL     1      13.515  10.005  18.450  0.00  0.00    +0.028 C 
ATOM      9  C   UNL     1      14.838  10.773  18.091  0.00  0.00    +0.012 C 
ATOM     10  C   UNL     1      13.442   9.442  19.899  0.00  0.00    +0.122 C 
ATOM     11  C   UNL     1      11.852   8.230  17.712  0.00  0.00    +0.007 C 
ATOM     12  C   UNL     1      13.107   9.538  15.994  0.00  0.00    +0.009 C 
ATOM     13  C   UNL     1      12.119   8.691  20.180  0.00  0.00    +0.029 C 
ATOM     14  C   UNL     1      14.747  11.356  16.653  0.00  0.00    +0.076 C 
ATOM     15  C   UNL     1      11.791   7.643  19.116  0.00  0.00    +0.007 C 
ATOM     16  C   UNL     1      14.351  10.321  15.600  0.00  0.00    +0.023 C 
ATOM     17  C   UNL     1      14.306   7.789  17.363  0.00  0.00    +0.011 C 
ATOM     19  C   UNL     1      15.179  11.904  19.075  0.00  0.00    +0.010 C 
ENDROOT
BRANCH  14   5
ATOM      3  O   UNL     1      15.083  13.760  15.071  0.00  0.00    -0.276 OA
ATOM      5  N   UNL     1      15.993  11.973  16.245  0.00  0.00    -0.312 N 
ATOM     22  C   UNL     1      16.052  13.127  15.485  0.00  0.00    +0.214 C 
ATOM     33  H   UNL     1      16.856  11.505  16.505  0.00  0.00    +0.149 HD
BRANCH  22  23
ATOM     23  C   UNL     1      17.476  13.564  15.183  0.00  0.00    +0.102 C 
BRANCH  23  24
ATOM     24  C   UNL     1      18.139  12.831  13.994  0.00  0.00    -0.029 C 
ATOM     26  C   UNL     1      18.974  11.630  14.466  0.00  0.00    +0.011 C 
ATOM     27  C   UNL     1      17.085  12.352  12.981  0.00  0.00    +0.011 C 
ATOM     28  C   UNL     1      19.078  13.827  13.284  0.00  0.00    +0.011 C 
ENDBRANCH  23  24
ENDBRANCH  22  23
ENDBRANCH  14   5
BRANCH  10   1
ATOM      1  O   UNL     1      13.507  10.520  20.833  0.00  0.00    -0.391 OA
ATOM     34  H   UNL     1      12.620  10.913  20.902  0.00  0.00    +0.210 HD
ENDBRANCH  10   1
BRANCH  13  18
ATOM     18  C   UNL     1      12.120   8.034  21.566  0.00  0.00    +0.077 C 
ATOM     20  C   UNL     1      11.716   6.568  21.450  0.00  0.00    +0.017 C 
BRANCH  18  21
ATOM      2  O   UNL     1      10.021   8.463  22.695  0.00  0.00    -0.276 OA
ATOM      6  N   UNL     1      11.808   9.888  23.095  0.00  0.00    -0.308 N 
ATOM     21  C   UNL     1      11.189   8.796  22.502  0.00  0.00    +0.217 C 
ATOM     35  H   UNL     1      12.771  10.107  22.855  0.00  0.00    +0.149 HD
BRANCH   6  25
ATOM     25  C   UNL     1      11.127  10.764  24.021  0.00  0.00    +0.178 C 
BRANCH  25  29
ATOM      4  O   UNL     1      11.161  12.255  22.101  0.00  0.00    -0.466 OA
ATOM     29  C   UNL     1      10.825  12.101  23.409  0.00  0.00    +0.122 A 
ATOM     30  C   UNL     1      10.259  13.254  23.902  0.00  0.00    +0.046 A 
ATOM     31  C   UNL     1      10.245  14.175  22.827  0.00  0.00    +0.041 A 
ATOM     32  C   UNL     1      10.804  13.519  21.755  0.00  0.00    +0.195 A 
ENDBRANCH  25  29
ENDBRANCH   6  25
ENDBRANCH  18  21
ENDBRANCH  13  18
TORSDOF 8
ENDMDL
MODEL 6
REMARK VINA RESULT:      -6.5     29.943     33.974
REMARK  Name = 45361418
REMARK  14 active torsions:
REMARK  status: ('A' for Active; 'I' for Inactive)
REMARK    1  A    between atoms: O_1  and  C_10
REMARK    2  A    between atoms: N_5  and  C_14
REMARK    3  A    between atoms: N_6  and  C_25
REMARK    4  A    between atoms: C_7  and  C_17
REMARK    5  A    between atoms: C_9  and  C_19
REMARK    6  A    between atoms: C_13  and  C_18
REMARK    7  A    between atoms: C_18  and  C_20
REMARK    8  A    between atoms: C_18  and  C_21
REMARK    9  A    between atoms: C_22  and  C_23
REMARK   10  A    between atoms: C_23  and  C_24
REMARK   11  A    between atoms: C_24  and  C_26
REMARK   12  A    between atoms: C_24  and  C_27
REMARK   13  A    between atoms: C_24  and  C_28
REMARK   14  A    between atoms: C_25  and  C_29
REMARK                            x       y       z     vdW  Elec       q    Type
REMARK                         _______ _______ _______ _____ _____    ______ ____
ROOT
ATOM      7  C   UNL     1      20.053   8.411  22.009  0.00  0.00    -0.027 C 
ATOM      8  C   UNL     1      19.624   7.006  21.471  0.00  0.00    +0.028 C 
ATOM      9  C   UNL     1      20.877   6.176  21.012  0.00  0.00    +0.012 C 
ATOM     10  C   UNL     1      18.483   7.129  20.420  0.00  0.00    +0.122 C 
ATOM     11  C   UNL     1      18.812   9.157  22.555  0.00  0.00    +0.007 C 
ATOM     12  C   UNL     1      21.042   8.222  23.182  0.00  0.00    +0.009 C 
ATOM     13  C   UNL     1      17.288   7.964  20.934  0.00  0.00    +0.029 C 
ATOM     14  C   UNL     1      21.898   6.056  22.178  0.00  0.00    +0.076 C 
ATOM     15  C   UNL     1      17.710   9.314  21.516  0.00  0.00    +0.007 C 
ATOM     16  C   UNL     1      22.267   7.400  22.805  0.00  0.00    +0.023 C 
ATOM     17  C   UNL     1      20.719   9.288  20.917  0.00  0.00    +0.011 C 
ATOM     19  C   UNL     1      20.528   4.770  20.498  0.00  0.00    +0.010 C 
ENDROOT
BRANCH  14   5
ATOM      3  O   UNL     1      23.429   4.087  23.653  0.00  0.00    -0.276 OA
ATOM      5  N   UNL     1      23.117   5.396  21.758  0.00  0.00    -0.312 N 
ATOM     22  C   UNL     1      23.780   4.465  22.535  0.00  0.00    +0.214 C 
ATOM     33  H   UNL     1      23.512   5.666  20.862  0.00  0.00    +0.149 HD
BRANCH  22  23
ATOM     23  C   UNL     1      25.037   3.927  21.873  0.00  0.00    +0.102 C 
BRANCH  23  24
ATOM     24  C   UNL     1      24.808   2.713  20.942  0.00  0.00    -0.029 C 
ATOM     26  C   UNL     1      23.354   2.220  21.005  0.00  0.00    +0.011 C 
ATOM     27  C   UNL     1      25.166   3.056  19.485  0.00  0.00    +0.011 C 
ATOM     28  C   UNL     1      25.731   1.571  21.413  0.00  0.00    +0.011 C 
ENDBRANCH  23  24
ENDBRANCH  22  23
ENDBRANCH  14   5
BRANCH  10   1
ATOM      1  O   UNL     1      17.973   5.830  20.115  0.00  0.00    -0.391 OA
ATOM     34  H   UNL     1      18.725   5.216  20.060  0.00  0.00    +0.210 HD
ENDBRANCH  10   1
BRANCH  13  18
ATOM     18  C   UNL     1      16.234   8.184  19.841  0.00  0.00    +0.077 C 
ATOM     20  C   UNL     1      15.779   9.639  19.837  0.00  0.00    +0.017 C 
BRANCH  18  21
ATOM      2  O   UNL     1      15.123   6.253  20.792  0.00  0.00    -0.276 OA
ATOM      6  N   UNL     1      13.936   7.606  19.329  0.00  0.00    -0.308 N 
ATOM     21  C   UNL     1      15.059   7.234  20.055  0.00  0.00    +0.217 C 
ATOM     35  H   UNL     1      13.982   8.419  18.720  0.00  0.00    +0.149 HD
BRANCH   6  25
ATOM     25  C   UNL     1      12.699   6.861  19.367  0.00  0.00    +0.178 C 
BRANCH  25  29
ATOM      4  O   UNL     1      11.551   8.633  20.571  0.00  0.00    -0.466 OA
ATOM     29  C   UNL     1      11.813   7.301  20.496  0.00  0.00    +0.122 A 
ATOM     30  C   UNL     1      11.181   6.625  21.513  0.00  0.00    +0.046 A 
ATOM     31  C   UNL     1      10.485   7.605  22.262  0.00  0.00    +0.041 A 
ATOM     32  C   UNL     1      10.742   8.809  21.648  0.00  0.00    +0.195 A 
ENDBRANCH  25  29
ENDBRANCH   6  25
ENDBRANCH  18  21
ENDBRANCH  13  18
TORSDOF 8
ENDMDL
MODEL 7
REMARK VINA RESULT:      -6.5     19.322     22.588
REMARK  Name = 45361418
REMARK  14 active torsions:
REMARK  status: ('A' for Active; 'I' for Inactive)
REMARK    1  A    between atoms: O_1  and  C_10
REMARK    2  A    between atoms: N_5  and  C_14
REMARK    3  A    between atoms: N_6  and  C_25
REMARK    4  A    between atoms: C_7  and  C_17
REMARK    5  A    between atoms: C_9  and  C_19
REMARK    6  A    between atoms: C_13  and  C_18
REMARK    7  A    between atoms: C_18  and  C_20
REMARK    8  A    between atoms: C_18  and  C_21
REMARK    9  A    between atoms: C_22  and  C_23
REMARK   10  A    between atoms: C_23  and  C_24
REMARK   11  A    between atoms: C_24  and  C_26
REMARK   12  A    between atoms: C_24  and  C_27
REMARK   13  A    between atoms: C_24  and  C_28
REMARK   14  A    between atoms: C_25  and  C_29
REMARK                            x       y       z     vdW  Elec       q    Type
REMARK                         _______ _______ _______ _____ _____    ______ ____
ROOT
ATOM      7  C   UNL     1      -3.946 -10.604  10.940  0.00  0.00    -0.027 C 
ATOM      8  C   UNL     1      -5.318 -10.104  11.502  0.00  0.00    +0.028 C 
ATOM      9  C   UNL     1      -5.661 -10.820  12.858  0.00  0.00    +0.012 C 
ATOM     10  C   UNL     1      -6.429 -10.167  10.414  0.00  0.00    +0.122 C 
ATOM     11  C   UNL     1      -3.585  -9.801   9.667  0.00  0.00    +0.007 C 
ATOM     12  C   UNL     1      -2.844 -10.339  11.991  0.00  0.00    +0.009 C 
ATOM     13  C   UNL     1      -6.021  -9.451   9.105  0.00  0.00    +0.029 C 
ATOM     14  C   UNL     1      -4.511 -10.609  13.882  0.00  0.00    +0.076 C 
ATOM     15  C   UNL     1      -4.653  -9.893   8.585  0.00  0.00    +0.007 C 
ATOM     16  C   UNL     1      -3.133 -10.986  13.338  0.00  0.00    +0.023 C 
ATOM     17  C   UNL     1      -3.962 -12.113  10.587  0.00  0.00    +0.011 C 
ATOM     19  C   UNL     1      -6.987 -10.353  13.481  0.00  0.00    +0.010 C 
ENDROOT
BRANCH  14   5
ATOM      3  O   UNL     1      -3.435 -10.039  16.511  0.00  0.00    -0.276 OA
ATOM      5  N   UNL     1      -4.740 -11.351  15.105  0.00  0.00    -0.312 N 
ATOM     22  C   UNL     1      -4.179 -11.000  16.319  0.00  0.00    +0.214 C 
ATOM     33  H   UNL     1      -5.313 -12.188  15.047  0.00  0.00    +0.149 HD
BRANCH  22  23
ATOM     23  C   UNL     1      -4.567 -11.943  17.446  0.00  0.00    +0.102 C 
BRANCH  23  24
ATOM     24  C   UNL     1      -5.916 -11.616  18.128  0.00  0.00    -0.029 C 
ATOM     26  C   UNL     1      -6.497 -10.287  17.619  0.00  0.00    +0.011 C 
ATOM     27  C   UNL     1      -6.940 -12.741  17.899  0.00  0.00    +0.011 C 
ATOM     28  C   UNL     1      -5.664 -11.489  19.644  0.00  0.00    +0.011 C 
ENDBRANCH  23  24
ENDBRANCH  22  23
ENDBRANCH  14   5
BRANCH  10   1
ATOM      1  O   UNL     1      -7.602  -9.507  10.892  0.00  0.00    -0.391 OA
ATOM     34  H   UNL     1      -8.125  -9.225  10.123  0.00  0.00    +0.210 HD
ENDBRANCH  10   1
BRANCH  13  18
ATOM     18  C   UNL     1      -7.073  -9.635   8.004  0.00  0.00    +0.077 C 
ATOM     20  C   UNL     1      -6.545 -10.579   6.928  0.00  0.00    +0.017 C 
BRANCH  18  21
ATOM      2  O   UNL     1      -7.668  -8.110   6.218  0.00  0.00    -0.276 OA
ATOM      6  N   UNL     1      -7.521  -7.283   8.380  0.00  0.00    -0.308 N 
ATOM     21  C   UNL     1      -7.452  -8.279   7.416  0.00  0.00    +0.217 C 
ATOM     35  H   UNL     1      -7.298  -7.507   9.346  0.00  0.00    +0.149 HD
BRANCH   6  25
ATOM     25  C   UNL     1      -7.861  -5.915   8.066  0.00  0.00    +0.178 C 
BRANCH  25  29
ATOM      4  O   UNL     1      -9.521  -4.307   8.821  0.00  0.00    -0.466 OA
ATOM     29  C   UNL     1      -9.278  -5.589   8.437  0.00  0.00    +0.122 A 
ATOM     30  C   UNL     1     -10.435  -6.333   8.476  0.00  0.00    +0.046 A 
ATOM     31  C   UNL     1     -11.454  -5.451   8.910  0.00  0.00    +0.041 A 
ATOM     32  C   UNL     1     -10.847  -4.232   9.107  0.00  0.00    +0.195 A 
ENDBRANCH  25  29
ENDBRANCH   6  25
ENDBRANCH  18  21
ENDBRANCH  13  18
TORSDOF 8
ENDMDL
MODEL 8
REMARK VINA RESULT:      -6.4     28.227     31.597
REMARK  Name = 45361418
REMARK  14 active torsions:
REMARK  status: ('A' for Active; 'I' for Inactive)
REMARK    1  A    between atoms: O_1  and  C_10
REMARK    2  A    between atoms: N_5  and  C_14
REMARK    3  A    between atoms: N_6  and  C_25
REMARK    4  A    between atoms: C_7  and  C_17
REMARK    5  A    between atoms: C_9  and  C_19
REMARK    6  A    between atoms: C_13  and  C_18
REMARK    7  A    between atoms: C_18  and  C_20
REMARK    8  A    between atoms: C_18  and  C_21
REMARK    9  A    between atoms: C_22  and  C_23
REMARK   10  A    between atoms: C_23  and  C_24
REMARK   11  A    between atoms: C_24  and  C_26
REMARK   12  A    between atoms: C_24  and  C_27
REMARK   13  A    between atoms: C_24  and  C_28
REMARK   14  A    between atoms: C_25  and  C_29
REMARK                            x       y       z     vdW  Elec       q    Type
REMARK                         _______ _______ _______ _____ _____    ______ ____
ROOT
ATOM      7  C   UNL     1       9.772   6.566   6.582  0.00  0.00    -0.027 C 
ATOM      8  C   UNL     1      10.320   7.488   5.442  0.00  0.00    +0.028 C 
ATOM      9  C   UNL     1      11.386   6.728   4.573  0.00  0.00    +0.012 C 
ATOM     10  C   UNL     1      10.774   8.867   6.002  0.00  0.00    +0.122 C 
ATOM     11  C   UNL     1       8.647   7.303   7.346  0.00  0.00    +0.007 C 
ATOM     12  C   UNL     1       9.158   5.295   5.952  0.00  0.00    +0.009 C 
ATOM     13  C   UNL     1       9.680   9.553   6.853  0.00  0.00    +0.029 C 
ATOM     14  C   UNL     1      10.780   5.414   4.006  0.00  0.00    +0.076 C 
ATOM     15  C   UNL     1       9.100   8.636   7.929  0.00  0.00    +0.007 C 
ATOM     16  C   UNL     1      10.138   4.529   5.075  0.00  0.00    +0.023 C 
ATOM     17  C   UNL     1      10.873   6.153   7.593  0.00  0.00    +0.011 C 
ATOM     19  C   UNL     1      11.947   7.569   3.414  0.00  0.00    +0.010 C 
ENDROOT
BRANCH  14   5
ATOM      3  O   UNL     1      10.428   3.988   1.509  0.00  0.00    -0.276 OA
ATOM      5  N   UNL     1      11.769   4.630   3.295  0.00  0.00    -0.312 N 
ATOM     22  C   UNL     1      11.506   3.982   2.102  0.00  0.00    +0.214 C 
ATOM     33  H   UNL     1      12.685   4.531   3.722  0.00  0.00    +0.149 HD
BRANCH  22  23
ATOM     23  C   UNL     1      12.706   3.221   1.564  0.00  0.00    +0.102 C 
BRANCH  23  24
ATOM     24  C   UNL     1      13.551   3.997   0.526  0.00  0.00    -0.029 C 
ATOM     26  C   UNL     1      13.222   5.498   0.540  0.00  0.00    +0.011 C 
ATOM     27  C   UNL     1      15.056   3.802   0.778  0.00  0.00    +0.011 C 
ATOM     28  C   UNL     1      13.216   3.438  -0.872  0.00  0.00    +0.011 C 
ENDBRANCH  23  24
ENDBRANCH  22  23
ENDBRANCH  14   5
BRANCH  10   1
ATOM      1  O   UNL     1      11.062   9.750   4.916  0.00  0.00    -0.391 OA
ATOM     34  H   UNL     1      12.008   9.673   4.707  0.00  0.00    +0.210 HD
ENDBRANCH  10   1
BRANCH  13  18
ATOM     18  C   UNL     1      10.191  10.846   7.501  0.00  0.00    +0.077 C 
ATOM     20  C   UNL     1      10.332  10.656   9.008  0.00  0.00    +0.017 C 
BRANCH  18  21
ATOM      2  O   UNL     1       8.833  12.783   8.022  0.00  0.00    -0.276 OA
ATOM      6  N   UNL     1       8.924  12.051   5.823  0.00  0.00    -0.308 N 
ATOM     21  C   UNL     1       9.248  11.999   7.171  0.00  0.00    +0.217 C 
ATOM     35  H   UNL     1       9.291  11.343   5.193  0.00  0.00    +0.149 HD
BRANCH   6  25
ATOM     25  C   UNL     1       8.046  13.056   5.269  0.00  0.00    +0.178 C 
BRANCH  25  29
ATOM      4  O   UNL     1       6.648  11.171   4.634  0.00  0.00    -0.466 OA
ATOM     29  C   UNL     1       6.694  12.496   4.934  0.00  0.00    +0.122 A 
ATOM     30  C   UNL     1       5.438  13.052   4.859  0.00  0.00    +0.046 A 
ATOM     31  C   UNL     1       4.564  12.001   4.491  0.00  0.00    +0.041 A 
ATOM     32  C   UNL     1       5.349  10.878   4.366  0.00  0.00    +0.195 A 
ENDBRANCH  25  29
ENDBRANCH   6  25
ENDBRANCH  18  21
ENDBRANCH  13  18
TORSDOF 8
ENDMDL
MODEL 9
REMARK VINA RESULT:      -6.3     29.385     34.980
REMARK  Name = 45361418
REMARK  14 active torsions:
REMARK  status: ('A' for Active; 'I' for Inactive)
REMARK    1  A    between atoms: O_1  and  C_10
REMARK    2  A    between atoms: N_5  and  C_14
REMARK    3  A    between atoms: N_6  and  C_25
REMARK    4  A    between atoms: C_7  and  C_17
REMARK    5  A    between atoms: C_9  and  C_19
REMARK    6  A    between atoms: C_13  and  C_18
REMARK    7  A    between atoms: C_18  and  C_20
REMARK    8  A    between atoms: C_18  and  C_21
REMARK    9  A    between atoms: C_22  and  C_23
REMARK   10  A    between atoms: C_23  and  C_24
REMARK   11  A    between atoms: C_24  and  C_26
REMARK   12  A    between atoms: C_24  and  C_27
REMARK   13  A    between atoms: C_24  and  C_28
REMARK   14  A    between atoms: C_25  and  C_29
REMARK                            x       y       z     vdW  Elec       q    Type
REMARK                         _______ _______ _______ _____ _____    ______ ____
ROOT
ATOM      7  C   UNL     1      13.585   5.136   0.821  0.00  0.00    -0.027 C 
ATOM      8  C   UNL     1      12.026   5.142   0.966  0.00  0.00    +0.028 C 
ATOM      9  C   UNL     1      11.606   5.131   2.480  0.00  0.00    +0.012 C 
ATOM     10  C   UNL     1      11.374   4.040   0.083  0.00  0.00    +0.122 C 
ATOM     11  C   UNL     1      13.965   5.261  -0.673  0.00  0.00    +0.007 C 
ATOM     12  C   UNL     1      14.165   6.365   1.559  0.00  0.00    +0.009 C 
ATOM     13  C   UNL     1      11.839   4.105  -1.391  0.00  0.00    +0.029 C 
ATOM     14  C   UNL     1      12.256   6.329   3.227  0.00  0.00    +0.076 C 
ATOM     15  C   UNL     1      13.360   4.160  -1.534  0.00  0.00    +0.007 C 
ATOM     16  C   UNL     1      13.768   6.423   3.027  0.00  0.00    +0.023 C 
ATOM     17  C   UNL     1      14.229   3.847   1.393  0.00  0.00    +0.011 C 
ATOM     19  C   UNL     1      10.084   5.166   2.695  0.00  0.00    +0.010 C 
ENDROOT
BRANCH  14   5
ATOM      3  O   UNL     1      10.796   8.278   4.797  0.00  0.00    -0.276 OA
ATOM      5  N   UNL     1      11.983   6.286   4.649  0.00  0.00    -0.312 N 
ATOM     22  C   UNL     1      11.274   7.269   5.314  0.00  0.00    +0.214 C 
ATOM     33  H   UNL     1      12.368   5.508   5.178  0.00  0.00    +0.149 HD
BRANCH  22  23
ATOM     23  C   UNL     1      11.132   6.994   6.802  0.00  0.00    +0.102 C 
BRANCH  23  24
ATOM     24  C   UNL     1       9.719   6.547   7.245  0.00  0.00    -0.029 C 
ATOM     26  C   UNL     1       8.943   5.901   6.086  0.00  0.00    +0.011 C 
ATOM     27  C   UNL     1       9.794   5.559   8.422  0.00  0.00    +0.011 C 
ATOM     28  C   UNL     1       8.948   7.799   7.710  0.00  0.00    +0.011 C 
ENDBRANCH  23  24
ENDBRANCH  22  23
ENDBRANCH  14   5
BRANCH  10   1
ATOM      1  O   UNL     1       9.956   4.215   0.072  0.00  0.00    -0.391 OA
ATOM     34  H   UNL     1       9.749   5.027   0.565  0.00  0.00    +0.210 HD
ENDBRANCH  10   1
BRANCH  13  18
ATOM     18  C   UNL     1      11.287   2.934  -2.214  0.00  0.00    +0.077 C 
ATOM     20  C   UNL     1      12.420   2.244  -2.967  0.00  0.00    +0.017 C 
BRANCH  18  21
ATOM      2  O   UNL     1       9.225   2.761  -3.473  0.00  0.00    -0.276 OA
ATOM      6  N   UNL     1      10.467   4.712  -3.642  0.00  0.00    -0.308 N 
ATOM     21  C   UNL     1      10.208   3.434  -3.169  0.00  0.00    +0.217 C 
ATOM     35  H   UNL     1      11.321   5.186  -3.359  0.00  0.00    +0.149 HD
BRANCH   6  25
ATOM     25  C   UNL     1       9.589   5.399  -4.560  0.00  0.00    +0.178 C 
BRANCH  25  29
ATOM      4  O   UNL     1       8.919   7.054  -2.911  0.00  0.00    -0.466 OA
ATOM     29  C   UNL     1       8.508   6.156  -3.844  0.00  0.00    +0.122 A 
ATOM     30  C   UNL     1       7.135   6.140  -3.929  0.00  0.00    +0.046 A 
ATOM     31  C   UNL     1       6.673   7.091  -2.987  0.00  0.00    +0.041 A 
ATOM     32  C   UNL     1       7.797   7.619  -2.394  0.00  0.00    +0.195 A 
ENDBRANCH  25  29
ENDBRANCH   6  25
ENDBRANCH  18  21
ENDBRANCH  13  18
TORSDOF 8
ENDMDL
MODEL 10
REMARK VINA RESULT:      -6.2      2.929     10.473
REMARK  Name = 45361418
REMARK  14 active torsions:
REMARK  status: ('A' for Active; 'I' for Inactive)
REMARK    1  A    between atoms: O_1  and  C_10
REMARK    2  A    between atoms: N_5  and  C_14
REMARK    3  A    between atoms: N_6  and  C_25
REMARK    4  A    between atoms: C_7  and  C_17
REMARK    5  A    between atoms: C_9  and  C_19
REMARK    6  A    between atoms: C_13  and  C_18
REMARK    7  A    between atoms: C_18  and  C_20
REMARK    8  A    between atoms: C_18  and  C_21
REMARK    9  A    between atoms: C_22  and  C_23
REMARK   10  A    between atoms: C_23  and  C_24
REMARK   11  A    between atoms: C_24  and  C_26
REMARK   12  A    between atoms: C_24  and  C_27
REMARK   13  A    between atoms: C_24  and  C_28
REMARK   14  A    between atoms: C_25  and  C_29
REMARK                            x       y       z     vdW  Elec       q    Type
REMARK                         _______ _______ _______ _____ _____    ______ ____
ROOT
ATOM      7  C   UNL     1     -15.939   7.183  20.126  0.00  0.00    -0.027 C 
ATOM      8  C   UNL     1     -14.863   6.333  20.881  0.00  0.00    +0.028 C 
ATOM      9  C   UNL     1     -15.477   5.668  22.165  0.00  0.00    +0.012 C 
ATOM     10  C   UNL     1     -13.559   7.150  21.110  0.00  0.00    +0.122 C 
ATOM     11  C   UNL     1     -15.335   7.731  18.811  0.00  0.00    +0.007 C 
ATOM     12  C   UNL     1     -17.131   6.271  19.752  0.00  0.00    +0.009 C 
ATOM     13  C   UNL     1     -13.016   7.783  19.807  0.00  0.00    +0.029 C 
ATOM     14  C   UNL     1     -16.719   4.814  21.786  0.00  0.00    +0.076 C 
ATOM     15  C   UNL     1     -14.081   8.564  19.036  0.00  0.00    +0.007 C 
ATOM     16  C   UNL     1     -17.752   5.576  20.955  0.00  0.00    +0.023 C 
ATOM     17  C   UNL     1     -16.455   8.376  20.971  0.00  0.00    +0.011 C 
ATOM     19  C   UNL     1     -14.479   4.793  22.941  0.00  0.00    +0.010 C 
ENDROOT
BRANCH  14   5
ATOM      3  O   UNL     1     -16.816   2.046  22.638  0.00  0.00    -0.276 OA
ATOM      5  N   UNL     1     -17.379   4.278  22.959  0.00  0.00    -0.312 N 
ATOM     22  C   UNL     1     -17.371   2.934  23.284  0.00  0.00    +0.214 C 
ATOM     33  H   UNL     1     -17.901   4.926  23.542  0.00  0.00    +0.149 HD
BRANCH  22  23
ATOM     23  C   UNL     1     -18.142   2.628  24.557  0.00  0.00    +0.102 C 
BRANCH  23  24
ATOM     24  C   UNL     1     -17.260   2.343  25.795  0.00  0.00    -0.029 C 
ATOM     26  C   UNL     1     -16.009   3.235  25.813  0.00  0.00    +0.011 C 
ATOM     27  C   UNL     1     -18.051   2.550  27.099  0.00  0.00    +0.011 C 
ATOM     28  C   UNL     1     -16.808   0.871  25.729  0.00  0.00    +0.011 C 
ENDBRANCH  23  24
ENDBRANCH  22  23
ENDBRANCH  14   5
BRANCH  10   1
ATOM      1  O   UNL     1     -12.535   6.285  21.602  0.00  0.00    -0.391 OA
ATOM     34  H   UNL     1     -12.751   6.053  22.520  0.00  0.00    +0.210 HD
ENDBRANCH  10   1
BRANCH  13  18
ATOM     18  C   UNL     1     -11.808   8.689  20.075  0.00  0.00    +0.077 C 
ATOM     20  C   UNL     1     -12.199   9.817  21.024  0.00  0.00    +0.017 C 
BRANCH  18  21
ATOM      2  O   UNL     1     -11.141  10.436  18.535  0.00  0.00    -0.276 OA
ATOM      6  N   UNL     1     -10.939   8.226  17.860  0.00  0.00    -0.308 N 
ATOM     21  C   UNL     1     -11.265   9.234  18.757  0.00  0.00    +0.217 C 
ATOM     35  H   UNL     1     -11.102   7.256  18.117  0.00  0.00    +0.149 HD
BRANCH   6  25
ATOM     25  C   UNL     1     -10.407   8.494  16.544  0.00  0.00    +0.178 C 
BRANCH  25  29
ATOM      4  O   UNL     1     -11.008   8.131  14.217  0.00  0.00    -0.466 OA
ATOM     29  C   UNL     1     -11.457   8.368  15.478  0.00  0.00    +0.122 A 
ATOM     30  C   UNL     1     -12.830   8.444  15.497  0.00  0.00    +0.046 A 
ATOM     31  C   UNL     1     -13.252   8.239  14.161  0.00  0.00    +0.041 A 
ATOM     32  C   UNL     1     -12.107   8.053  13.422  0.00  0.00    +0.195 A 
ENDBRANCH  25  29
ENDBRANCH   6  25
ENDBRANCH  18  21
ENDBRANCH  13  18
TORSDOF 8
ENDMDL
