MODEL 1
REMARK VINA RESULT:      -6.3      0.000      0.000
REMARK  Name = 51136684
REMARK  10 active torsions:
REMARK  status: ('A' for Active; 'I' for Inactive)
REMARK    1  A    between atoms: O_2  and  C_18
REMARK    2  A    between atoms: O_4  and  C_25
REMARK    3  A    between atoms: O_4  and  C_29
REMARK    4  A    between atoms: N_7  and  C_24
REMARK    5  A    between atoms: C_8  and  C_13
REMARK    6  A    between atoms: C_9  and  C_14
REMARK    7  A    between atoms: C_13  and  C_15
REMARK    8  A    between atoms: C_14  and  C_18
REMARK    9  A    between atoms: C_24  and  C_27
REMARK   10  A    between atoms: C_27  and  C_28
REMARK                            x       y       z     vdW  Elec       q    Type
REMARK                         _______ _______ _______ _____ _____    ______ ____
ROOT
ATOM      1  O   UNL     1      -8.765 -10.262  13.655  0.00  0.00    -0.253 OA
ATOM      5  N   UNL     1      -7.431  -9.885  15.514  0.00  0.00    -0.285 N 
ATOM      7  N   UNL     1      -6.641  -9.464  13.326  0.00  0.00    -0.299 N 
ATOM      8  C   UNL     1      -5.584 -10.615  16.998  0.00  0.00    +0.016 C 
ATOM      9  C   UNL     1      -6.644 -11.148  17.997  0.00  0.00    +0.006 C 
ATOM     10  C   UNL     1      -7.969 -11.494  17.294  0.00  0.00    +0.023 C 
ATOM     11  C   UNL     1      -6.186  -9.465  16.172  0.00  0.00    +0.113 C 
ATOM     12  C   UNL     1      -8.472 -10.330  16.442  0.00  0.00    +0.109 C 
ATOM     16  C   UNL     1      -7.687  -9.893  14.133  0.00  0.00    +0.302 C 
ATOM     30  H   UNL     1      -5.737  -9.225  13.710  0.00  0.00    +0.150 HD
ENDROOT
BRANCH   8  13
ATOM     13  C   UNL     1      -5.001 -11.689  16.072  0.00  0.00    +0.061 C 
BRANCH  13  15
ATOM      6  N   UNL     1      -2.754 -10.974  16.524  0.00  0.00    -0.287 NA
ATOM     15  C   UNL     1      -3.621 -11.282  15.617  0.00  0.00    +0.044 C 
ATOM     17  C   UNL     1      -3.329 -11.248  14.161  0.00  0.00    +0.003 A 
ATOM     19  C   UNL     1      -2.207 -10.514  13.759  0.00  0.00    -0.037 A 
ATOM     20  C   UNL     1      -1.394  -9.810  14.806  0.00  0.00    +0.059 C 
ATOM     21  C   UNL     1      -1.396 -10.636  16.084  0.00  0.00    +0.146 C 
ATOM     22  C   UNL     1      -4.128 -11.894  13.216  0.00  0.00    +0.055 A 
ATOM     23  C   UNL     1      -1.901 -10.407  12.399  0.00  0.00    +0.008 A 
ATOM     25  C   UNL     1      -3.805 -11.796  11.861  0.00  0.00    +0.121 A 
ATOM     26  C   UNL     1      -2.697 -11.053  11.454  0.00  0.00    +0.046 A 
BRANCH  25   4
ATOM      4  O   UNL     1      -4.573 -12.434  10.933  0.00  0.00    -0.495 OA
ATOM     29  C   UNL     1      -4.018 -12.587   9.628  0.00  0.00    +0.277 C 
ENDBRANCH  25   4
ENDBRANCH  13  15
ENDBRANCH   8  13
BRANCH   9  14
ATOM     14  C   UNL     1      -6.146 -12.334  18.824  0.00  0.00    +0.124 C 
BRANCH  14  18
ATOM      3  O   UNL     1      -3.918 -12.067  19.777  0.00  0.00    -0.251 OA
ATOM     18  C   UNL     1      -5.127 -11.908  19.845  0.00  0.00    +0.305 C 
BRANCH  18   2
ATOM      2  O   UNL     1      -5.751 -11.303  20.888  0.00  0.00    -0.481 OA
ATOM     31  H   UNL     1      -6.726 -11.304  20.782  0.00  0.00    +0.295 HD
ENDBRANCH  18   2
ENDBRANCH  14  18
ENDBRANCH   9  14
BRANCH   7  24
ATOM     24  C   UNL     1      -6.747  -9.423  11.885  0.00  0.00    +0.105 C 
BRANCH  24  27
ATOM     27  C   UNL     1      -5.550  -8.739  11.234  0.00  0.00    +0.015 C 
ATOM     28  C   UNL     1      -5.720  -8.562   9.732  0.00  0.00    +0.005 C 
ENDBRANCH  24  27
ENDBRANCH   7  24
TORSDOF 8
ENDMDL
MODEL 2
REMARK VINA RESULT:      -5.8     21.402     24.689
REMARK  Name = 51136684
REMARK  10 active torsions:
REMARK  status: ('A' for Active; 'I' for Inactive)
REMARK    1  A    between atoms: O_2  and  C_18
REMARK    2  A    between atoms: O_4  and  C_25
REMARK    3  A    between atoms: O_4  and  C_29
REMARK    4  A    between atoms: N_7  and  C_24
REMARK    5  A    between atoms: C_8  and  C_13
REMARK    6  A    between atoms: C_9  and  C_14
REMARK    7  A    between atoms: C_13  and  C_15
REMARK    8  A    between atoms: C_14  and  C_18
REMARK    9  A    between atoms: C_24  and  C_27
REMARK   10  A    between atoms: C_27  and  C_28
REMARK                            x       y       z     vdW  Elec       q    Type
REMARK                         _______ _______ _______ _____ _____    ______ ____
ROOT
ATOM      1  O   UNL     1     -18.851   6.704  30.247  0.00  0.00    -0.253 OA
ATOM      5  N   UNL     1     -18.537   4.708  29.107  0.00  0.00    -0.285 N 
ATOM      7  N   UNL     1     -18.345   4.825  31.460  0.00  0.00    -0.299 N 
ATOM      8  C   UNL     1     -16.999   3.003  28.176  0.00  0.00    +0.016 C 
ATOM      9  C   UNL     1     -17.182   3.651  26.778  0.00  0.00    +0.006 C 
ATOM     10  C   UNL     1     -17.577   5.135  26.883  0.00  0.00    +0.023 C 
ATOM     11  C   UNL     1     -18.246   3.270  29.036  0.00  0.00    +0.113 C 
ATOM     12  C   UNL     1     -18.781   5.330  27.804  0.00  0.00    +0.109 C 
ATOM     16  C   UNL     1     -18.597   5.494  30.269  0.00  0.00    +0.302 C 
ATOM     30  H   UNL     1     -18.073   3.852  31.476  0.00  0.00    +0.150 HD
ENDROOT
BRANCH   8  13
ATOM     13  C   UNL     1     -15.733   3.456  28.913  0.00  0.00    +0.061 C 
BRANCH  13  15
ATOM      6  N   UNL     1     -14.960   1.197  29.169  0.00  0.00    -0.287 NA
ATOM     15  C   UNL     1     -15.196   2.324  29.755  0.00  0.00    +0.044 C 
ATOM     17  C   UNL     1     -14.974   2.555  31.206  0.00  0.00    +0.003 A 
ATOM     19  C   UNL     1     -14.855   1.418  32.014  0.00  0.00    -0.037 A 
ATOM     20  C   UNL     1     -14.972   0.065  31.377  0.00  0.00    +0.059 C 
ATOM     21  C   UNL     1     -14.382   0.116  29.975  0.00  0.00    +0.146 C 
ATOM     22  C   UNL     1     -14.898   3.832  31.764  0.00  0.00    +0.055 A 
ATOM     23  C   UNL     1     -14.686   1.566  33.394  0.00  0.00    +0.008 A 
ATOM     25  C   UNL     1     -14.712   3.971  33.141  0.00  0.00    +0.121 A 
ATOM     26  C   UNL     1     -14.610   2.842  33.954  0.00  0.00    +0.046 A 
BRANCH  25   4
ATOM      4  O   UNL     1     -14.626   5.214  33.692  0.00  0.00    -0.495 OA
ATOM     29  C   UNL     1     -14.175   5.294  35.043  0.00  0.00    +0.277 C 
ENDBRANCH  25   4
ENDBRANCH  13  15
ENDBRANCH   8  13
BRANCH   9  14
ATOM     14  C   UNL     1     -15.962   3.480  25.873  0.00  0.00    +0.124 C 
BRANCH  14  18
ATOM      3  O   UNL     1     -16.498   1.226  25.115  0.00  0.00    -0.251 OA
ATOM     18  C   UNL     1     -16.164   2.376  24.873  0.00  0.00    +0.305 C 
BRANCH  18   2
ATOM      2  O   UNL     1     -15.917   2.842  23.621  0.00  0.00    -0.481 OA
ATOM     31  H   UNL     1     -16.156   3.788  23.530  0.00  0.00    +0.295 HD
ENDBRANCH  18   2
ENDBRANCH  14  18
ENDBRANCH   9  14
BRANCH   7  24
ATOM     24  C   UNL     1     -18.362   5.498  32.739  0.00  0.00    +0.105 C 
BRANCH  24  27
ATOM     27  C   UNL     1     -18.260   4.524  33.909  0.00  0.00    +0.015 C 
ATOM     28  C   UNL     1     -17.950   5.219  35.227  0.00  0.00    +0.005 C 
ENDBRANCH  24  27
ENDBRANCH   7  24
TORSDOF 8
ENDMDL
MODEL 3
REMARK VINA RESULT:      -5.7      2.292      5.343
REMARK  Name = 51136684
REMARK  10 active torsions:
REMARK  status: ('A' for Active; 'I' for Inactive)
REMARK    1  A    between atoms: O_2  and  C_18
REMARK    2  A    between atoms: O_4  and  C_25
REMARK    3  A    between atoms: O_4  and  C_29
REMARK    4  A    between atoms: N_7  and  C_24
REMARK    5  A    between atoms: C_8  and  C_13
REMARK    6  A    between atoms: C_9  and  C_14
REMARK    7  A    between atoms: C_13  and  C_15
REMARK    8  A    between atoms: C_14  and  C_18
REMARK    9  A    between atoms: C_24  and  C_27
REMARK   10  A    between atoms: C_27  and  C_28
REMARK                            x       y       z     vdW  Elec       q    Type
REMARK                         _______ _______ _______ _____ _____    ______ ____
ROOT
ATOM      1  O   UNL     1      -7.623 -11.709  20.036  0.00  0.00    -0.253 OA
ATOM      5  N   UNL     1      -6.299 -10.496  18.568  0.00  0.00    -0.285 N 
ATOM      7  N   UNL     1      -8.656 -10.308  18.543  0.00  0.00    -0.299 N 
ATOM      8  C   UNL     1      -5.363 -10.193  16.293  0.00  0.00    +0.016 C 
ATOM      9  C   UNL     1      -4.041 -10.834  16.789  0.00  0.00    +0.006 C 
ATOM     10  C   UNL     1      -4.274 -11.766  17.992  0.00  0.00    +0.023 C 
ATOM     11  C   UNL     1      -6.093  -9.534  17.476  0.00  0.00    +0.113 C 
ATOM     12  C   UNL     1      -5.060 -11.065  19.099  0.00  0.00    +0.109 C 
ATOM     16  C   UNL     1      -7.532 -10.891  19.113  0.00  0.00    +0.302 C 
ATOM     30  H   UNL     1      -8.588  -9.690  17.747  0.00  0.00    +0.150 HD
ENDROOT
BRANCH   8  13
ATOM     13  C   UNL     1      -6.296 -11.168  15.565  0.00  0.00    +0.061 C 
BRANCH  13  15
ATOM      6  N   UNL     1      -8.416 -10.128  15.126  0.00  0.00    -0.287 NA
ATOM     15  C   UNL     1      -7.240 -10.403  14.668  0.00  0.00    +0.044 C 
ATOM     17  C   UNL     1      -6.779 -10.013  13.311  0.00  0.00    +0.003 A 
ATOM     19  C   UNL     1      -7.769  -9.665  12.384  0.00  0.00    -0.037 A 
ATOM     20  C   UNL     1      -9.206  -9.721  12.810  0.00  0.00    +0.059 C 
ATOM     21  C   UNL     1      -9.312  -9.334  14.278  0.00  0.00    +0.146 C 
ATOM     22  C   UNL     1      -5.431 -10.001  12.947  0.00  0.00    +0.055 A 
ATOM     23  C   UNL     1      -7.404  -9.328  11.077  0.00  0.00    +0.008 A 
ATOM     25  C   UNL     1      -5.075  -9.647  11.644  0.00  0.00    +0.121 A 
ATOM     26  C   UNL     1      -6.058  -9.315  10.712  0.00  0.00    +0.046 A 
BRANCH  25   4
ATOM      4  O   UNL     1      -3.761  -9.621  11.283  0.00  0.00    -0.495 OA
ATOM     29  C   UNL     1      -3.466  -9.260   9.935  0.00  0.00    +0.277 C 
ENDBRANCH  25   4
ENDBRANCH  13  15
ENDBRANCH   8  13
BRANCH   9  14
ATOM     14  C   UNL     1      -3.275 -11.561  15.684  0.00  0.00    +0.124 C 
BRANCH  14  18
ATOM      3  O   UNL     1      -1.774 -10.210  14.319  0.00  0.00    -0.251 OA
ATOM     18  C   UNL     1      -1.997 -10.850  15.336  0.00  0.00    +0.305 C 
BRANCH  18   2
ATOM      2  O   UNL     1      -1.092 -11.020  16.334  0.00  0.00    -0.481 OA
ATOM     31  H   UNL     1      -1.156 -11.912  16.737  0.00  0.00    +0.295 HD
ENDBRANCH  18   2
ENDBRANCH  14  18
ENDBRANCH   9  14
BRANCH   7  24
ATOM     24  C   UNL     1      -9.995 -10.619  18.990  0.00  0.00    +0.105 C 
BRANCH  24  27
ATOM     27  C   UNL     1     -11.060  -9.867  18.199  0.00  0.00    +0.015 C 
ATOM     28  C   UNL     1     -10.555  -8.543  17.643  0.00  0.00    +0.005 C 
ENDBRANCH  24  27
ENDBRANCH   7  24
TORSDOF 8
ENDMDL
MODEL 4
REMARK VINA RESULT:      -5.7      2.024      5.837
REMARK  Name = 51136684
REMARK  10 active torsions:
REMARK  status: ('A' for Active; 'I' for Inactive)
REMARK    1  A    between atoms: O_2  and  C_18
REMARK    2  A    between atoms: O_4  and  C_25
REMARK    3  A    between atoms: O_4  and  C_29
REMARK    4  A    between atoms: N_7  and  C_24
REMARK    5  A    between atoms: C_8  and  C_13
REMARK    6  A    between atoms: C_9  and  C_14
REMARK    7  A    between atoms: C_13  and  C_15
REMARK    8  A    between atoms: C_14  and  C_18
REMARK    9  A    between atoms: C_24  and  C_27
REMARK   10  A    between atoms: C_27  and  C_28
REMARK                            x       y       z     vdW  Elec       q    Type
REMARK                         _______ _______ _______ _____ _____    ______ ____
ROOT
ATOM      1  O   UNL     1      -2.131  -9.976  12.283  0.00  0.00    -0.253 OA
ATOM      5  N   UNL     1      -3.396 -11.301  13.705  0.00  0.00    -0.285 N 
ATOM      7  N   UNL     1      -4.363 -10.238  11.828  0.00  0.00    -0.299 N 
ATOM      8  C   UNL     1      -5.032 -11.485  15.558  0.00  0.00    +0.016 C 
ATOM      9  C   UNL     1      -3.851 -11.757  16.527  0.00  0.00    +0.006 C 
ATOM     10  C   UNL     1      -2.533 -11.159  16.003  0.00  0.00    +0.023 C 
ATOM     11  C   UNL     1      -4.649 -11.936  14.138  0.00  0.00    +0.113 C 
ATOM     12  C   UNL     1      -2.251 -11.598  14.566  0.00  0.00    +0.109 C 
ATOM     16  C   UNL     1      -3.222 -10.473  12.584  0.00  0.00    +0.302 C 
ATOM     30  H   UNL     1      -5.268 -10.589  12.107  0.00  0.00    +0.150 HD
ENDROOT
BRANCH   8  13
ATOM     13  C   UNL     1      -5.507 -10.027  15.546  0.00  0.00    +0.061 C 
BRANCH  13  15
ATOM      6  N   UNL     1      -7.260  -9.832  13.917  0.00  0.00    -0.287 NA
ATOM     15  C   UNL     1      -6.967  -9.966  15.168  0.00  0.00    +0.044 C 
ATOM     17  C   UNL     1      -7.988 -10.054  16.243  0.00  0.00    +0.003 A 
ATOM     19  C   UNL     1      -9.279  -9.613  15.925  0.00  0.00    -0.037 A 
ATOM     20  C   UNL     1      -9.538  -9.077  14.548  0.00  0.00    +0.059 C 
ATOM     21  C   UNL     1      -8.679  -9.832  13.544  0.00  0.00    +0.146 C 
ATOM     22  C   UNL     1      -7.699 -10.534  17.521  0.00  0.00    +0.055 A 
ATOM     23  C   UNL     1     -10.276  -9.631  16.904  0.00  0.00    +0.008 A 
ATOM     25  C   UNL     1      -8.706 -10.564  18.489  0.00  0.00    +0.121 A 
ATOM     26  C   UNL     1      -9.989 -10.111  18.182  0.00  0.00    +0.046 A 
BRANCH  25   4
ATOM      4  O   UNL     1      -8.434 -11.041  19.736  0.00  0.00    -0.495 OA
ATOM     29  C   UNL     1      -7.370 -11.983  19.851  0.00  0.00    +0.277 C 
ENDBRANCH  25   4
ENDBRANCH  13  15
ENDBRANCH   8  13
BRANCH   9  14
ATOM     14  C   UNL     1      -4.126 -11.286  17.955  0.00  0.00    +0.124 C 
BRANCH  14  18
ATOM      3  O   UNL     1      -3.320 -12.246  20.046  0.00  0.00    -0.251 OA
ATOM     18  C   UNL     1      -3.860 -12.374  18.958  0.00  0.00    +0.305 C 
BRANCH  18   2
ATOM      2  O   UNL     1      -4.314 -13.561  18.477  0.00  0.00    -0.481 OA
ATOM     31  H   UNL     1      -3.641 -14.014  17.926  0.00  0.00    +0.295 HD
ENDBRANCH  18   2
ENDBRANCH  14  18
ENDBRANCH   9  14
BRANCH   7  24
ATOM     24  C   UNL     1      -4.346  -9.400  10.650  0.00  0.00    +0.105 C 
BRANCH  24  27
ATOM     27  C   UNL     1      -5.532  -8.443  10.601  0.00  0.00    +0.015 C 
ATOM     28  C   UNL     1      -6.202  -8.406   9.235  0.00  0.00    +0.005 C 
ENDBRANCH  24  27
ENDBRANCH   7  24
TORSDOF 8
ENDMDL
MODEL 5
REMARK VINA RESULT:      -5.7     21.279     24.479
REMARK  Name = 51136684
REMARK  10 active torsions:
REMARK  status: ('A' for Active; 'I' for Inactive)
REMARK    1  A    between atoms: O_2  and  C_18
REMARK    2  A    between atoms: O_4  and  C_25
REMARK    3  A    between atoms: O_4  and  C_29
REMARK    4  A    between atoms: N_7  and  C_24
REMARK    5  A    between atoms: C_8  and  C_13
REMARK    6  A    between atoms: C_9  and  C_14
REMARK    7  A    between atoms: C_13  and  C_15
REMARK    8  A    between atoms: C_14  and  C_18
REMARK    9  A    between atoms: C_24  and  C_27
REMARK   10  A    between atoms: C_27  and  C_28
REMARK                            x       y       z     vdW  Elec       q    Type
REMARK                         _______ _______ _______ _____ _____    ______ ____
ROOT
ATOM      1  O   UNL     1     -16.747   7.833  29.301  0.00  0.00    -0.253 OA
ATOM      5  N   UNL     1     -17.448   5.636  29.056  0.00  0.00    -0.285 N 
ATOM      7  N   UNL     1     -16.583   6.430  31.108  0.00  0.00    -0.299 N 
ATOM      8  C   UNL     1     -16.891   3.243  28.727  0.00  0.00    +0.016 C 
ATOM      9  C   UNL     1     -17.226   3.408  27.221  0.00  0.00    +0.006 C 
ATOM     10  C   UNL     1     -17.056   4.864  26.754  0.00  0.00    +0.023 C 
ATOM     11  C   UNL     1     -17.686   4.272  29.548  0.00  0.00    +0.113 C 
ATOM     12  C   UNL     1     -17.820   5.834  27.654  0.00  0.00    +0.109 C 
ATOM     16  C   UNL     1     -16.917   6.710  29.788  0.00  0.00    +0.302 C 
ATOM     30  H   UNL     1     -16.660   5.498  31.489  0.00  0.00    +0.150 HD
ENDROOT
BRANCH   8  13
ATOM     13  C   UNL     1     -15.395   3.344  29.048  0.00  0.00    +0.061 C 
BRANCH  13  15
ATOM      6  N   UNL     1     -14.749   1.038  29.228  0.00  0.00    -0.287 NA
ATOM     15  C   UNL     1     -14.962   2.146  29.858  0.00  0.00    +0.044 C 
ATOM     17  C   UNL     1     -14.808   2.293  31.328  0.00  0.00    +0.003 A 
ATOM     19  C   UNL     1     -14.790   1.113  32.082  0.00  0.00    -0.037 A 
ATOM     20  C   UNL     1     -14.939  -0.199  31.371  0.00  0.00    +0.059 C 
ATOM     21  C   UNL     1     -14.271  -0.110  30.006  0.00  0.00    +0.146 C 
ATOM     22  C   UNL     1     -14.700   3.536  31.954  0.00  0.00    +0.055 A 
ATOM     23  C   UNL     1     -14.690   1.185  33.475  0.00  0.00    +0.008 A 
ATOM     25  C   UNL     1     -14.583   3.597  33.345  0.00  0.00    +0.121 A 
ATOM     26  C   UNL     1     -14.581   2.426  34.102  0.00  0.00    +0.046 A 
BRANCH  25   4
ATOM      4  O   UNL     1     -14.466   4.806  33.963  0.00  0.00    -0.495 OA
ATOM     29  C   UNL     1     -14.207   4.793  35.365  0.00  0.00    +0.277 C 
ENDBRANCH  25   4
ENDBRANCH  13  15
ENDBRANCH   8  13
BRANCH   9  14
ATOM     14  C   UNL     1     -16.435   2.457  26.323  0.00  0.00    +0.124 C 
BRANCH  14  18
ATOM      3  O   UNL     1     -17.864   0.632  27.079  0.00  0.00    -0.251 OA
ATOM     18  C   UNL     1     -17.053   1.087  26.286  0.00  0.00    +0.305 C 
BRANCH  18   2
ATOM      2  O   UNL     1     -16.572   0.397  25.220  0.00  0.00    -0.481 OA
ATOM     31  H   UNL     1     -17.261   0.255  24.536  0.00  0.00    +0.295 HD
ENDBRANCH  18   2
ENDBRANCH  14  18
ENDBRANCH   9  14
BRANCH   7  24
ATOM     24  C   UNL     1     -16.019   7.429  31.987  0.00  0.00    +0.105 C 
BRANCH  24  27
ATOM     27  C   UNL     1     -14.495   7.455  31.934  0.00  0.00    +0.015 C 
ATOM     28  C   UNL     1     -13.872   8.018  33.203  0.00  0.00    +0.005 C 
ENDBRANCH  24  27
ENDBRANCH   7  24
TORSDOF 8
ENDMDL
MODEL 6
REMARK VINA RESULT:      -5.7     23.847     26.967
REMARK  Name = 51136684
REMARK  10 active torsions:
REMARK  status: ('A' for Active; 'I' for Inactive)
REMARK    1  A    between atoms: O_2  and  C_18
REMARK    2  A    between atoms: O_4  and  C_25
REMARK    3  A    between atoms: O_4  and  C_29
REMARK    4  A    between atoms: N_7  and  C_24
REMARK    5  A    between atoms: C_8  and  C_13
REMARK    6  A    between atoms: C_9  and  C_14
REMARK    7  A    between atoms: C_13  and  C_15
REMARK    8  A    between atoms: C_14  and  C_18
REMARK    9  A    between atoms: C_24  and  C_27
REMARK   10  A    between atoms: C_27  and  C_28
REMARK                            x       y       z     vdW  Elec       q    Type
REMARK                         _______ _______ _______ _____ _____    ______ ____
ROOT
ATOM      1  O   UNL     1      15.392   6.931   4.638  0.00  0.00    -0.253 OA
ATOM      5  N   UNL     1      13.808   6.995   2.944  0.00  0.00    -0.285 N 
ATOM      7  N   UNL     1      13.526   8.228   4.942  0.00  0.00    -0.299 N 
ATOM      8  C   UNL     1      11.620   6.260   2.041  0.00  0.00    +0.016 C 
ATOM      9  C   UNL     1      12.371   5.230   1.156  0.00  0.00    +0.006 C 
ATOM     10  C   UNL     1      13.731   4.841   1.762  0.00  0.00    +0.023 C 
ATOM     11  C   UNL     1      12.546   7.450   2.346  0.00  0.00    +0.113 C 
ATOM     12  C   UNL     1      14.568   6.074   2.099  0.00  0.00    +0.109 C 
ATOM     16  C   UNL     1      14.317   7.357   4.203  0.00  0.00    +0.302 C 
ATOM     30  H   UNL     1      12.617   8.526   4.617  0.00  0.00    +0.150 HD
ENDROOT
BRANCH   8  13
ATOM     13  C   UNL     1      11.058   5.673   3.342  0.00  0.00    +0.061 C 
BRANCH  13  15
ATOM      6  N   UNL     1       9.294   7.269   3.012  0.00  0.00    -0.287 NA
ATOM     15  C   UNL     1       9.949   6.553   3.865  0.00  0.00    +0.044 C 
ATOM     17  C   UNL     1       9.670   6.561   5.324  0.00  0.00    +0.003 A 
ATOM     19  C   UNL     1       8.929   7.641   5.819  0.00  0.00    -0.037 A 
ATOM     20  C   UNL     1       8.485   8.709   4.863  0.00  0.00    +0.059 C 
ATOM     21  C   UNL     1       8.178   8.079   3.512  0.00  0.00    +0.146 C 
ATOM     22  C   UNL     1      10.125   5.561   6.185  0.00  0.00    +0.055 A 
ATOM     23  C   UNL     1       8.667   7.730   7.190  0.00  0.00    +0.008 A 
ATOM     25  C   UNL     1       9.845   5.649   7.550  0.00  0.00    +0.121 A 
ATOM     26  C   UNL     1       9.122   6.731   8.051  0.00  0.00    +0.046 A 
BRANCH  25   4
ATOM      4  O   UNL     1      10.277   4.671   8.395  0.00  0.00    -0.495 OA
ATOM     29  C   UNL     1       9.418   4.329   9.482  0.00  0.00    +0.277 C 
ENDBRANCH  25   4
ENDBRANCH  13  15
ENDBRANCH   8  13
BRANCH   9  14
ATOM     14  C   UNL     1      11.540   3.984   0.850  0.00  0.00    +0.124 C 
BRANCH  14  18
ATOM      3  O   UNL     1      11.435   3.577  -1.551  0.00  0.00    -0.251 OA
ATOM     18  C   UNL     1      10.947   4.039  -0.531  0.00  0.00    +0.305 C 
BRANCH  18   2
ATOM      2  O   UNL     1       9.758   4.693  -0.492  0.00  0.00    -0.481 OA
ATOM     31  H   UNL     1       9.823   5.593  -0.877  0.00  0.00    +0.295 HD
ENDBRANCH  18   2
ENDBRANCH  14  18
ENDBRANCH   9  14
BRANCH   7  24
ATOM     24  C   UNL     1      13.909   8.686   6.258  0.00  0.00    +0.105 C 
BRANCH  24  27
ATOM     27  C   UNL     1      12.793   8.510   7.282  0.00  0.00    +0.015 C 
ATOM     28  C   UNL     1      11.851   9.704   7.338  0.00  0.00    +0.005 C 
ENDBRANCH  24  27
ENDBRANCH   7  24
TORSDOF 8
ENDMDL
MODEL 7
REMARK VINA RESULT:      -5.6     22.634     25.482
REMARK  Name = 51136684
REMARK  10 active torsions:
REMARK  status: ('A' for Active; 'I' for Inactive)
REMARK    1  A    between atoms: O_2  and  C_18
REMARK    2  A    between atoms: O_4  and  C_25
REMARK    3  A    between atoms: O_4  and  C_29
REMARK    4  A    between atoms: N_7  and  C_24
REMARK    5  A    between atoms: C_8  and  C_13
REMARK    6  A    between atoms: C_9  and  C_14
REMARK    7  A    between atoms: C_13  and  C_15
REMARK    8  A    between atoms: C_14  and  C_18
REMARK    9  A    between atoms: C_24  and  C_27
REMARK   10  A    between atoms: C_27  and  C_28
REMARK                            x       y       z     vdW  Elec       q    Type
REMARK                         _______ _______ _______ _____ _____    ______ ____
ROOT
ATOM      1  O   UNL     1     -17.095   6.188  28.244  0.00  0.00    -0.253 OA
ATOM      5  N   UNL     1     -16.864   4.350  29.640  0.00  0.00    -0.285 N 
ATOM      7  N   UNL     1     -17.159   6.529  30.511  0.00  0.00    -0.299 N 
ATOM      8  C   UNL     1     -15.451   2.979  31.145  0.00  0.00    +0.016 C 
ATOM      9  C   UNL     1     -15.230   1.985  29.975  0.00  0.00    +0.006 C 
ATOM     10  C   UNL     1     -15.400   2.668  28.606  0.00  0.00    +0.023 C 
ATOM     11  C   UNL     1     -16.794   3.705  30.959  0.00  0.00    +0.113 C 
ATOM     12  C   UNL     1     -16.726   3.423  28.517  0.00  0.00    +0.109 C 
ATOM     16  C   UNL     1     -17.046   5.720  29.387  0.00  0.00    +0.302 C 
ATOM     30  H   UNL     1     -17.053   6.159  31.445  0.00  0.00    +0.150 HD
ENDROOT
BRANCH   8  13
ATOM     13  C   UNL     1     -14.316   3.993  31.327  0.00  0.00    +0.061 C 
BRANCH  13  15
ATOM      6  N   UNL     1     -14.554   3.515  33.668  0.00  0.00    -0.287 NA
ATOM     15  C   UNL     1     -14.205   4.386  32.780  0.00  0.00    +0.044 C 
ATOM     17  C   UNL     1     -13.712   5.746  33.118  0.00  0.00    +0.003 A 
ATOM     19  C   UNL     1     -13.982   6.212  34.410  0.00  0.00    -0.037 A 
ATOM     20  C   UNL     1     -14.751   5.330  35.348  0.00  0.00    +0.059 C 
ATOM     21  C   UNL     1     -14.390   3.875  35.080  0.00  0.00    +0.146 C 
ATOM     22  C   UNL     1     -13.023   6.547  32.205  0.00  0.00    +0.055 A 
ATOM     23  C   UNL     1     -13.581   7.500  34.778  0.00  0.00    +0.008 A 
ATOM     25  C   UNL     1     -12.612   7.826  32.587  0.00  0.00    +0.121 A 
ATOM     26  C   UNL     1     -12.892   8.302  33.868  0.00  0.00    +0.046 A 
BRANCH  25   4
ATOM      4  O   UNL     1     -11.930   8.610  31.706  0.00  0.00    -0.495 OA
ATOM     29  C   UNL     1     -12.589   9.786  31.240  0.00  0.00    +0.277 C 
ENDBRANCH  25   4
ENDBRANCH  13  15
ENDBRANCH   8  13
BRANCH   9  14
ATOM     14  C   UNL     1     -13.888   1.258  30.051  0.00  0.00    +0.124 C 
BRANCH  14  18
ATOM      3  O   UNL     1     -15.121  -0.843  30.158  0.00  0.00    -0.251 OA
ATOM     18  C   UNL     1     -14.066  -0.236  30.050  0.00  0.00    +0.305 C 
BRANCH  18   2
ATOM      2  O   UNL     1     -12.859  -0.841  29.910  0.00  0.00    -0.481 OA
ATOM     31  H   UNL     1     -12.938  -1.818  29.906  0.00  0.00    +0.295 HD
ENDBRANCH  18   2
ENDBRANCH  14  18
ENDBRANCH   9  14
BRANCH   7  24
ATOM     24  C   UNL     1     -17.341   7.959  30.415  0.00  0.00    +0.105 C 
BRANCH  24  27
ATOM     27  C   UNL     1     -16.124   8.734  30.909  0.00  0.00    +0.015 C 
ATOM     28  C   UNL     1     -16.176   9.020  32.403  0.00  0.00    +0.005 C 
ENDBRANCH  24  27
ENDBRANCH   7  24
TORSDOF 8
ENDMDL
MODEL 8
REMARK VINA RESULT:      -5.5      2.046      4.795
REMARK  Name = 51136684
REMARK  10 active torsions:
REMARK  status: ('A' for Active; 'I' for Inactive)
REMARK    1  A    between atoms: O_2  and  C_18
REMARK    2  A    between atoms: O_4  and  C_25
REMARK    3  A    between atoms: O_4  and  C_29
REMARK    4  A    between atoms: N_7  and  C_24
REMARK    5  A    between atoms: C_8  and  C_13
REMARK    6  A    between atoms: C_9  and  C_14
REMARK    7  A    between atoms: C_13  and  C_15
REMARK    8  A    between atoms: C_14  and  C_18
REMARK    9  A    between atoms: C_24  and  C_27
REMARK   10  A    between atoms: C_27  and  C_28
REMARK                            x       y       z     vdW  Elec       q    Type
REMARK                         _______ _______ _______ _____ _____    ______ ____
ROOT
ATOM      1  O   UNL     1      -1.987 -10.427  16.163  0.00  0.00    -0.253 OA
ATOM      5  N   UNL     1      -4.044 -11.490  16.303  0.00  0.00    -0.285 N 
ATOM      7  N   UNL     1      -3.059 -10.983  14.214  0.00  0.00    -0.299 N 
ATOM      8  C   UNL     1      -6.516 -11.378  16.168  0.00  0.00    +0.016 C 
ATOM      9  C   UNL     1      -6.563 -11.312  17.717  0.00  0.00    +0.006 C 
ATOM     10  C   UNL     1      -5.260 -10.740  18.304  0.00  0.00    +0.023 C 
ATOM     11  C   UNL     1      -5.240 -12.113  15.722  0.00  0.00    +0.113 C 
ATOM     12  C   UNL     1      -4.033 -11.475  17.767  0.00  0.00    +0.109 C 
ATOM     16  C   UNL     1      -2.962 -10.934  15.599  0.00  0.00    +0.302 C 
ATOM     30  H   UNL     1      -3.884 -11.338  13.751  0.00  0.00    +0.150 HD
ENDROOT
BRANCH   8  13
ATOM     13  C   UNL     1      -6.613 -10.011  15.480  0.00  0.00    +0.061 C 
BRANCH  13  15
ATOM      6  N   UNL     1      -8.949 -10.234  14.968  0.00  0.00    -0.287 NA
ATOM     15  C   UNL     1      -7.764 -10.008  14.504  0.00  0.00    +0.044 C 
ATOM     17  C   UNL     1      -7.484  -9.755  13.067  0.00  0.00    +0.003 A 
ATOM     19  C   UNL     1      -8.475 -10.135  12.154  0.00  0.00    -0.037 A 
ATOM     20  C   UNL     1      -9.727 -10.774  12.675  0.00  0.00    +0.059 C 
ATOM     21  C   UNL     1     -10.074 -10.172  14.029  0.00  0.00    +0.146 C 
ATOM     22  C   UNL     1      -6.291  -9.182  12.621  0.00  0.00    +0.055 A 
ATOM     23  C   UNL     1      -8.255  -9.962  10.784  0.00  0.00    +0.008 A 
ATOM     25  C   UNL     1      -6.087  -8.997  11.252  0.00  0.00    +0.121 A 
ATOM     26  C   UNL     1      -7.064  -9.389  10.337  0.00  0.00    +0.046 A 
BRANCH  25   4
ATOM      4  O   UNL     1      -4.931  -8.429  10.809  0.00  0.00    -0.495 OA
ATOM     29  C   UNL     1      -4.552  -8.698   9.461  0.00  0.00    +0.277 C 
ENDBRANCH  25   4
ENDBRANCH  13  15
ENDBRANCH   8  13
BRANCH   9  14
ATOM     14  C   UNL     1      -7.775 -10.546  18.247  0.00  0.00    +0.124 C 
BRANCH  14  18
ATOM      3  O   UNL     1      -8.371 -12.467  19.626  0.00  0.00    -0.251 OA
ATOM     18  C   UNL     1      -8.429 -11.269  19.392  0.00  0.00    +0.305 C 
BRANCH  18   2
ATOM      2  O   UNL     1      -9.116 -10.384  20.159  0.00  0.00    -0.481 OA
ATOM     31  H   UNL     1      -9.822 -10.822  20.680  0.00  0.00    +0.295 HD
ENDBRANCH  18   2
ENDBRANCH  14  18
ENDBRANCH   9  14
BRANCH   7  24
ATOM     24  C   UNL     1      -2.031 -10.446  13.352  0.00  0.00    +0.105 C 
BRANCH  24  27
ATOM     27  C   UNL     1      -2.408 -10.530  11.877  0.00  0.00    +0.015 C 
ATOM     28  C   UNL     1      -3.345 -11.691  11.575  0.00  0.00    +0.005 C 
ENDBRANCH  24  27
ENDBRANCH   7  24
TORSDOF 8
ENDMDL
MODEL 9
REMARK VINA RESULT:      -5.4      1.915      2.948
REMARK  Name = 51136684
REMARK  10 active torsions:
REMARK  status: ('A' for Active; 'I' for Inactive)
REMARK    1  A    between atoms: O_2  and  C_18
REMARK    2  A    between atoms: O_4  and  C_25
REMARK    3  A    between atoms: O_4  and  C_29
REMARK    4  A    between atoms: N_7  and  C_24
REMARK    5  A    between atoms: C_8  and  C_13
REMARK    6  A    between atoms: C_9  and  C_14
REMARK    7  A    between atoms: C_13  and  C_15
REMARK    8  A    between atoms: C_14  and  C_18
REMARK    9  A    between atoms: C_24  and  C_27
REMARK   10  A    between atoms: C_27  and  C_28
REMARK                            x       y       z     vdW  Elec       q    Type
REMARK                         _______ _______ _______ _____ _____    ______ ____
ROOT
ATOM      1  O   UNL     1      -9.520 -10.652  16.672  0.00  0.00    -0.253 OA
ATOM      5  N   UNL     1      -7.328  -9.895  16.635  0.00  0.00    -0.285 N 
ATOM      7  N   UNL     1      -8.678  -9.853  14.695  0.00  0.00    -0.299 N 
ATOM      8  C   UNL     1      -4.949 -10.276  16.051  0.00  0.00    +0.016 C 
ATOM      9  C   UNL     1      -4.683 -10.655  17.531  0.00  0.00    +0.006 C 
ATOM     10  C   UNL     1      -5.955 -11.170  18.227  0.00  0.00    +0.023 C 
ATOM     11  C   UNL     1      -6.151  -9.318  15.972  0.00  0.00    +0.113 C 
ATOM     12  C   UNL     1      -7.122 -10.199  18.052  0.00  0.00    +0.109 C 
ATOM     16  C   UNL     1      -8.574 -10.164  16.045  0.00  0.00    +0.302 C 
ATOM     30  H   UNL     1      -7.887  -9.516  14.164  0.00  0.00    +0.150 HD
ENDROOT
BRANCH   8  13
ATOM     13  C   UNL     1      -5.165 -11.480  15.126  0.00  0.00    +0.061 C 
BRANCH  13  15
ATOM      6  N   UNL     1      -3.086 -12.159  14.134  0.00  0.00    -0.287 NA
ATOM     15  C   UNL     1      -4.159 -11.451  14.002  0.00  0.00    +0.044 C 
ATOM     17  C   UNL     1      -4.443 -10.612  12.810  0.00  0.00    +0.003 A 
ATOM     19  C   UNL     1      -3.355 -10.299  11.984  0.00  0.00    -0.037 A 
ATOM     20  C   UNL     1      -1.996 -10.811  12.358  0.00  0.00    +0.059 C 
ATOM     21  C   UNL     1      -2.137 -12.177  13.016  0.00  0.00    +0.146 C 
ATOM     22  C   UNL     1      -5.719 -10.131  12.511  0.00  0.00    +0.055 A 
ATOM     23  C   UNL     1      -3.548  -9.479  10.869  0.00  0.00    +0.008 A 
ATOM     25  C   UNL     1      -5.905  -9.326  11.386  0.00  0.00    +0.121 A 
ATOM     26  C   UNL     1      -4.823  -8.998  10.569  0.00  0.00    +0.046 A 
BRANCH  25   4
ATOM      4  O   UNL     1      -7.150  -8.862  11.082  0.00  0.00    -0.495 OA
ATOM     29  C   UNL     1      -7.468  -8.720   9.699  0.00  0.00    +0.277 C 
ENDBRANCH  25   4
ENDBRANCH  13  15
ENDBRANCH   8  13
BRANCH   9  14
ATOM     14  C   UNL     1      -3.535 -11.651  17.698  0.00  0.00    +0.124 C 
BRANCH  14  18
ATOM      3  O   UNL     1      -3.461 -12.155  20.082  0.00  0.00    -0.251 OA
ATOM     18  C   UNL     1      -3.706 -12.491  18.933  0.00  0.00    +0.305 C 
BRANCH  18   2
ATOM      2  O   UNL     1      -4.184 -13.716  18.591  0.00  0.00    -0.481 OA
ATOM     31  H   UNL     1      -4.220 -14.322  19.361  0.00  0.00    +0.295 HD
ENDBRANCH  18   2
ENDBRANCH  14  18
ENDBRANCH   9  14
BRANCH   7  24
ATOM     24  C   UNL     1      -9.893 -10.079  13.945  0.00  0.00    +0.105 C 
BRANCH  24  27
ATOM     27  C   UNL     1      -9.691 -11.061  12.796  0.00  0.00    +0.015 C 
ATOM     28  C   UNL     1      -8.632 -12.112  13.099  0.00  0.00    +0.005 C 
ENDBRANCH  24  27
ENDBRANCH   7  24
TORSDOF 8
ENDMDL
MODEL 10
REMARK VINA RESULT:      -5.3      2.460      6.912
REMARK  Name = 51136684
REMARK  10 active torsions:
REMARK  status: ('A' for Active; 'I' for Inactive)
REMARK    1  A    between atoms: O_2  and  C_18
REMARK    2  A    between atoms: O_4  and  C_25
REMARK    3  A    between atoms: O_4  and  C_29
REMARK    4  A    between atoms: N_7  and  C_24
REMARK    5  A    between atoms: C_8  and  C_13
REMARK    6  A    between atoms: C_9  and  C_14
REMARK    7  A    between atoms: C_13  and  C_15
REMARK    8  A    between atoms: C_14  and  C_18
REMARK    9  A    between atoms: C_24  and  C_27
REMARK   10  A    between atoms: C_27  and  C_28
REMARK                            x       y       z     vdW  Elec       q    Type
REMARK                         _______ _______ _______ _____ _____    ______ ____
ROOT
ATOM      1  O   UNL     1      -5.249 -14.979  11.806  0.00  0.00    -0.253 OA
ATOM      5  N   UNL     1      -3.672 -13.311  11.477  0.00  0.00    -0.285 N 
ATOM      7  N   UNL     1      -3.844 -14.453  13.540  0.00  0.00    -0.299 N 
ATOM      8  C   UNL     1      -2.943 -10.967  11.821  0.00  0.00    +0.016 C 
ATOM      9  C   UNL     1      -3.433 -10.641  10.385  0.00  0.00    +0.006 C 
ATOM     10  C   UNL     1      -4.535 -11.611   9.924  0.00  0.00    +0.023 C 
ATOM     11  C   UNL     1      -2.559 -12.454  11.909  0.00  0.00    +0.113 C 
ATOM     12  C   UNL     1      -4.109 -13.068  10.101  0.00  0.00    +0.109 C 
ATOM     16  C   UNL     1      -4.317 -14.296  12.243  0.00  0.00    +0.302 C 
ATOM     30  H   UNL     1      -3.127 -13.852  13.921  0.00  0.00    +0.150 HD
ENDROOT
BRANCH   8  13
ATOM     13  C   UNL     1      -3.948 -10.608  12.921  0.00  0.00    +0.061 C 
BRANCH  13  15
ATOM      6  N   UNL     1      -1.960 -10.295  14.231  0.00  0.00    -0.287 NA
ATOM     15  C   UNL     1      -3.238 -10.489  14.248  0.00  0.00    +0.044 C 
ATOM     17  C   UNL     1      -4.031 -10.607  15.498  0.00  0.00    +0.003 A 
ATOM     19  C   UNL     1      -3.321 -10.880  16.673  0.00  0.00    -0.037 A 
ATOM     20  C   UNL     1      -1.833 -11.047  16.593  0.00  0.00    +0.059 C 
ATOM     21  C   UNL     1      -1.279 -10.121  15.519  0.00  0.00    +0.146 C 
ATOM     22  C   UNL     1      -5.421 -10.472  15.525  0.00  0.00    +0.055 A 
ATOM     23  C   UNL     1      -4.013 -11.044  17.877  0.00  0.00    +0.008 A 
ATOM     25  C   UNL     1      -6.102 -10.621  16.735  0.00  0.00    +0.121 A 
ATOM     26  C   UNL     1      -5.401 -10.909  17.905  0.00  0.00    +0.046 A 
BRANCH  25   4
ATOM      4  O   UNL     1      -7.457 -10.480  16.772  0.00  0.00    -0.495 OA
ATOM     29  C   UNL     1      -7.965  -9.172  17.026  0.00  0.00    +0.277 C 
ENDBRANCH  25   4
ENDBRANCH  13  15
ENDBRANCH   8  13
BRANCH   9  14
ATOM     14  C   UNL     1      -3.889  -9.191  10.223  0.00  0.00    +0.124 C 
BRANCH  14  18
ATOM      3  O   UNL     1      -6.293  -9.100   9.831  0.00  0.00    -0.251 OA
ATOM     18  C   UNL     1      -5.148  -9.094   9.406  0.00  0.00    +0.305 C 
BRANCH  18   2
ATOM      2  O   UNL     1      -4.832  -8.995   8.089  0.00  0.00    -0.481 OA
ATOM     31  H   UNL     1      -4.651  -9.873   7.690  0.00  0.00    +0.295 HD
ENDBRANCH  18   2
ENDBRANCH  14  18
ENDBRANCH   9  14
BRANCH   7  24
ATOM     24  C   UNL     1      -4.410 -15.420  14.453  0.00  0.00    +0.105 C 
BRANCH  24  27
ATOM     27  C   UNL     1      -4.459 -14.904  15.887  0.00  0.00    +0.015 C 
ATOM     28  C   UNL     1      -5.775 -14.215  16.220  0.00  0.00    +0.005 C 
ENDBRANCH  24  27
ENDBRANCH   7  24
TORSDOF 8
ENDMDL
