MODEL 1
REMARK VINA RESULT:      -6.4      0.000      0.000
REMARK  Name = 7663180
REMARK  5 active torsions:
REMARK  status: ('A' for Active; 'I' for Inactive)
REMARK    1  A    between atoms: O_1  and  C_12
REMARK    2  A    between atoms: O_1  and  C_19
REMARK    3  A    between atoms: C_8  and  C_12
REMARK    4  A    between atoms: C_13  and  C_16
REMARK    5  A    between atoms: C_14  and  C_15
REMARK                            x       y       z     vdW  Elec       q    Type
REMARK                         _______ _______ _______ _____ _____    ______ ____
ROOT
ATOM      3  O   UNL     1      17.693   8.154  20.557  0.00  0.00    -0.276 OA
ATOM      4  O   UNL     1      10.536   8.335  20.941  0.00  0.00    -0.270 OA
ATOM      5  N   UNL     1      15.396   7.796  20.462  0.00  0.00    -0.285 N 
ATOM      6  N   UNL     1      12.803   8.311  21.509  0.00  0.00    -0.294 N 
ATOM      8  C   UNL     1      14.239   7.054  19.930  0.00  0.00    +0.202 C 
ATOM      9  C   UNL     1      13.061   7.005  20.905  0.00  0.00    +0.142 C 
ATOM     10  C   UNL     1      15.101   9.067  21.142  0.00  0.00    +0.127 C 
ATOM     11  C   UNL     1      13.973   8.914  22.152  0.00  0.00    +0.127 C 
ATOM     13  C   UNL     1      16.731   7.455  20.227  0.00  0.00    +0.213 C 
ATOM     14  C   UNL     1      11.515   8.847  21.483  0.00  0.00    +0.248 C 
ATOM     16  C   UNL     1      16.983   6.137  19.536  0.00  0.00    +0.109 C 
ENDROOT
BRANCH  14  15
ATOM      7  N   UNL     1      10.615  11.359  24.110  0.00  0.00    -0.263 NA
ATOM     15  C   UNL     1      11.291  10.141  22.141  0.00  0.00    +0.055 A 
ATOM     17  C   UNL     1      11.526  11.331  21.468  0.00  0.00    +0.016 A 
ATOM     18  C   UNL     1      10.841  10.204  23.447  0.00  0.00    +0.123 A 
ATOM     20  C   UNL     1      11.305  12.540  22.116  0.00  0.00    +0.020 A 
ATOM     21  C   UNL     1      10.854  12.501  23.426  0.00  0.00    +0.111 A 
ENDBRANCH  14  15
BRANCH   8  12
ATOM      2  O   UNL     1      14.616   8.424  17.983  0.00  0.00    -0.249 OA
ATOM     12  C   UNL     1      13.858   7.725  18.642  0.00  0.00    +0.329 C 
BRANCH  12   1
ATOM      1  O   UNL     1      12.559   7.434  18.343  0.00  0.00    -0.467 OA
ATOM     19  C   UNL     1      11.854   8.446  17.616  0.00  0.00    +0.280 C 
ENDBRANCH  12   1
ENDBRANCH   8  12
TORSDOF 3
ENDMDL
MODEL 2
REMARK VINA RESULT:      -5.4     26.181     27.606
REMARK  Name = 7663180
REMARK  5 active torsions:
REMARK  status: ('A' for Active; 'I' for Inactive)
REMARK    1  A    between atoms: O_1  and  C_12
REMARK    2  A    between atoms: O_1  and  C_19
REMARK    3  A    between atoms: C_8  and  C_12
REMARK    4  A    between atoms: C_13  and  C_16
REMARK    5  A    between atoms: C_14  and  C_15
REMARK                            x       y       z     vdW  Elec       q    Type
REMARK                         _______ _______ _______ _____ _____    ______ ____
ROOT
ATOM      3  O   UNL     1      -4.710 -10.099  11.720  0.00  0.00    -0.276 OA
ATOM      4  O   UNL     1      -3.332 -11.867  18.530  0.00  0.00    -0.270 OA
ATOM      5  N   UNL     1      -3.812 -10.655  13.793  0.00  0.00    -0.285 N 
ATOM      6  N   UNL     1      -4.082 -10.745  16.622  0.00  0.00    -0.294 N 
ATOM      8  C   UNL     1      -2.666 -11.077  14.618  0.00  0.00    +0.202 C 
ATOM      9  C   UNL     1      -2.745 -10.567  16.058  0.00  0.00    +0.142 C 
ATOM     10  C   UNL     1      -5.140 -10.763  14.416  0.00  0.00    +0.127 C 
ATOM     11  C   UNL     1      -5.155 -10.161  15.814  0.00  0.00    +0.127 C 
ATOM     13  C   UNL     1      -3.731 -10.317  12.439  0.00  0.00    +0.213 C 
ATOM     14  C   UNL     1      -4.238 -11.378  17.856  0.00  0.00    +0.248 C 
ATOM     16  C   UNL     1      -2.347 -10.208  11.848  0.00  0.00    +0.109 C 
ENDROOT
BRANCH  14  15
ATOM      7  N   UNL     1      -7.309 -10.620  19.859  0.00  0.00    -0.263 NA
ATOM     15  C   UNL     1      -5.594 -11.496  18.407  0.00  0.00    +0.055 A 
ATOM     17  C   UNL     1      -6.427 -12.539  18.029  0.00  0.00    +0.016 A 
ATOM     18  C   UNL     1      -6.073 -10.571  19.315  0.00  0.00    +0.123 A 
ATOM     20  C   UNL     1      -7.705 -12.624  18.566  0.00  0.00    +0.020 A 
ATOM     21  C   UNL     1      -8.096 -11.649  19.470  0.00  0.00    +0.111 A 
ENDBRANCH  14  15
BRANCH   8  12
ATOM      2  O   UNL     1      -3.537 -13.296  14.975  0.00  0.00    -0.249 OA
ATOM     12  C   UNL     1      -2.634 -12.577  14.567  0.00  0.00    +0.329 C 
BRANCH  12   1
ATOM      1  O   UNL     1      -1.460 -12.990  14.009  0.00  0.00    -0.467 OA
ATOM     19  C   UNL     1      -1.435 -14.351  13.566  0.00  0.00    +0.280 C 
ENDBRANCH  12   1
ENDBRANCH   8  12
TORSDOF 3
ENDMDL
MODEL 3
REMARK VINA RESULT:      -5.2      2.296      6.013
REMARK  Name = 7663180
REMARK  5 active torsions:
REMARK  status: ('A' for Active; 'I' for Inactive)
REMARK    1  A    between atoms: O_1  and  C_12
REMARK    2  A    between atoms: O_1  and  C_19
REMARK    3  A    between atoms: C_8  and  C_12
REMARK    4  A    between atoms: C_13  and  C_16
REMARK    5  A    between atoms: C_14  and  C_15
REMARK                            x       y       z     vdW  Elec       q    Type
REMARK                         _______ _______ _______ _____ _____    ______ ____
ROOT
ATOM      3  O   UNL     1      14.149  13.558  21.204  0.00  0.00    -0.276 OA
ATOM      4  O   UNL     1      13.324   6.570  19.832  0.00  0.00    -0.270 OA
ATOM      5  N   UNL     1      13.424  11.400  20.719  0.00  0.00    -0.285 N 
ATOM      6  N   UNL     1      14.000   8.804  19.715  0.00  0.00    -0.294 N 
ATOM      8  C   UNL     1      12.332  10.422  20.571  0.00  0.00    +0.202 C 
ATOM      9  C   UNL     1      12.645   9.327  19.549  0.00  0.00    +0.142 C 
ATOM     10  C   UNL     1      14.787  10.852  20.797  0.00  0.00    +0.127 C 
ATOM     11  C   UNL     1      15.045   9.830  19.699  0.00  0.00    +0.127 C 
ATOM     13  C   UNL     1      13.238  12.768  20.943  0.00  0.00    +0.213 C 
ATOM     14  C   UNL     1      14.206   7.427  19.819  0.00  0.00    +0.248 C 
ATOM     16  C   UNL     1      11.823  13.285  20.841  0.00  0.00    +0.109 C 
ENDROOT
BRANCH  14  15
ATOM      7  N   UNL     1      17.473   5.828  18.928  0.00  0.00    -0.263 NA
ATOM     15  C   UNL     1      15.587   6.941  19.939  0.00  0.00    +0.055 A 
ATOM     17  C   UNL     1      16.302   7.116  21.115  0.00  0.00    +0.016 A 
ATOM     18  C   UNL     1      16.207   6.298  18.884  0.00  0.00    +0.123 A 
ATOM     20  C   UNL     1      17.607   6.646  21.199  0.00  0.00    +0.020 A 
ATOM     21  C   UNL     1      18.142   6.014  20.089  0.00  0.00    +0.111 A 
ENDBRANCH  14  15
BRANCH   8  12
ATOM      2  O   UNL     1      12.937   9.781  22.814  0.00  0.00    -0.249 OA
ATOM     12  C   UNL     1      12.087   9.847  21.936  0.00  0.00    +0.329 C 
BRANCH  12   1
ATOM      1  O   UNL     1      10.795   9.419  22.025  0.00  0.00    -0.467 OA
ATOM     19  C   UNL     1      10.627   8.041  22.373  0.00  0.00    +0.280 C 
ENDBRANCH  12   1
ENDBRANCH   8  12
TORSDOF 3
ENDMDL
MODEL 4
REMARK VINA RESULT:      -5.2     16.978     19.725
REMARK  Name = 7663180
REMARK  5 active torsions:
REMARK  status: ('A' for Active; 'I' for Inactive)
REMARK    1  A    between atoms: O_1  and  C_12
REMARK    2  A    between atoms: O_1  and  C_19
REMARK    3  A    between atoms: C_8  and  C_12
REMARK    4  A    between atoms: C_13  and  C_16
REMARK    5  A    between atoms: C_14  and  C_15
REMARK                            x       y       z     vdW  Elec       q    Type
REMARK                         _______ _______ _______ _____ _____    ______ ____
ROOT
ATOM      3  O   UNL     1      10.764   2.923  -1.909  0.00  0.00    -0.276 OA
ATOM      4  O   UNL     1      12.652   6.798   3.820  0.00  0.00    -0.270 OA
ATOM      5  N   UNL     1      11.797   4.205  -0.264  0.00  0.00    -0.285 N 
ATOM      6  N   UNL     1      11.572   6.050   1.888  0.00  0.00    -0.294 N 
ATOM      8  C   UNL     1      13.018   4.766   0.340  0.00  0.00    +0.202 C 
ATOM      9  C   UNL     1      12.774   6.096   1.057  0.00  0.00    +0.142 C 
ATOM     10  C   UNL     1      10.580   4.249   0.561  0.00  0.00    +0.127 C 
ATOM     11  C   UNL     1      10.366   5.626   1.172  0.00  0.00    +0.127 C 
ATOM     13  C   UNL     1      11.760   3.509  -1.476  0.00  0.00    +0.213 C 
ATOM     14  C   UNL     1      11.635   6.443   3.225  0.00  0.00    +0.248 C 
ATOM     16  C   UNL     1      13.030   3.502  -2.292  0.00  0.00    +0.109 C 
ENDROOT
BRANCH  14  15
ATOM      7  N   UNL     1       9.006   5.309   5.638  0.00  0.00    -0.263 NA
ATOM     15  C   UNL     1      10.395   6.424   4.012  0.00  0.00    +0.055 A 
ATOM     17  C   UNL     1       9.465   7.447   3.896  0.00  0.00    +0.016 A 
ATOM     18  C   UNL     1      10.125   5.387   4.885  0.00  0.00    +0.123 A 
ATOM     20  C   UNL     1       8.301   7.402   4.653  0.00  0.00    +0.020 A 
ATOM     21  C   UNL     1       8.119   6.322   5.502  0.00  0.00    +0.111 A 
ENDBRANCH  14  15
BRANCH   8  12
ATOM      2  O   UNL     1      12.864   2.832   1.769  0.00  0.00    -0.249 OA
ATOM     12  C   UNL     1      13.546   3.723   1.282  0.00  0.00    +0.329 C 
BRANCH  12   1
ATOM      1  O   UNL     1      14.876   3.936   1.499  0.00  0.00    -0.467 OA
ATOM     19  C   UNL     1      15.688   3.993   0.321  0.00  0.00    +0.280 C 
ENDBRANCH  12   1
ENDBRANCH   8  12
TORSDOF 3
ENDMDL
MODEL 5
REMARK VINA RESULT:      -5.1     26.078     28.183
REMARK  Name = 7663180
REMARK  5 active torsions:
REMARK  status: ('A' for Active; 'I' for Inactive)
REMARK    1  A    between atoms: O_1  and  C_12
REMARK    2  A    between atoms: O_1  and  C_19
REMARK    3  A    between atoms: C_8  and  C_12
REMARK    4  A    between atoms: C_13  and  C_16
REMARK    5  A    between atoms: C_14  and  C_15
REMARK                            x       y       z     vdW  Elec       q    Type
REMARK                         _______ _______ _______ _____ _____    ______ ____
ROOT
ATOM      3  O   UNL     1      -7.504 -11.647  16.674  0.00  0.00    -0.276 OA
ATOM      4  O   UNL     1      -1.713 -12.016  12.463  0.00  0.00    -0.270 OA
ATOM      5  N   UNL     1      -5.431 -11.990  15.674  0.00  0.00    -0.285 N 
ATOM      6  N   UNL     1      -3.880 -12.252  13.306  0.00  0.00    -0.294 N 
ATOM      8  C   UNL     1      -4.009 -12.363  15.777  0.00  0.00    +0.202 C 
ATOM      9  C   UNL     1      -3.462 -12.994  14.494  0.00  0.00    +0.142 C 
ATOM     10  C   UNL     1      -5.843 -11.322  14.431  0.00  0.00    +0.127 C 
ATOM     11  C   UNL     1      -5.328 -12.055  13.201  0.00  0.00    +0.127 C 
ATOM     13  C   UNL     1      -6.353 -12.088  16.721  0.00  0.00    +0.213 C 
ATOM     14  C   UNL     1      -2.928 -11.847  12.369  0.00  0.00    +0.248 C 
ATOM     16  C   UNL     1      -5.886 -12.792  17.972  0.00  0.00    +0.109 C 
ENDROOT
BRANCH  14  15
ATOM      7  N   UNL     1      -4.344 -11.259   8.953  0.00  0.00    -0.263 NA
ATOM     15  C   UNL     1      -3.396 -11.144  11.167  0.00  0.00    +0.055 A 
ATOM     17  C   UNL     1      -3.347  -9.760  11.090  0.00  0.00    +0.016 A 
ATOM     18  C   UNL     1      -3.897 -11.844  10.086  0.00  0.00    +0.123 A 
ATOM     20  C   UNL     1      -3.797  -9.122   9.940  0.00  0.00    +0.020 A 
ATOM     21  C   UNL     1      -4.281  -9.909   8.908  0.00  0.00    +0.111 A 
ENDBRANCH  14  15
BRANCH   8  12
ATOM      2  O   UNL     1      -3.786 -10.118  16.624  0.00  0.00    -0.249 OA
ATOM     12  C   UNL     1      -3.264 -11.109  16.133  0.00  0.00    +0.329 C 
BRANCH  12   1
ATOM      1  O   UNL     1      -1.944 -11.259  15.821  0.00  0.00    -0.467 OA
ATOM     19  C   UNL     1      -1.258 -10.056  15.459  0.00  0.00    +0.280 C 
ENDBRANCH  12   1
ENDBRANCH   8  12
TORSDOF 3
ENDMDL
MODEL 6
REMARK VINA RESULT:      -5.0      3.749      5.971
REMARK  Name = 7663180
REMARK  5 active torsions:
REMARK  status: ('A' for Active; 'I' for Inactive)
REMARK    1  A    between atoms: O_1  and  C_12
REMARK    2  A    between atoms: O_1  and  C_19
REMARK    3  A    between atoms: C_8  and  C_12
REMARK    4  A    between atoms: C_13  and  C_16
REMARK    5  A    between atoms: C_14  and  C_15
REMARK                            x       y       z     vdW  Elec       q    Type
REMARK                         _______ _______ _______ _____ _____    ______ ____
ROOT
ATOM      3  O   UNL     1      13.362  10.087  22.169  0.00  0.00    -0.276 OA
ATOM      4  O   UNL     1      13.280   8.790  15.119  0.00  0.00    -0.270 OA
ATOM      5  N   UNL     1      13.089   9.282  20.003  0.00  0.00    -0.285 N 
ATOM      6  N   UNL     1      12.983   9.793  17.209  0.00  0.00    -0.294 N 
ATOM      8  C   UNL     1      12.716   8.195  19.081  0.00  0.00    +0.202 C 
ATOM      9  C   UNL     1      12.169   8.705  17.746  0.00  0.00    +0.142 C 
ATOM     10  C   UNL     1      13.833  10.408  19.419  0.00  0.00    +0.127 C 
ATOM     11  C   UNL     1      13.181  10.908  18.138  0.00  0.00    +0.127 C 
ATOM     13  C   UNL     1      12.923   9.236  21.391  0.00  0.00    +0.213 C 
ATOM     14  C   UNL     1      13.450   9.730  15.895  0.00  0.00    +0.248 C 
ATOM     16  C   UNL     1      12.143   8.067  21.941  0.00  0.00    +0.109 C 
ENDROOT
BRANCH  14  15
ATOM      7  N   UNL     1      14.319  12.832  13.987  0.00  0.00    -0.263 NA
ATOM     15  C   UNL     1      14.226  10.866  15.380  0.00  0.00    +0.055 A 
ATOM     17  C   UNL     1      15.543  11.061  15.769  0.00  0.00    +0.016 A 
ATOM     18  C   UNL     1      13.662  11.767  14.497  0.00  0.00    +0.123 A 
ATOM     20  C   UNL     1      16.252  12.145  15.266  0.00  0.00    +0.020 A 
ATOM     21  C   UNL     1      15.601  12.994  14.386  0.00  0.00    +0.111 A 
ENDBRANCH  14  15
BRANCH   8  12
ATOM      2  O   UNL     1      14.655   7.402  17.890  0.00  0.00    -0.249 OA
ATOM     12  C   UNL     1      13.947   7.359  18.887  0.00  0.00    +0.329 C 
BRANCH  12   1
ATOM      1  O   UNL     1      14.136   6.564  19.979  0.00  0.00    -0.467 OA
ATOM     19  C   UNL     1      15.481   6.496  20.465  0.00  0.00    +0.280 C 
ENDBRANCH  12   1
ENDBRANCH   8  12
TORSDOF 3
ENDMDL
MODEL 7
REMARK VINA RESULT:      -4.9     23.758     25.517
REMARK  Name = 7663180
REMARK  5 active torsions:
REMARK  status: ('A' for Active; 'I' for Inactive)
REMARK    1  A    between atoms: O_1  and  C_12
REMARK    2  A    between atoms: O_1  and  C_19
REMARK    3  A    between atoms: C_8  and  C_12
REMARK    4  A    between atoms: C_13  and  C_16
REMARK    5  A    between atoms: C_14  and  C_15
REMARK                            x       y       z     vdW  Elec       q    Type
REMARK                         _______ _______ _______ _____ _____    ______ ____
ROOT
ATOM      3  O   UNL     1     -11.574  14.121  18.647  0.00  0.00    -0.276 OA
ATOM      4  O   UNL     1     -11.024   6.974  18.526  0.00  0.00    -0.270 OA
ATOM      5  N   UNL     1     -10.998  11.884  18.368  0.00  0.00    -0.285 N 
ATOM      6  N   UNL     1     -11.189   9.189  19.253  0.00  0.00    -0.294 N 
ATOM      8  C   UNL     1     -10.179  10.847  17.715  0.00  0.00    +0.202 C 
ATOM      9  C   UNL     1      -9.954   9.619  18.599  0.00  0.00    +0.142 C 
ATOM     10  C   UNL     1     -12.189  11.417  19.093  0.00  0.00    +0.127 C 
ATOM     11  C   UNL     1     -11.864  10.246  20.010  0.00  0.00    +0.127 C 
ATOM     13  C   UNL     1     -10.805  13.260  18.212  0.00  0.00    +0.213 C 
ATOM     14  C   UNL     1     -11.596   7.857  19.164  0.00  0.00    +0.248 C 
ATOM     16  C   UNL     1      -9.563  13.691  17.470  0.00  0.00    +0.109 C 
ENDROOT
BRANCH  14  15
ATOM      7  N   UNL     1     -13.839   6.499  21.837  0.00  0.00    -0.263 NA
ATOM     15  C   UNL     1     -12.819   7.459  19.873  0.00  0.00    +0.055 A 
ATOM     17  C   UNL     1     -14.067   7.646  19.298  0.00  0.00    +0.016 A 
ATOM     18  C   UNL     1     -12.755   6.887  21.130  0.00  0.00    +0.123 A 
ATOM     20  C   UNL     1     -15.207   7.260  19.993  0.00  0.00    +0.020 A 
ATOM     21  C   UNL     1     -15.041   6.695  21.248  0.00  0.00    +0.111 A 
ENDBRANCH  14  15
BRANCH   8  12
ATOM      2  O   UNL     1     -11.824  11.118  15.974  0.00  0.00    -0.249 OA
ATOM     12  C   UNL     1     -10.887  10.485  16.441  0.00  0.00    +0.329 C 
BRANCH  12   1
ATOM      1  O   UNL     1     -10.324   9.361  15.911  0.00  0.00    -0.467 OA
ATOM     19  C   UNL     1     -11.224   8.497  15.209  0.00  0.00    +0.280 C 
ENDBRANCH  12   1
ENDBRANCH   8  12
TORSDOF 3
ENDMDL
MODEL 8
REMARK VINA RESULT:      -4.8     28.749     30.482
REMARK  Name = 7663180
REMARK  5 active torsions:
REMARK  status: ('A' for Active; 'I' for Inactive)
REMARK    1  A    between atoms: O_1  and  C_12
REMARK    2  A    between atoms: O_1  and  C_19
REMARK    3  A    between atoms: C_8  and  C_12
REMARK    4  A    between atoms: C_13  and  C_16
REMARK    5  A    between atoms: C_14  and  C_15
REMARK                            x       y       z     vdW  Elec       q    Type
REMARK                         _______ _______ _______ _____ _____    ______ ____
ROOT
ATOM      3  O   UNL     1     -13.416   0.953  30.215  0.00  0.00    -0.276 OA
ATOM      4  O   UNL     1     -16.520   6.867  32.820  0.00  0.00    -0.270 OA
ATOM      5  N   UNL     1     -14.826   2.648  30.958  0.00  0.00    -0.285 N 
ATOM      6  N   UNL     1     -15.242   4.921  32.614  0.00  0.00    -0.294 N 
ATOM      8  C   UNL     1     -16.168   3.252  31.036  0.00  0.00    +0.202 C 
ATOM      9  C   UNL     1     -16.386   4.061  32.316  0.00  0.00    +0.142 C 
ATOM     10  C   UNL     1     -13.698   3.508  31.347  0.00  0.00    +0.127 C 
ATOM     11  C   UNL     1     -13.960   4.214  32.669  0.00  0.00    +0.127 C 
ATOM     13  C   UNL     1     -14.552   1.394  30.403  0.00  0.00    +0.213 C 
ATOM     14  C   UNL     1     -15.440   6.279  32.868  0.00  0.00    +0.248 C 
ATOM     16  C   UNL     1     -15.742   0.544  30.030  0.00  0.00    +0.109 C 
ENDROOT
BRANCH  14  15
ATOM      7  N   UNL     1     -12.746   7.912  34.890  0.00  0.00    -0.263 NA
ATOM     15  C   UNL     1     -14.269   7.098  33.208  0.00  0.00    +0.055 A 
ATOM     17  C   UNL     1     -13.591   7.808  32.228  0.00  0.00    +0.016 A 
ATOM     18  C   UNL     1     -13.816   7.180  34.510  0.00  0.00    +0.123 A 
ATOM     20  C   UNL     1     -12.486   8.574  32.580  0.00  0.00    +0.020 A 
ATOM     21  C   UNL     1     -12.107   8.593  33.912  0.00  0.00    +0.111 A 
ENDBRANCH  14  15
BRANCH   8  12
ATOM      2  O   UNL     1     -15.694   3.939  28.775  0.00  0.00    -0.249 OA
ATOM     12  C   UNL     1     -16.321   4.108  29.812  0.00  0.00    +0.329 C 
BRANCH  12   1
ATOM      1  O   UNL     1     -17.248   5.080  30.049  0.00  0.00    -0.467 OA
ATOM     19  C   UNL     1     -17.046   6.308  29.342  0.00  0.00    +0.280 C 
ENDBRANCH  12   1
ENDBRANCH   8  12
TORSDOF 3
ENDMDL
MODEL 9
REMARK VINA RESULT:      -4.7     27.608     29.124
REMARK  Name = 7663180
REMARK  5 active torsions:
REMARK  status: ('A' for Active; 'I' for Inactive)
REMARK    1  A    between atoms: O_1  and  C_12
REMARK    2  A    between atoms: O_1  and  C_19
REMARK    3  A    between atoms: C_8  and  C_12
REMARK    4  A    between atoms: C_13  and  C_16
REMARK    5  A    between atoms: C_14  and  C_15
REMARK                            x       y       z     vdW  Elec       q    Type
REMARK                         _______ _______ _______ _____ _____    ______ ____
ROOT
ATOM      3  O   UNL     1      -4.422 -10.466  14.515  0.00  0.00    -0.276 OA
ATOM      4  O   UNL     1      -8.932 -10.998  20.062  0.00  0.00    -0.270 OA
ATOM      5  N   UNL     1      -5.490 -10.671  16.571  0.00  0.00    -0.285 N 
ATOM      6  N   UNL     1      -7.790 -10.215  18.179  0.00  0.00    -0.294 N 
ATOM      8  C   UNL     1      -5.445 -10.991  18.009  0.00  0.00    +0.202 C 
ATOM      9  C   UNL     1      -6.480 -10.217  18.827  0.00  0.00    +0.142 C 
ATOM     10  C   UNL     1      -6.826 -10.590  15.962  0.00  0.00    +0.127 C 
ATOM     11  C   UNL     1      -7.773  -9.737  16.795  0.00  0.00    +0.127 C 
ATOM     13  C   UNL     1      -4.368 -10.597  15.740  0.00  0.00    +0.213 C 
ATOM     14  C   UNL     1      -8.923 -10.598  18.899  0.00  0.00    +0.248 C 
ATOM     16  C   UNL     1      -3.020 -10.674  16.414  0.00  0.00    +0.109 C 
ENDROOT
BRANCH  14  15
ATOM      7  N   UNL     1     -11.905 -11.642  16.889  0.00  0.00    -0.263 NA
ATOM     15  C   UNL     1     -10.226 -10.538  18.223  0.00  0.00    +0.055 A 
ATOM     17  C   UNL     1     -10.995  -9.384  18.262  0.00  0.00    +0.016 A 
ATOM     18  C   UNL     1     -10.716 -11.630  17.531  0.00  0.00    +0.123 A 
ATOM     20  C   UNL     1     -12.223  -9.358  17.613  0.00  0.00    +0.020 A 
ATOM     21  C   UNL     1     -12.630 -10.502  16.946  0.00  0.00    +0.111 A 
ENDBRANCH  14  15
BRANCH   8  12
ATOM      2  O   UNL     1      -6.712 -13.037  17.883  0.00  0.00    -0.249 OA
ATOM     12  C   UNL     1      -5.652 -12.474  18.122  0.00  0.00    +0.329 C 
BRANCH  12   1
ATOM      1  O   UNL     1      -4.493 -13.067  18.527  0.00  0.00    -0.467 OA
ATOM     19  C   UNL     1      -3.727 -12.329  19.485  0.00  0.00    +0.280 C 
ENDBRANCH  12   1
ENDBRANCH   8  12
TORSDOF 3
ENDMDL
MODEL 10
REMARK VINA RESULT:      -4.7     17.241     20.646
REMARK  Name = 7663180
REMARK  5 active torsions:
REMARK  status: ('A' for Active; 'I' for Inactive)
REMARK    1  A    between atoms: O_1  and  C_12
REMARK    2  A    between atoms: O_1  and  C_19
REMARK    3  A    between atoms: C_8  and  C_12
REMARK    4  A    between atoms: C_13  and  C_16
REMARK    5  A    between atoms: C_14  and  C_15
REMARK                            x       y       z     vdW  Elec       q    Type
REMARK                         _______ _______ _______ _____ _____    ______ ____
ROOT
ATOM      3  O   UNL     1       8.307   8.122   2.550  0.00  0.00    -0.276 OA
ATOM      4  O   UNL     1      13.303   3.047   1.725  0.00  0.00    -0.270 OA
ATOM      5  N   UNL     1       9.857   6.397   2.742  0.00  0.00    -0.285 N 
ATOM      6  N   UNL     1      11.352   4.315   1.512  0.00  0.00    -0.294 N 
ATOM      8  C   UNL     1      10.670   5.497   3.579  0.00  0.00    +0.202 C 
ATOM      9  C   UNL     1      10.952   4.151   2.908  0.00  0.00    +0.142 C 
ATOM     10  C   UNL     1      10.226   6.479   1.320  0.00  0.00    +0.127 C 
ATOM     11  C   UNL     1      10.410   5.098   0.708  0.00  0.00    +0.127 C 
ATOM     13  C   UNL     1       8.885   7.274   3.234  0.00  0.00    +0.213 C 
ATOM     14  C   UNL     1      12.516   3.703   1.044  0.00  0.00    +0.248 C 
ATOM     16  C   UNL     1       8.534   7.144   4.696  0.00  0.00    +0.109 C 
ENDROOT
BRANCH  14  15
ATOM      7  N   UNL     1      13.985   5.113  -2.098  0.00  0.00    -0.263 NA
ATOM     15  C   UNL     1      12.856   3.857  -0.376  0.00  0.00    +0.055 A 
ATOM     17  C   UNL     1      12.404   2.945  -1.318  0.00  0.00    +0.016 A 
ATOM     18  C   UNL     1      13.635   4.914  -0.808  0.00  0.00    +0.123 A 
ATOM     20  C   UNL     1      12.742   3.116  -2.655  0.00  0.00    +0.020 A 
ATOM     21  C   UNL     1      13.528   4.207  -2.991  0.00  0.00    +0.111 A 
ENDBRANCH  14  15
BRANCH   8  12
ATOM      2  O   UNL     1      12.807   6.482   3.062  0.00  0.00    -0.249 OA
ATOM     12  C   UNL     1      11.940   6.234   3.888  0.00  0.00    +0.329 C 
BRANCH  12   1
ATOM      1  O   UNL     1      11.963   6.567   5.211  0.00  0.00    -0.467 OA
ATOM     19  C   UNL     1      13.055   7.400   5.616  0.00  0.00    +0.280 C 
ENDBRANCH  12   1
ENDBRANCH   8  12
TORSDOF 3
ENDMDL
