REMARK  Name = 7144202
REMARK  5 active torsions:
REMARK  status: ('A' for Active; 'I' for Inactive)
REMARK    1  A    between atoms: S_1  and  N_9
REMARK    2  A    between atoms: S_1  and  C_22
REMARK    3  A    between atoms: O_8  and  C_32
REMARK    4  A    between atoms: O_8  and  C_34
REMARK    5  A    between atoms: C_18  and  C_23
REMARK                            x       y       z     vdW  Elec       q    Type
REMARK                         _______ _______ _______ _____ _____    ______ ____
ROOT
ATOM      7  O   UNL     1       2.192   5.043  -0.154  0.00  0.00    -0.268 OA
ATOM      9  N   UNL     1       2.463   0.098  -0.077  0.00  0.00    -0.176 NA
ATOM     10  N   UNL     1       1.304   2.972   0.486  0.00  0.00    -0.311 N 
ATOM     11  C   UNL     1       2.580   1.389   2.049  0.00  0.00    +0.025 C 
ATOM     12  C   UNL     1       0.393   0.726   1.153  0.00  0.00    +0.053 C 
ATOM     13  C   UNL     1       1.197   0.896   2.440  0.00  0.00    +0.017 C 
ATOM     14  C   UNL     1       3.284   0.376   1.134  0.00  0.00    +0.114 C 
ATOM     15  C   UNL     1       1.074  -0.330   0.260  0.00  0.00    +0.119 C 
ATOM     16  C   UNL     1       2.441   2.764   1.394  0.00  0.00    +0.130 C 
ATOM     17  C   UNL     1       0.239   2.053   0.405  0.00  0.00    +0.034 A 
ATOM     18  C   UNL     1      -0.859   2.355  -0.336  0.00  0.00    +0.002 A 
ATOM     19  C   UNL     1       1.296   4.199  -0.202  0.00  0.00    +0.252 A 
ATOM     20  C   UNL     1      -0.901   3.609  -1.063  0.00  0.00    +0.015 A 
ATOM     21  C   UNL     1       0.102   4.486  -1.028  0.00  0.00    +0.071 A 
ENDROOT
BRANCH  18  23
ATOM     23  C   UNL     1      -2.010   1.431  -0.435  0.00  0.00    -0.016 A 
ATOM     26  C   UNL     1      -2.036   0.464  -1.435  0.00  0.00    +0.012 A 
ATOM     27  C   UNL     1      -3.060   1.536   0.472  0.00  0.00    +0.012 A 
ATOM     28  C   UNL     1      -3.122  -0.406  -1.529  0.00  0.00    +0.046 A 
ATOM     29  C   UNL     1      -4.146   0.666   0.379  0.00  0.00    +0.046 A 
ATOM     32  C   UNL     1      -4.177  -0.306  -0.622  0.00  0.00    +0.130 A 
BRANCH  32   8
ATOM      8  O   UNL     1      -5.236  -1.155  -0.714  0.00  0.00    -0.406 OA
BRANCH   8  34
ATOM      2  F   UNL     1      -4.401  -2.301   1.080  0.00  0.00    -0.133 F 
ATOM      3  F   UNL     1      -6.062  -3.150  -0.057  0.00  0.00    -0.133 F 
ATOM      4  F   UNL     1      -6.421  -1.417   1.225  0.00  0.00    -0.133 F 
ATOM     34  C   UNL     1      -5.525  -1.996   0.398  0.00  0.00    +0.575 C 
ENDBRANCH   8  34
ENDBRANCH  32   8
ENDBRANCH  18  23
BRANCH   9   1
ATOM      1  S   UNL     1       3.237  -0.803  -1.308  0.00  0.00    +0.061 S 
ATOM      5  O   UNL     1       4.619  -0.383  -1.405  0.00  0.00    -0.153 OA
ATOM      6  O   UNL     1       2.384  -0.833  -2.478  0.00  0.00    -0.153 OA
BRANCH   1  22
ATOM     22  C   UNL     1       3.212  -2.410  -0.577  0.00  0.00    +0.105 A 
ATOM     24  C   UNL     1       2.132  -3.244  -0.811  0.00  0.00    +0.028 A 
ATOM     25  C   UNL     1       4.273  -2.809   0.219  0.00  0.00    +0.028 A 
ATOM     30  C   UNL     1       2.111  -4.513  -0.233  0.00  0.00    +0.002 A 
ATOM     31  C   UNL     1       4.252  -4.078   0.798  0.00  0.00    +0.002 A 
ATOM     33  C   UNL     1       3.171  -4.930   0.572  0.00  0.00    +0.000 A 
ENDBRANCH   1  22
ENDBRANCH   9   1
TORSDOF 5
