REMARK  Name = 11912251
REMARK  4 active torsions:
REMARK  status: ('A' for Active; 'I' for Inactive)
REMARK    1  A    between atoms: S_1  and  N_9
REMARK    2  A    between atoms: S_1  and  C_23
REMARK    3  A    between atoms: N_11  and  C_19
REMARK    4  A    between atoms: C_14  and  C_18
REMARK                            x       y       z     vdW  Elec       q    Type
REMARK                         _______ _______ _______ _____ _____    ______ ____
ROOT
ATOM      6  O   UNL     1       3.869  -3.187  -2.015  0.00  0.00    -0.377 OA
ATOM      7  O   UNL     1       1.384  -3.508   2.291  0.00  0.00    -0.252 OA
ATOM      9  N   UNL     1      -1.532   0.344   1.388  0.00  0.00    -0.162 NA
ATOM     10  N   UNL     1       0.098  -2.039   1.067  0.00  0.00    -0.282 N 
ATOM     12  N   UNL     1       2.046  -3.075   0.131  0.00  0.00    -0.281 N 
ATOM     14  C   UNL     1      -0.440   0.308   0.377  0.00  0.00    +0.183 C 
ATOM     15  C   UNL     1      -0.071  -1.109  -0.061  0.00  0.00    +0.139 C 
ATOM     16  C   UNL     1      -2.001  -0.986   1.860  0.00  0.00    +0.129 C 
ATOM     17  C   UNL     1      -0.795  -1.843   2.207  0.00  0.00    +0.126 C 
ATOM     20  C   UNL     1       1.184  -2.916   1.222  0.00  0.00    +0.305 C 
ATOM     24  C   UNL     1       1.599  -3.436  -1.219  0.00  0.00    +0.137 C 
ATOM     25  C   UNL     1       3.459  -3.360   0.372  0.00  0.00    +0.137 C 
ATOM     28  C   UNL     1       2.511  -2.805  -2.260  0.00  0.00    +0.179 C 
ATOM     29  C   UNL     1       4.311  -2.742  -0.729  0.00  0.00    +0.179 C 
ENDROOT
BRANCH  14  18
ATOM      5  O   UNL     1       0.922   0.897   2.242  0.00  0.00    -0.274 OA
ATOM     11  N   UNL     1       1.448   1.757   0.144  0.00  0.00    -0.303 N 
ATOM     18  C   UNL     1       0.709   1.001   1.037  0.00  0.00    +0.234 C 
ATOM     35  H   UNL     1       1.200   1.739  -0.842  0.00  0.00    +0.149 HD
BRANCH  11  19
ATOM      8  O   UNL     1       1.635   4.636  -0.138  0.00  0.00    -0.274 OA
ATOM     13  N   UNL     1       3.423   3.906  -1.358  0.00  0.00    -0.314 N 
ATOM     19  C   UNL     1       2.596   2.541   0.533  0.00  0.00    +0.159 C 
ATOM     21  C   UNL     1       3.893   1.748   0.423  0.00  0.00    +0.033 C 
ATOM     22  C   UNL     1       4.352   1.645  -1.024  0.00  0.00    +0.021 C 
ATOM     26  C   UNL     1       2.528   3.803  -0.316  0.00  0.00    +0.233 C 
ATOM     27  C   UNL     1       4.568   3.043  -1.570  0.00  0.00    +0.104 C 
ATOM     36  H   UNL     1       3.350   4.730  -1.948  0.00  0.00    +0.149 HD
ENDBRANCH  11  19
ENDBRANCH  14  18
BRANCH   9   1
ATOM      1  S   UNL     1      -2.737   1.538   1.181  0.00  0.00    +0.062 S 
ATOM      3  O   UNL     1      -2.137   2.698   0.567  0.00  0.00    -0.153 OA
ATOM      4  O   UNL     1      -3.498   1.639   2.404  0.00  0.00    -0.153 OA
BRANCH   1  23
ATOM      2  F   UNL     1      -6.097  -1.133  -2.857  0.00  0.00    -0.205 F 
ATOM     23  C   UNL     1      -3.743   0.738  -0.027  0.00  0.00    +0.106 A 
ATOM     30  C   UNL     1      -4.794  -0.086   0.375  0.00  0.00    +0.031 A 
ATOM     31  C   UNL     1      -3.486   0.930  -1.385  0.00  0.00    +0.031 A 
ATOM     32  C   UNL     1      -5.590  -0.718  -0.581  0.00  0.00    +0.040 A 
ATOM     33  C   UNL     1      -4.282   0.297  -2.341  0.00  0.00    +0.040 A 
ATOM     34  C   UNL     1      -5.333  -0.526  -1.939  0.00  0.00    +0.124 A 
ENDBRANCH   1  23
ENDBRANCH   9   1
TORSDOF 4
