MODEL 1
REMARK VINA RESULT:      -6.5      0.000      0.000
REMARK  Name = 75536587
REMARK  10 active torsions:
REMARK  status: ('A' for Active; 'I' for Inactive)
REMARK    1  A    between atoms: O_2  and  C_9
REMARK    2  A    between atoms: O_4  and  C_18
REMARK    3  A    between atoms: O_4  and  C_23
REMARK    4  A    between atoms: N_5  and  C_8
REMARK    5  A    between atoms: N_5  and  C_13
REMARK    6  A    between atoms: N_6  and  C_12
REMARK    7  A    between atoms: C_10  and  C_12
REMARK    8  A    between atoms: C_13  and  C_14
REMARK    9  A    between atoms: C_15  and  C_18
REMARK   10  A    between atoms: C_19  and  C_22
REMARK                            x       y       z     vdW  Elec       q    Type
REMARK                         _______ _______ _______ _____ _____    ______ ____
ROOT
ATOM      1  O   UNL     1      10.592   8.461  19.836  0.00  0.00    -0.371 OA
ATOM      8  C   UNL     1      12.553   7.244  19.275  0.00  0.00    +0.111 C 
ATOM      9  C   UNL     1      12.453   7.352  20.785  0.00  0.00    +0.164 C 
ATOM     10  C   UNL     1      10.970   7.650  20.960  0.00  0.00    +0.165 C 
ATOM     11  C   UNL     1      11.615   8.354  18.831  0.00  0.00    +0.181 C 
ENDROOT
BRANCH   9   2
ATOM      2  O   UNL     1      12.833   6.160  21.444  0.00  0.00    -0.388 OA
ATOM     25  H   UNL     1      12.713   6.287  22.400  0.00  0.00    +0.210 HD
ENDBRANCH   9   2
BRANCH   8   5
ATOM      5  N   UNL     1      13.905   7.407  18.767  0.00  0.00    -0.305 NA
ATOM     24  H   UNL     1      13.876   7.971  17.918  0.00  0.00    +0.123 HD
BRANCH   5  13
ATOM     13  C   UNL     1      14.758   8.071  19.746  0.00  0.00    +0.116 C 
BRANCH  13  14
ATOM     14  C   UNL     1      16.087   7.379  19.893  0.00  0.00    -0.032 A 
ATOM     16  C   UNL     1      17.002   7.821  20.849  0.00  0.00    +0.023 A 
ATOM     17  C   UNL     1      16.402   6.294  19.075  0.00  0.00    +0.005 A 
ATOM     19  C   UNL     1      18.233   7.179  20.986  0.00  0.00    +0.052 A 
ATOM     20  C   UNL     1      17.632   5.651  19.213  0.00  0.00    +0.002 A 
ATOM     21  C   UNL     1      18.547   6.094  20.167  0.00  0.00    +0.019 A 
BRANCH  19  22
ATOM      7  N   UNL     1      19.933   7.998  22.758  0.00  0.00    -0.191 NA
ATOM     22  C   UNL     1      19.170   7.631  21.964  0.00  0.00    +0.099 C 
ENDBRANCH  19  22
ENDBRANCH  13  14
ENDBRANCH   5  13
ENDBRANCH   8   5
BRANCH  10  12
ATOM     12  C   UNL     1      10.654   8.382  22.253  0.00  0.00    +0.138 C 
BRANCH  12   6
ATOM      3  O   UNL     1      11.274  11.166  21.771  0.00  0.00    -0.273 OA
ATOM      6  N   UNL     1      11.793   9.111  22.731  0.00  0.00    -0.311 N 
ATOM     15  C   UNL     1      12.013  10.455  22.448  0.00  0.00    +0.239 C 
ATOM     26  H   UNL     1      12.474   8.609  23.295  0.00  0.00    +0.149 HD
BRANCH  15  18
ATOM     18  C   UNL     1      13.289  10.969  23.081  0.00  0.00    +0.255 C 
BRANCH  18   4
ATOM      4  O   UNL     1      13.054  12.184  23.759  0.00  0.00    -0.374 OA
ATOM     23  C   UNL     1      12.599  11.968  25.093  0.00  0.00    +0.194 C 
ENDBRANCH  18   4
ENDBRANCH  15  18
ENDBRANCH  12   6
ENDBRANCH  10  12
TORSDOF 9
ENDMDL
MODEL 2
REMARK VINA RESULT:      -6.0      1.622      2.137
REMARK  Name = 75536587
REMARK  10 active torsions:
REMARK  status: ('A' for Active; 'I' for Inactive)
REMARK    1  A    between atoms: O_2  and  C_9
REMARK    2  A    between atoms: O_4  and  C_18
REMARK    3  A    between atoms: O_4  and  C_23
REMARK    4  A    between atoms: N_5  and  C_8
REMARK    5  A    between atoms: N_5  and  C_13
REMARK    6  A    between atoms: N_6  and  C_12
REMARK    7  A    between atoms: C_10  and  C_12
REMARK    8  A    between atoms: C_13  and  C_14
REMARK    9  A    between atoms: C_15  and  C_18
REMARK   10  A    between atoms: C_19  and  C_22
REMARK                            x       y       z     vdW  Elec       q    Type
REMARK                         _______ _______ _______ _____ _____    ______ ____
ROOT
ATOM      1  O   UNL     1      12.225   8.862  20.157  0.00  0.00    -0.371 OA
ATOM      8  C   UNL     1      13.386   6.792  20.256  0.00  0.00    +0.111 C 
ATOM      9  C   UNL     1      12.431   6.879  21.431  0.00  0.00    +0.164 C 
ATOM     10  C   UNL     1      11.450   7.934  20.934  0.00  0.00    +0.165 C 
ATOM     11  C   UNL     1      13.488   8.250  19.841  0.00  0.00    +0.181 C 
ENDROOT
BRANCH   9   2
ATOM      2  O   UNL     1      11.788   5.650  21.706  0.00  0.00    -0.388 OA
ATOM     25  H   UNL     1      11.003   5.581  21.138  0.00  0.00    +0.210 HD
ENDBRANCH   9   2
BRANCH   8   5
ATOM      5  N   UNL     1      14.673   6.207  20.592  0.00  0.00    -0.305 NA
ATOM     24  H   UNL     1      14.583   5.191  20.611  0.00  0.00    +0.123 HD
BRANCH   5  13
ATOM     13  C   UNL     1      15.689   6.573  19.613  0.00  0.00    +0.116 C 
BRANCH  13  14
ATOM     14  C   UNL     1      16.992   6.945  20.267  0.00  0.00    -0.032 A 
ATOM     16  C   UNL     1      18.114   6.132  20.103  0.00  0.00    +0.023 A 
ATOM     17  C   UNL     1      17.079   8.106  21.037  0.00  0.00    +0.005 A 
ATOM     19  C   UNL     1      19.322   6.478  20.709  0.00  0.00    +0.052 A 
ATOM     20  C   UNL     1      18.287   8.452  21.642  0.00  0.00    +0.002 A 
ATOM     21  C   UNL     1      19.407   7.638  21.479  0.00  0.00    +0.019 A 
BRANCH  19  22
ATOM      7  N   UNL     1      21.404   4.970  20.404  0.00  0.00    -0.191 NA
ATOM     22  C   UNL     1      20.470   5.646  20.541  0.00  0.00    +0.099 C 
ENDBRANCH  19  22
ENDBRANCH  13  14
ENDBRANCH   5  13
ENDBRANCH   8   5
BRANCH  10  12
ATOM     12  C   UNL     1      10.741   8.670  22.058  0.00  0.00    +0.138 C 
BRANCH  12   6
ATOM      3  O   UNL     1      10.928  10.566  24.234  0.00  0.00    -0.273 OA
ATOM      6  N   UNL     1      10.938  10.088  21.957  0.00  0.00    -0.311 N 
ATOM     15  C   UNL     1      11.016  10.928  23.063  0.00  0.00    +0.239 C 
ATOM     26  H   UNL     1      11.012  10.491  21.027  0.00  0.00    +0.149 HD
BRANCH  15  18
ATOM     18  C   UNL     1      11.228  12.373  22.667  0.00  0.00    +0.255 C 
BRANCH  18   4
ATOM      4  O   UNL     1      12.478  12.537  22.032  0.00  0.00    -0.374 OA
ATOM     23  C   UNL     1      13.558  12.470  22.960  0.00  0.00    +0.194 C 
ENDBRANCH  18   4
ENDBRANCH  15  18
ENDBRANCH  12   6
ENDBRANCH  10  12
TORSDOF 9
ENDMDL
MODEL 3
REMARK VINA RESULT:      -6.0      2.325      6.964
REMARK  Name = 75536587
REMARK  10 active torsions:
REMARK  status: ('A' for Active; 'I' for Inactive)
REMARK    1  A    between atoms: O_2  and  C_9
REMARK    2  A    between atoms: O_4  and  C_18
REMARK    3  A    between atoms: O_4  and  C_23
REMARK    4  A    between atoms: N_5  and  C_8
REMARK    5  A    between atoms: N_5  and  C_13
REMARK    6  A    between atoms: N_6  and  C_12
REMARK    7  A    between atoms: C_10  and  C_12
REMARK    8  A    between atoms: C_13  and  C_14
REMARK    9  A    between atoms: C_15  and  C_18
REMARK   10  A    between atoms: C_19  and  C_22
REMARK                            x       y       z     vdW  Elec       q    Type
REMARK                         _______ _______ _______ _____ _____    ______ ____
ROOT
ATOM      1  O   UNL     1      12.931   6.523  20.638  0.00  0.00    -0.371 OA
ATOM      8  C   UNL     1      10.842   7.580  21.040  0.00  0.00    +0.111 C 
ATOM      9  C   UNL     1      11.503   8.232  19.841  0.00  0.00    +0.164 C 
ATOM     10  C   UNL     1      12.487   7.147  19.422  0.00  0.00    +0.165 C 
ATOM     11  C   UNL     1      12.025   6.884  21.695  0.00  0.00    +0.181 C 
ENDROOT
BRANCH   9   2
ATOM      2  O   UNL     1      10.585   8.536  18.809  0.00  0.00    -0.388 OA
ATOM     25  H   UNL     1      11.037   9.089  18.149  0.00  0.00    +0.210 HD
ENDBRANCH   9   2
BRANCH   8   5
ATOM      5  N   UNL     1      10.179   8.523  21.925  0.00  0.00    -0.305 NA
ATOM     24  H   UNL     1       9.437   8.040  22.431  0.00  0.00    +0.123 HD
BRANCH   5  13
ATOM     13  C   UNL     1      11.116   9.089  22.888  0.00  0.00    +0.116 C 
BRANCH  13  14
ATOM     14  C   UNL     1      11.100  10.594  22.870  0.00  0.00    -0.032 A 
ATOM     16  C   UNL     1      10.869  11.304  24.049  0.00  0.00    +0.023 A 
ATOM     17  C   UNL     1      11.318  11.279  21.675  0.00  0.00    +0.005 A 
ATOM     19  C   UNL     1      10.855  12.699  24.032  0.00  0.00    +0.052 A 
ATOM     20  C   UNL     1      11.305  12.674  21.658  0.00  0.00    +0.002 A 
ATOM     21  C   UNL     1      11.073  13.383  22.836  0.00  0.00    +0.019 A 
BRANCH  19  22
ATOM      7  N   UNL     1      10.428  14.017  26.218  0.00  0.00    -0.191 NA
ATOM     22  C   UNL     1      10.620  13.426  25.238  0.00  0.00    +0.099 C 
ENDBRANCH  19  22
ENDBRANCH  13  14
ENDBRANCH   5  13
ENDBRANCH   8   5
BRANCH  10  12
ATOM     12  C   UNL     1      13.682   7.685  18.654  0.00  0.00    +0.138 C 
BRANCH  12   6
ATOM      3  O   UNL     1      15.973   8.673  20.116  0.00  0.00    -0.273 OA
ATOM      6  N   UNL     1      14.879   6.963  18.979  0.00  0.00    -0.311 N 
ATOM     15  C   UNL     1      15.936   7.522  19.690  0.00  0.00    +0.239 C 
ATOM     26  H   UNL     1      14.953   6.001  18.662  0.00  0.00    +0.149 HD
BRANCH  15  18
ATOM     18  C   UNL     1      17.068   6.536  19.894  0.00  0.00    +0.255 C 
BRANCH  18   4
ATOM      4  O   UNL     1      17.397   6.431  21.262  0.00  0.00    -0.374 OA
ATOM     23  C   UNL     1      18.710   6.918  21.532  0.00  0.00    +0.194 C 
ENDBRANCH  18   4
ENDBRANCH  15  18
ENDBRANCH  12   6
ENDBRANCH  10  12
TORSDOF 9
ENDMDL
MODEL 4
REMARK VINA RESULT:      -5.5     27.442     29.631
REMARK  Name = 75536587
REMARK  10 active torsions:
REMARK  status: ('A' for Active; 'I' for Inactive)
REMARK    1  A    between atoms: O_2  and  C_9
REMARK    2  A    between atoms: O_4  and  C_18
REMARK    3  A    between atoms: O_4  and  C_23
REMARK    4  A    between atoms: N_5  and  C_8
REMARK    5  A    between atoms: N_5  and  C_13
REMARK    6  A    between atoms: N_6  and  C_12
REMARK    7  A    between atoms: C_10  and  C_12
REMARK    8  A    between atoms: C_13  and  C_14
REMARK    9  A    between atoms: C_15  and  C_18
REMARK   10  A    between atoms: C_19  and  C_22
REMARK                            x       y       z     vdW  Elec       q    Type
REMARK                         _______ _______ _______ _____ _____    ______ ____
ROOT
ATOM      1  O   UNL     1     -12.251  -9.299  16.268  0.00  0.00    -0.371 OA
ATOM      8  C   UNL     1     -10.434  -8.321  17.445  0.00  0.00    +0.111 C 
ATOM      9  C   UNL     1     -10.860  -7.386  16.329  0.00  0.00    +0.164 C 
ATOM     10  C   UNL     1     -12.277  -7.877  16.060  0.00  0.00    +0.165 C 
ATOM     11  C   UNL     1     -11.055  -9.633  16.993  0.00  0.00    +0.181 C 
ENDROOT
BRANCH   9   2
ATOM      2  O   UNL     1     -10.838  -6.026  16.717  0.00  0.00    -0.388 OA
ATOM     25  H   UNL     1     -11.708  -5.638  16.522  0.00  0.00    +0.210 HD
ENDBRANCH   9   2
BRANCH   8   5
ATOM      5  N   UNL     1      -8.994  -8.405  17.617  0.00  0.00    -0.305 NA
ATOM     24  H   UNL     1      -8.709  -7.769  18.362  0.00  0.00    +0.123 HD
BRANCH   5  13
ATOM     13  C   UNL     1      -8.585  -9.760  17.972  0.00  0.00    +0.116 C 
BRANCH  13  14
ATOM     14  C   UNL     1      -7.141 -10.017  17.633  0.00  0.00    -0.032 A 
ATOM     16  C   UNL     1      -6.331 -10.729  18.518  0.00  0.00    +0.023 A 
ATOM     17  C   UNL     1      -6.613  -9.547  16.430  0.00  0.00    +0.005 A 
ATOM     19  C   UNL     1      -4.994 -10.969  18.202  0.00  0.00    +0.052 A 
ATOM     20  C   UNL     1      -5.276  -9.788  16.113  0.00  0.00    +0.002 A 
ATOM     21  C   UNL     1      -4.467 -10.498  17.000  0.00  0.00    +0.019 A 
BRANCH  19  22
ATOM      7  N   UNL     1      -3.491 -12.289  19.846  0.00  0.00    -0.191 NA
ATOM     22  C   UNL     1      -4.165 -11.698  19.109  0.00  0.00    +0.099 C 
ENDBRANCH  19  22
ENDBRANCH  13  14
ENDBRANCH   5  13
ENDBRANCH   8   5
BRANCH  10  12
ATOM     12  C   UNL     1     -12.761  -7.571  14.653  0.00  0.00    +0.138 C 
BRANCH  12   6
ATOM      3  O   UNL     1     -12.558  -6.348  12.040  0.00  0.00    -0.273 OA
ATOM      6  N   UNL     1     -12.654  -6.171  14.358  0.00  0.00    -0.311 N 
ATOM     15  C   UNL     1     -12.561  -5.669  13.064  0.00  0.00    +0.239 C 
ATOM     26  H   UNL     1     -12.636  -5.522  15.140  0.00  0.00    +0.149 HD
BRANCH  15  18
ATOM     18  C   UNL     1     -12.462  -4.158  13.045  0.00  0.00    +0.255 C 
BRANCH  18   4
ATOM      4  O   UNL     1     -13.703  -3.574  13.373  0.00  0.00    -0.374 OA
ATOM     23  C   UNL     1     -14.495  -3.322  12.214  0.00  0.00    +0.194 C 
ENDBRANCH  18   4
ENDBRANCH  15  18
ENDBRANCH  12   6
ENDBRANCH  10  12
TORSDOF 9
ENDMDL
MODEL 5
REMARK VINA RESULT:      -5.5      3.147      5.398
REMARK  Name = 75536587
REMARK  10 active torsions:
REMARK  status: ('A' for Active; 'I' for Inactive)
REMARK    1  A    between atoms: O_2  and  C_9
REMARK    2  A    between atoms: O_4  and  C_18
REMARK    3  A    between atoms: O_4  and  C_23
REMARK    4  A    between atoms: N_5  and  C_8
REMARK    5  A    between atoms: N_5  and  C_13
REMARK    6  A    between atoms: N_6  and  C_12
REMARK    7  A    between atoms: C_10  and  C_12
REMARK    8  A    between atoms: C_13  and  C_14
REMARK    9  A    between atoms: C_15  and  C_18
REMARK   10  A    between atoms: C_19  and  C_22
REMARK                            x       y       z     vdW  Elec       q    Type
REMARK                         _______ _______ _______ _____ _____    ______ ____
ROOT
ATOM      1  O   UNL     1      12.279   7.929  21.699  0.00  0.00    -0.371 OA
ATOM      8  C   UNL     1      12.420   6.853  19.586  0.00  0.00    +0.111 C 
ATOM      9  C   UNL     1      13.819   7.211  20.054  0.00  0.00    +0.164 C 
ATOM     10  C   UNL     1      13.595   7.372  21.552  0.00  0.00    +0.165 C 
ATOM     11  C   UNL     1      11.569   7.761  20.460  0.00  0.00    +0.181 C 
ENDROOT
BRANCH   9   2
ATOM      2  O   UNL     1      14.766   6.201  19.768  0.00  0.00    -0.388 OA
ATOM     25  H   UNL     1      14.291   5.420  19.437  0.00  0.00    +0.210 HD
ENDBRANCH   9   2
BRANCH   8   5
ATOM      5  N   UNL     1      12.207   7.071  18.166  0.00  0.00    -0.305 NA
ATOM     24  H   UNL     1      11.533   6.387  17.821  0.00  0.00    +0.123 HD
BRANCH   5  13
ATOM     13  C   UNL     1      11.692   8.411  17.911  0.00  0.00    +0.116 C 
BRANCH  13  14
ATOM     14  C   UNL     1      12.756   9.329  17.372  0.00  0.00    -0.032 A 
ATOM     16  C   UNL     1      13.279  10.342  18.178  0.00  0.00    +0.023 A 
ATOM     17  C   UNL     1      13.223   9.166  16.068  0.00  0.00    +0.005 A 
ATOM     19  C   UNL     1      14.267  11.190  17.680  0.00  0.00    +0.052 A 
ATOM     20  C   UNL     1      14.212  10.014  15.569  0.00  0.00    +0.002 A 
ATOM     21  C   UNL     1      14.732  11.027  16.375  0.00  0.00    +0.019 A 
BRANCH  19  22
ATOM      7  N   UNL     1      15.236  13.068  19.175  0.00  0.00    -0.191 NA
ATOM     22  C   UNL     1      14.802  12.227  18.504  0.00  0.00    +0.099 C 
ENDBRANCH  19  22
ENDBRANCH  13  14
ENDBRANCH   5  13
ENDBRANCH   8   5
BRANCH  10  12
ATOM     12  C   UNL     1      14.615   8.279  22.217  0.00  0.00    +0.138 C 
BRANCH  12   6
ATOM      3  O   UNL     1      16.711   9.845  20.983  0.00  0.00    -0.273 OA
ATOM      6  N   UNL     1      15.956   7.857  21.927  0.00  0.00    -0.311 N 
ATOM     15  C   UNL     1      16.903   8.681  21.328  0.00  0.00    +0.239 C 
ATOM     26  H   UNL     1      16.214   6.903  22.164  0.00  0.00    +0.149 HD
BRANCH  15  18
ATOM     18  C   UNL     1      18.232   7.980  21.142  0.00  0.00    +0.255 C 
BRANCH  18   4
ATOM      4  O   UNL     1      18.122   6.951  20.183  0.00  0.00    -0.374 OA
ATOM     23  C   UNL     1      19.068   5.909  20.411  0.00  0.00    +0.194 C 
ENDBRANCH  18   4
ENDBRANCH  15  18
ENDBRANCH  12   6
ENDBRANCH  10  12
TORSDOF 9
ENDMDL
MODEL 6
REMARK VINA RESULT:      -5.5     26.123     28.337
REMARK  Name = 75536587
REMARK  10 active torsions:
REMARK  status: ('A' for Active; 'I' for Inactive)
REMARK    1  A    between atoms: O_2  and  C_9
REMARK    2  A    between atoms: O_4  and  C_18
REMARK    3  A    between atoms: O_4  and  C_23
REMARK    4  A    between atoms: N_5  and  C_8
REMARK    5  A    between atoms: N_5  and  C_13
REMARK    6  A    between atoms: N_6  and  C_12
REMARK    7  A    between atoms: C_10  and  C_12
REMARK    8  A    between atoms: C_13  and  C_14
REMARK    9  A    between atoms: C_15  and  C_18
REMARK   10  A    between atoms: C_19  and  C_22
REMARK                            x       y       z     vdW  Elec       q    Type
REMARK                         _______ _______ _______ _____ _____    ______ ____
ROOT
ATOM      1  O   UNL     1      -7.572 -12.946  18.578  0.00  0.00    -0.371 OA
ATOM      8  C   UNL     1      -5.513 -11.790  18.833  0.00  0.00    +0.111 C 
ATOM      9  C   UNL     1      -6.653 -10.850  19.176  0.00  0.00    +0.164 C 
ATOM     10  C   UNL     1      -7.770 -11.841  19.475  0.00  0.00    +0.165 C 
ATOM     11  C   UNL     1      -6.238 -12.869  18.046  0.00  0.00    +0.181 C 
ENDROOT
BRANCH   9   2
ATOM      2  O   UNL     1      -6.366 -10.027  20.290  0.00  0.00    -0.388 OA
ATOM     25  H   UNL     1      -5.517 -10.309  20.669  0.00  0.00    +0.210 HD
ENDBRANCH   9   2
BRANCH   8   5
ATOM      5  N   UNL     1      -4.444 -11.159  18.077  0.00  0.00    -0.305 NA
ATOM     24  H   UNL     1      -3.705 -11.841  17.911  0.00  0.00    +0.123 HD
BRANCH   5  13
ATOM     13  C   UNL     1      -4.928 -10.667  16.793  0.00  0.00    +0.116 C 
BRANCH  13  14
ATOM     14  C   UNL     1      -3.836 -10.626  15.758  0.00  0.00    -0.032 A 
ATOM     16  C   UNL     1      -4.158 -10.604  14.401  0.00  0.00    +0.023 A 
ATOM     17  C   UNL     1      -2.499 -10.608  16.157  0.00  0.00    +0.005 A 
ATOM     19  C   UNL     1      -3.145 -10.565  13.443  0.00  0.00    +0.052 A 
ATOM     20  C   UNL     1      -1.485 -10.568  15.200  0.00  0.00    +0.002 A 
ATOM     21  C   UNL     1      -1.809 -10.547  13.843  0.00  0.00    +0.019 A 
BRANCH  19  22
ATOM      7  N   UNL     1      -3.744 -10.523  10.925  0.00  0.00    -0.191 NA
ATOM     22  C   UNL     1      -3.475 -10.542  12.054  0.00  0.00    +0.099 C 
ENDBRANCH  19  22
ENDBRANCH  13  14
ENDBRANCH   5  13
ENDBRANCH   8   5
BRANCH  10  12
ATOM     12  C   UNL     1      -9.158 -11.259  19.276  0.00  0.00    +0.138 C 
BRANCH  12   6
ATOM      3  O   UNL     1      -9.357 -10.959  16.406  0.00  0.00    -0.273 OA
ATOM      6  N   UNL     1      -9.108 -10.036  18.527  0.00  0.00    -0.311 N 
ATOM     15  C   UNL     1      -9.212  -9.985  17.141  0.00  0.00    +0.239 C 
ATOM     26  H   UNL     1      -8.978  -9.170  19.043  0.00  0.00    +0.149 HD
BRANCH  15  18
ATOM     18  C   UNL     1      -9.129  -8.568  16.615  0.00  0.00    +0.255 C 
BRANCH  18   4
ATOM      4  O   UNL     1      -9.870  -7.689  17.433  0.00  0.00    -0.374 OA
ATOM     23  C   UNL     1     -10.905  -7.032  16.706  0.00  0.00    +0.194 C 
ENDBRANCH  18   4
ENDBRANCH  15  18
ENDBRANCH  12   6
ENDBRANCH  10  12
TORSDOF 9
ENDMDL
MODEL 7
REMARK VINA RESULT:      -5.4     29.201     31.301
REMARK  Name = 75536587
REMARK  10 active torsions:
REMARK  status: ('A' for Active; 'I' for Inactive)
REMARK    1  A    between atoms: O_2  and  C_9
REMARK    2  A    between atoms: O_4  and  C_18
REMARK    3  A    between atoms: O_4  and  C_23
REMARK    4  A    between atoms: N_5  and  C_8
REMARK    5  A    between atoms: N_5  and  C_13
REMARK    6  A    between atoms: N_6  and  C_12
REMARK    7  A    between atoms: C_10  and  C_12
REMARK    8  A    between atoms: C_13  and  C_14
REMARK    9  A    between atoms: C_15  and  C_18
REMARK   10  A    between atoms: C_19  and  C_22
REMARK                            x       y       z     vdW  Elec       q    Type
REMARK                         _______ _______ _______ _____ _____    ______ ____
ROOT
ATOM      1  O   UNL     1     -16.393   0.530  28.783  0.00  0.00    -0.371 OA
ATOM      8  C   UNL     1     -14.968   2.032  29.948  0.00  0.00    +0.111 C 
ATOM      9  C   UNL     1     -15.331   2.636  28.605  0.00  0.00    +0.164 C 
ATOM     10  C   UNL     1     -16.593   1.854  28.263  0.00  0.00    +0.165 C 
ATOM     11  C   UNL     1     -15.302   0.567  29.719  0.00  0.00    +0.181 C 
ENDROOT
BRANCH   9   2
ATOM      2  O   UNL     1     -15.577   4.027  28.679  0.00  0.00    -0.388 OA
ATOM     25  H   UNL     1     -16.504   4.161  28.937  0.00  0.00    +0.210 HD
ENDBRANCH   9   2
BRANCH   8   5
ATOM      5  N   UNL     1     -13.582   2.245  30.327  0.00  0.00    -0.305 NA
ATOM     24  H   UNL     1     -13.279   3.158  29.987  0.00  0.00    +0.123 HD
BRANCH   5  13
ATOM     13  C   UNL     1     -13.421   2.205  31.777  0.00  0.00    +0.116 C 
BRANCH  13  14
ATOM     14  C   UNL     1     -14.013   3.419  32.441  0.00  0.00    -0.032 A 
ATOM     16  C   UNL     1     -13.434   4.674  32.248  0.00  0.00    +0.023 A 
ATOM     17  C   UNL     1     -15.145   3.290  33.247  0.00  0.00    +0.005 A 
ATOM     19  C   UNL     1     -13.984   5.798  32.863  0.00  0.00    +0.052 A 
ATOM     20  C   UNL     1     -15.696   4.415  33.861  0.00  0.00    +0.002 A 
ATOM     21  C   UNL     1     -15.114   5.668  33.669  0.00  0.00    +0.019 A 
BRANCH  19  22
ATOM      7  N   UNL     1     -12.909   8.126  32.506  0.00  0.00    -0.191 NA
ATOM     22  C   UNL     1     -13.391   7.083  32.666  0.00  0.00    +0.099 C 
ENDBRANCH  19  22
ENDBRANCH  13  14
ENDBRANCH   5  13
ENDBRANCH   8   5
BRANCH  10  12
ATOM     12  C   UNL     1     -16.870   1.785  26.771  0.00  0.00    +0.138 C 
BRANCH  12   6
ATOM      3  O   UNL     1     -16.619   2.071  23.904  0.00  0.00    -0.273 OA
ATOM      6  N   UNL     1     -16.168   2.816  26.062  0.00  0.00    -0.311 N 
ATOM     15  C   UNL     1     -16.099   2.876  24.674  0.00  0.00    +0.239 C 
ATOM     26  H   UNL     1     -15.693   3.528  26.609  0.00  0.00    +0.149 HD
BRANCH  15  18
ATOM     18  C   UNL     1     -15.298   4.068  24.194  0.00  0.00    +0.255 C 
BRANCH  18   4
ATOM      4  O   UNL     1     -15.262   4.109  22.784  0.00  0.00    -0.374 OA
ATOM     23  C   UNL     1     -14.243   4.983  22.305  0.00  0.00    +0.194 C 
ENDBRANCH  18   4
ENDBRANCH  15  18
ENDBRANCH  12   6
ENDBRANCH  10  12
TORSDOF 9
ENDMDL
MODEL 8
REMARK VINA RESULT:      -5.4      2.949      4.852
REMARK  Name = 75536587
REMARK  10 active torsions:
REMARK  status: ('A' for Active; 'I' for Inactive)
REMARK    1  A    between atoms: O_2  and  C_9
REMARK    2  A    between atoms: O_4  and  C_18
REMARK    3  A    between atoms: O_4  and  C_23
REMARK    4  A    between atoms: N_5  and  C_8
REMARK    5  A    between atoms: N_5  and  C_13
REMARK    6  A    between atoms: N_6  and  C_12
REMARK    7  A    between atoms: C_10  and  C_12
REMARK    8  A    between atoms: C_13  and  C_14
REMARK    9  A    between atoms: C_15  and  C_18
REMARK   10  A    between atoms: C_19  and  C_22
REMARK                            x       y       z     vdW  Elec       q    Type
REMARK                         _______ _______ _______ _____ _____    ______ ____
ROOT
ATOM      1  O   UNL     1      12.352   7.687  21.549  0.00  0.00    -0.371 OA
ATOM      8  C   UNL     1      12.564   6.829  19.344  0.00  0.00    +0.111 C 
ATOM      9  C   UNL     1      13.943   7.171  19.877  0.00  0.00    +0.164 C 
ATOM     10  C   UNL     1      13.685   7.178  21.377  0.00  0.00    +0.165 C 
ATOM     11  C   UNL     1      11.673   7.626  20.283  0.00  0.00    +0.181 C 
ENDROOT
BRANCH   9   2
ATOM      2  O   UNL     1      14.921   6.216  19.515  0.00  0.00    -0.388 OA
ATOM     25  H   UNL     1      15.294   6.470  18.654  0.00  0.00    +0.210 HD
ENDBRANCH   9   2
BRANCH   8   5
ATOM      5  N   UNL     1      12.375   7.181  17.947  0.00  0.00    -0.305 NA
ATOM     24  H   UNL     1      11.793   6.472  17.501  0.00  0.00    +0.123 HD
BRANCH   5  13
ATOM     13  C   UNL     1      11.722   8.478  17.816  0.00  0.00    +0.116 C 
BRANCH  13  14
ATOM     14  C   UNL     1      12.710   9.578  17.535  0.00  0.00    -0.032 A 
ATOM     16  C   UNL     1      13.346   9.647  16.295  0.00  0.00    +0.023 A 
ATOM     17  C   UNL     1      12.987  10.532  18.515  0.00  0.00    +0.005 A 
ATOM     19  C   UNL     1      14.260  10.668  16.036  0.00  0.00    +0.052 A 
ATOM     20  C   UNL     1      13.901  11.553  18.256  0.00  0.00    +0.002 A 
ATOM     21  C   UNL     1      14.537  11.620  17.017  0.00  0.00    +0.019 A 
BRANCH  19  22
ATOM      7  N   UNL     1      15.440  10.797  13.735  0.00  0.00    -0.191 NA
ATOM     22  C   UNL     1      14.911  10.739  14.767  0.00  0.00    +0.099 C 
ENDBRANCH  19  22
ENDBRANCH  13  14
ENDBRANCH   5  13
ENDBRANCH   8   5
BRANCH  10  12
ATOM     12  C   UNL     1      14.668   8.039  22.152  0.00  0.00    +0.138 C 
BRANCH  12   6
ATOM      3  O   UNL     1      15.270  10.753  21.355  0.00  0.00    -0.273 OA
ATOM      6  N   UNL     1      14.045   9.240  22.630  0.00  0.00    -0.311 N 
ATOM     15  C   UNL     1      14.400  10.510  22.188  0.00  0.00    +0.239 C 
ATOM     26  H   UNL     1      13.318   9.149  23.333  0.00  0.00    +0.149 HD
BRANCH  15  18
ATOM     18  C   UNL     1      13.581  11.595  22.857  0.00  0.00    +0.255 C 
BRANCH  18   4
ATOM      4  O   UNL     1      12.779  12.268  21.911  0.00  0.00    -0.374 OA
ATOM     23  C   UNL     1      11.518  11.628  21.733  0.00  0.00    +0.194 C 
ENDBRANCH  18   4
ENDBRANCH  15  18
ENDBRANCH  12   6
ENDBRANCH  10  12
TORSDOF 9
ENDMDL
MODEL 9
REMARK VINA RESULT:      -5.3      3.362      3.779
REMARK  Name = 75536587
REMARK  10 active torsions:
REMARK  status: ('A' for Active; 'I' for Inactive)
REMARK    1  A    between atoms: O_2  and  C_9
REMARK    2  A    between atoms: O_4  and  C_18
REMARK    3  A    between atoms: O_4  and  C_23
REMARK    4  A    between atoms: N_5  and  C_8
REMARK    5  A    between atoms: N_5  and  C_13
REMARK    6  A    between atoms: N_6  and  C_12
REMARK    7  A    between atoms: C_10  and  C_12
REMARK    8  A    between atoms: C_13  and  C_14
REMARK    9  A    between atoms: C_15  and  C_18
REMARK   10  A    between atoms: C_19  and  C_22
REMARK                            x       y       z     vdW  Elec       q    Type
REMARK                         _______ _______ _______ _____ _____    ______ ____
ROOT
ATOM      1  O   UNL     1      10.486   8.399  20.010  0.00  0.00    -0.371 OA
ATOM      8  C   UNL     1      12.453   7.405  19.123  0.00  0.00    +0.111 C 
ATOM      9  C   UNL     1      12.537   7.400  20.638  0.00  0.00    +0.164 C 
ATOM     10  C   UNL     1      11.068   7.550  21.013  0.00  0.00    +0.165 C 
ATOM     11  C   UNL     1      11.379   8.454  18.884  0.00  0.00    +0.181 C 
ENDROOT
BRANCH   9   2
ATOM      2  O   UNL     1      13.092   6.205  21.150  0.00  0.00    -0.388 OA
ATOM     25  H   UNL     1      14.054   6.321  21.225  0.00  0.00    +0.210 HD
ENDBRANCH   9   2
BRANCH   8   5
ATOM      5  N   UNL     1      13.712   7.724  18.471  0.00  0.00    -0.305 NA
ATOM     24  H   UNL     1      14.264   6.871  18.376  0.00  0.00    +0.123 HD
BRANCH   5  13
ATOM     13  C   UNL     1      13.488   8.290  17.146  0.00  0.00    +0.116 C 
BRANCH  13  14
ATOM     14  C   UNL     1      14.227   9.589  16.958  0.00  0.00    -0.032 A 
ATOM     16  C   UNL     1      14.619  10.337  18.069  0.00  0.00    +0.023 A 
ATOM     17  C   UNL     1      14.522  10.043  15.672  0.00  0.00    +0.005 A 
ATOM     19  C   UNL     1      15.304  11.538  17.894  0.00  0.00    +0.052 A 
ATOM     20  C   UNL     1      15.209  11.244  15.498  0.00  0.00    +0.002 A 
ATOM     21  C   UNL     1      15.599  11.992  16.609  0.00  0.00    +0.019 A 
BRANCH  19  22
ATOM      7  N   UNL     1      16.032  12.927  19.955  0.00  0.00    -0.191 NA
ATOM     22  C   UNL     1      15.706  12.304  19.031  0.00  0.00    +0.099 C 
ENDBRANCH  19  22
ENDBRANCH  13  14
ENDBRANCH   5  13
ENDBRANCH   8   5
BRANCH  10  12
ATOM     12  C   UNL     1      10.860   8.160  22.388  0.00  0.00    +0.138 C 
BRANCH  12   6
ATOM      3  O   UNL     1      12.803  10.279  22.697  0.00  0.00    -0.273 OA
ATOM      6  N   UNL     1      10.622   9.572  22.301  0.00  0.00    -0.311 N 
ATOM     15  C   UNL     1      11.623  10.525  22.464  0.00  0.00    +0.239 C 
ATOM     26  H   UNL     1       9.672   9.883  22.121  0.00  0.00    +0.149 HD
BRANCH  15  18
ATOM     18  C   UNL     1      11.094  11.937  22.319  0.00  0.00    +0.255 C 
BRANCH  18   4
ATOM      4  O   UNL     1      11.502  12.736  23.408  0.00  0.00    -0.374 OA
ATOM     23  C   UNL     1      10.680  12.531  24.555  0.00  0.00    +0.194 C 
ENDBRANCH  18   4
ENDBRANCH  15  18
ENDBRANCH  12   6
ENDBRANCH  10  12
TORSDOF 9
ENDMDL
MODEL 10
REMARK VINA RESULT:      -5.2     13.494     15.478
REMARK  Name = 75536587
REMARK  10 active torsions:
REMARK  status: ('A' for Active; 'I' for Inactive)
REMARK    1  A    between atoms: O_2  and  C_9
REMARK    2  A    between atoms: O_4  and  C_18
REMARK    3  A    between atoms: O_4  and  C_23
REMARK    4  A    between atoms: N_5  and  C_8
REMARK    5  A    between atoms: N_5  and  C_13
REMARK    6  A    between atoms: N_6  and  C_12
REMARK    7  A    between atoms: C_10  and  C_12
REMARK    8  A    between atoms: C_13  and  C_14
REMARK    9  A    between atoms: C_15  and  C_18
REMARK   10  A    between atoms: C_19  and  C_22
REMARK                            x       y       z     vdW  Elec       q    Type
REMARK                         _______ _______ _______ _____ _____    ______ ____
ROOT
ATOM      1  O   UNL     1      12.976   8.083   4.439  0.00  0.00    -0.371 OA
ATOM      8  C   UNL     1      15.069   7.705   5.496  0.00  0.00    +0.111 C 
ATOM      9  C   UNL     1      13.956   7.316   6.450  0.00  0.00    +0.164 C 
ATOM     10  C   UNL     1      12.798   7.111   5.482  0.00  0.00    +0.165 C 
ATOM     11  C   UNL     1      14.323   8.582   4.504  0.00  0.00    +0.181 C 
ENDROOT
BRANCH   9   2
ATOM      2  O   UNL     1      14.247   6.140   7.180  0.00  0.00    -0.388 OA
ATOM     25  H   UNL     1      13.408   5.718   7.430  0.00  0.00    +0.210 HD
ENDBRANCH   9   2
BRANCH   8   5
ATOM      5  N   UNL     1      16.176   8.392   6.140  0.00  0.00    -0.305 NA
ATOM     24  H   UNL     1      16.683   7.730   6.727  0.00  0.00    +0.123 HD
BRANCH   5  13
ATOM     13  C   UNL     1      17.095   8.948   5.154  0.00  0.00    +0.116 C 
BRANCH  13  14
ATOM     14  C   UNL     1      18.514   8.511   5.399  0.00  0.00    -0.032 A 
ATOM     16  C   UNL     1      19.247   7.907   4.377  0.00  0.00    +0.023 A 
ATOM     17  C   UNL     1      19.099   8.713   6.650  0.00  0.00    +0.005 A 
ATOM     19  C   UNL     1      20.562   7.504   4.605  0.00  0.00    +0.052 A 
ATOM     20  C   UNL     1      20.415   8.311   6.878  0.00  0.00    +0.002 A 
ATOM     21  C   UNL     1      21.146   7.705   5.855  0.00  0.00    +0.019 A 
BRANCH  19  22
ATOM      7  N   UNL     1      21.921   6.384   2.707  0.00  0.00    -0.191 NA
ATOM     22  C   UNL     1      21.312   6.885   3.558  0.00  0.00    +0.099 C 
ENDBRANCH  19  22
ENDBRANCH  13  14
ENDBRANCH   5  13
ENDBRANCH   8   5
BRANCH  10  12
ATOM     12  C   UNL     1      11.436   7.294   6.129  0.00  0.00    +0.138 C 
BRANCH  12   6
ATOM      3  O   UNL     1       9.178   7.178   7.932  0.00  0.00    -0.273 OA
ATOM      6  N   UNL     1      11.280   6.435   7.267  0.00  0.00    -0.311 N 
ATOM     15  C   UNL     1      10.154   6.448   8.084  0.00  0.00    +0.239 C 
ATOM     26  H   UNL     1      12.040   5.797   7.487  0.00  0.00    +0.149 HD
BRANCH  15  18
ATOM     18  C   UNL     1      10.254   5.438   9.208  0.00  0.00    +0.255 C 
BRANCH  18   4
ATOM      4  O   UNL     1       9.133   4.582   9.210  0.00  0.00    -0.374 OA
ATOM     23  C   UNL     1       8.462   4.588  10.468  0.00  0.00    +0.194 C 
ENDBRANCH  18   4
ENDBRANCH  15  18
ENDBRANCH  12   6
ENDBRANCH  10  12
TORSDOF 9
ENDMDL
