MODEL 1
REMARK VINA RESULT:      -6.2      0.000      0.000
REMARK  Name = 40779497
REMARK  10 active torsions:
REMARK  status: ('A' for Active; 'I' for Inactive)
REMARK    1  A    between atoms: O_3  and  C_27
REMARK    2  A    between atoms: O_3  and  C_32
REMARK    3  A    between atoms: O_4  and  C_29
REMARK    4  A    between atoms: O_4  and  C_33
REMARK    5  A    between atoms: N_6  and  C_20
REMARK    6  A    between atoms: N_7  and  C_17
REMARK    7  A    between atoms: C_10  and  C_16
REMARK    8  A    between atoms: C_11  and  C_17
REMARK    9  A    between atoms: C_19  and  C_22
REMARK   10  A    between atoms: C_21  and  C_23
REMARK                            x       y       z     vdW  Elec       q    Type
REMARK                         _______ _______ _______ _____ _____    ______ ____
ROOT
ATOM      5  N   UNL     1      -5.535 -10.340  18.096  0.00  0.00    -0.297 NA
ATOM      9  C   UNL     1      -4.968 -12.423  16.638  0.00  0.00    +0.002 C 
ATOM     10  C   UNL     1      -3.989 -11.258  16.325  0.00  0.00    +0.055 C 
ATOM     11  C   UNL     1      -6.765 -10.847  17.433  0.00  0.00    +0.074 C 
ATOM     12  C   UNL     1      -6.418 -11.947  16.408  0.00  0.00    +0.024 C 
ATOM     13  C   UNL     1      -4.827 -12.731  18.144  0.00  0.00    +0.019 C 
ATOM     14  C   UNL     1      -4.511  -9.999  17.076  0.00  0.00    +0.094 C 
ATOM     15  C   UNL     1      -4.996 -11.429  18.946  0.00  0.00    +0.085 C 
ENDROOT
BRANCH  10  16
ATOM      6  N   UNL     1      -2.425 -10.577  14.447  0.00  0.00    -0.270 N 
ATOM      8  N   UNL     1      -2.343 -10.367  13.122  0.00  0.00    -0.171 NA
ATOM     16  C   UNL     1      -3.663 -10.966  14.867  0.00  0.00    +0.044 A 
ATOM     18  C   UNL     1      -4.445 -11.012  13.739  0.00  0.00    +0.053 A 
ATOM     19  C   UNL     1      -3.580 -10.635  12.695  0.00  0.00    +0.093 A 
ATOM     20  C   UNL     1      -1.251 -10.380  15.266  0.00  0.00    +0.172 C 
BRANCH  19  22
ATOM     22  C   UNL     1      -3.913 -10.523  11.299  0.00  0.00    +0.006 A 
ATOM     24  C   UNL     1      -4.265 -11.661  10.573  0.00  0.00    +0.059 A 
ATOM     25  C   UNL     1      -3.884  -9.277  10.672  0.00  0.00    +0.014 A 
ATOM     27  C   UNL     1      -4.587 -11.553   9.220  0.00  0.00    +0.162 A 
ATOM     28  C   UNL     1      -4.205  -9.169   9.320  0.00  0.00    +0.050 A 
ATOM     29  C   UNL     1      -4.557 -10.307   8.593  0.00  0.00    +0.162 A 
BRANCH  27   3
ATOM      3  O   UNL     1      -4.930 -12.670   8.520  0.00  0.00    -0.491 OA
ATOM     32  C   UNL     1      -6.267 -13.145   8.674  0.00  0.00    +0.277 C 
ENDBRANCH  27   3
BRANCH  29   4
ATOM      4  O   UNL     1      -4.871 -10.188   7.273  0.00  0.00    -0.491 OA
ATOM     33  C   UNL     1      -6.180  -9.717   6.957  0.00  0.00    +0.277 C 
ENDBRANCH  29   4
ENDBRANCH  19  22
ENDBRANCH  10  16
BRANCH  11  17
ATOM     17  C   UNL     1      -7.593  -9.723  16.806  0.00  0.00    +0.123 C 
BRANCH  17   7
ATOM      2  O   UNL     1      -9.757  -9.140  15.010  0.00  0.00    -0.270 OA
ATOM      7  N   UNL     1      -7.562  -9.801  15.378  0.00  0.00    -0.309 N 
ATOM     21  C   UNL     1      -8.664  -9.499  14.579  0.00  0.00    +0.251 C 
ATOM     34  H   UNL     1      -6.692 -10.099  14.951  0.00  0.00    +0.149 HD
BRANCH  21  23
ATOM      1  S   UNL     1      -9.772 -10.260  12.169  0.00  0.00    -0.092 S 
ATOM     23  C   UNL     1      -8.478  -9.655  13.114  0.00  0.00    +0.074 A 
ATOM     26  C   UNL     1      -7.366  -9.375  12.349  0.00  0.00    +0.021 A 
ATOM     30  C   UNL     1      -7.580  -9.661  10.970  0.00  0.00    +0.008 A 
ATOM     31  C   UNL     1      -8.847 -10.149  10.732  0.00  0.00    +0.046 A 
ENDBRANCH  21  23
ENDBRANCH  17   7
ENDBRANCH  11  17
TORSDOF 7
ENDMDL
MODEL 2
REMARK VINA RESULT:      -6.1      1.664      2.172
REMARK  Name = 40779497
REMARK  10 active torsions:
REMARK  status: ('A' for Active; 'I' for Inactive)
REMARK    1  A    between atoms: O_3  and  C_27
REMARK    2  A    between atoms: O_3  and  C_32
REMARK    3  A    between atoms: O_4  and  C_29
REMARK    4  A    between atoms: O_4  and  C_33
REMARK    5  A    between atoms: N_6  and  C_20
REMARK    6  A    between atoms: N_7  and  C_17
REMARK    7  A    between atoms: C_10  and  C_16
REMARK    8  A    between atoms: C_11  and  C_17
REMARK    9  A    between atoms: C_19  and  C_22
REMARK   10  A    between atoms: C_21  and  C_23
REMARK                            x       y       z     vdW  Elec       q    Type
REMARK                         _______ _______ _______ _____ _____    ______ ____
ROOT
ATOM      5  N   UNL     1      -6.553 -10.617  18.206  0.00  0.00    -0.297 NA
ATOM      9  C   UNL     1      -4.531 -12.127  17.559  0.00  0.00    +0.002 C 
ATOM     10  C   UNL     1      -4.401 -10.729  16.892  0.00  0.00    +0.055 C 
ATOM     11  C   UNL     1      -7.038 -11.938  17.725  0.00  0.00    +0.074 C 
ATOM     12  C   UNL     1      -5.873 -12.767  17.145  0.00  0.00    +0.024 C 
ATOM     13  C   UNL     1      -4.595 -11.888  19.084  0.00  0.00    +0.019 C 
ATOM     14  C   UNL     1      -5.731  -9.964  17.157  0.00  0.00    +0.094 C 
ATOM     15  C   UNL     1      -5.691 -10.853  19.389  0.00  0.00    +0.085 C 
ENDROOT
BRANCH  10  16
ATOM      6  N   UNL     1      -2.676 -10.665  15.033  0.00  0.00    -0.270 N 
ATOM      8  N   UNL     1      -2.515 -10.605  13.700  0.00  0.00    -0.171 NA
ATOM     16  C   UNL     1      -3.981 -10.667  15.431  0.00  0.00    +0.044 A 
ATOM     18  C   UNL     1      -4.725 -10.602  14.278  0.00  0.00    +0.053 A 
ATOM     19  C   UNL     1      -3.771 -10.566  13.245  0.00  0.00    +0.093 A 
ATOM     20  C   UNL     1      -1.509 -10.720  15.883  0.00  0.00    +0.172 C 
BRANCH  19  22
ATOM     22  C   UNL     1      -4.035 -10.494  11.831  0.00  0.00    +0.006 A 
ATOM     24  C   UNL     1      -4.809  -9.454  11.319  0.00  0.00    +0.059 A 
ATOM     25  C   UNL     1      -3.517 -11.466  10.975  0.00  0.00    +0.014 A 
ATOM     27  C   UNL     1      -5.065  -9.384   9.949  0.00  0.00    +0.162 A 
ATOM     28  C   UNL     1      -3.774 -11.397   9.605  0.00  0.00    +0.050 A 
ATOM     29  C   UNL     1      -4.548 -10.356   9.093  0.00  0.00    +0.162 A 
BRANCH  27   3
ATOM      3  O   UNL     1      -5.822  -8.362   9.459  0.00  0.00    -0.491 OA
ATOM     32  C   UNL     1      -7.239  -8.512   9.536  0.00  0.00    +0.277 C 
ENDBRANCH  27   3
BRANCH  29   4
ATOM      4  O   UNL     1      -4.790 -10.298   7.754  0.00  0.00    -0.491 OA
ATOM     33  C   UNL     1      -4.909 -11.541   7.062  0.00  0.00    +0.277 C 
ENDBRANCH  29   4
ENDBRANCH  19  22
ENDBRANCH  10  16
BRANCH  11  17
ATOM     17  C   UNL     1      -8.195 -11.807  16.733  0.00  0.00    +0.123 C 
BRANCH  17   7
ATOM      2  O   UNL     1      -9.288 -10.807  14.273  0.00  0.00    -0.270 OA
ATOM      7  N   UNL     1      -7.774 -12.151  15.409  0.00  0.00    -0.309 N 
ATOM     21  C   UNL     1      -8.363 -11.616  14.265  0.00  0.00    +0.251 C 
ATOM     34  H   UNL     1      -7.019 -12.821  15.325  0.00  0.00    +0.149 HD
BRANCH  21  23
ATOM      1  S   UNL     1      -6.939 -13.557  12.917  0.00  0.00    -0.092 S 
ATOM     23  C   UNL     1      -7.829 -12.095  12.964  0.00  0.00    +0.074 A 
ATOM     26  C   UNL     1      -7.943 -11.518  11.718  0.00  0.00    +0.021 A 
ATOM     30  C   UNL     1      -7.290 -12.287  10.711  0.00  0.00    +0.008 A 
ATOM     31  C   UNL     1      -6.702 -13.422  11.226  0.00  0.00    +0.046 A 
ENDBRANCH  21  23
ENDBRANCH  17   7
ENDBRANCH  11  17
TORSDOF 7
ENDMDL
MODEL 3
REMARK VINA RESULT:      -6.1      1.722      2.717
REMARK  Name = 40779497
REMARK  10 active torsions:
REMARK  status: ('A' for Active; 'I' for Inactive)
REMARK    1  A    between atoms: O_3  and  C_27
REMARK    2  A    between atoms: O_3  and  C_32
REMARK    3  A    between atoms: O_4  and  C_29
REMARK    4  A    between atoms: O_4  and  C_33
REMARK    5  A    between atoms: N_6  and  C_20
REMARK    6  A    between atoms: N_7  and  C_17
REMARK    7  A    between atoms: C_10  and  C_16
REMARK    8  A    between atoms: C_11  and  C_17
REMARK    9  A    between atoms: C_19  and  C_22
REMARK   10  A    between atoms: C_21  and  C_23
REMARK                            x       y       z     vdW  Elec       q    Type
REMARK                         _______ _______ _______ _____ _____    ______ ____
ROOT
ATOM      5  N   UNL     1      -6.575 -10.719  18.172  0.00  0.00    -0.297 NA
ATOM      9  C   UNL     1      -4.414 -12.076  17.648  0.00  0.00    +0.002 C 
ATOM     10  C   UNL     1      -4.394 -10.712  16.903  0.00  0.00    +0.055 C 
ATOM     11  C   UNL     1      -6.931 -12.102  17.762  0.00  0.00    +0.074 C 
ATOM     12  C   UNL     1      -5.685 -12.856  17.250  0.00  0.00    +0.024 C 
ATOM     13  C   UNL     1      -4.532 -11.758  19.154  0.00  0.00    +0.019 C 
ATOM     14  C   UNL     1      -5.791 -10.055  17.100  0.00  0.00    +0.094 C 
ATOM     15  C   UNL     1      -5.721 -10.809  19.381  0.00  0.00    +0.085 C 
ENDROOT
BRANCH  10  16
ATOM      6  N   UNL     1      -2.638 -10.671  15.071  0.00  0.00    -0.270 N 
ATOM      8  N   UNL     1      -2.456 -10.659  13.740  0.00  0.00    -0.171 NA
ATOM     16  C   UNL     1      -3.949 -10.696  15.447  0.00  0.00    +0.044 A 
ATOM     18  C   UNL     1      -4.675 -10.699  14.281  0.00  0.00    +0.053 A 
ATOM     19  C   UNL     1      -3.703 -10.676  13.262  0.00  0.00    +0.093 A 
ATOM     20  C   UNL     1      -1.486 -10.656  15.942  0.00  0.00    +0.172 C 
BRANCH  19  22
ATOM     22  C   UNL     1      -3.944 -10.669  11.843  0.00  0.00    +0.006 A 
ATOM     24  C   UNL     1      -4.524  -9.553  11.240  0.00  0.00    +0.059 A 
ATOM     25  C   UNL     1      -3.599 -11.778  11.071  0.00  0.00    +0.014 A 
ATOM     27  C   UNL     1      -4.758  -9.545   9.865  0.00  0.00    +0.162 A 
ATOM     28  C   UNL     1      -3.833 -11.772   9.696  0.00  0.00    +0.050 A 
ATOM     29  C   UNL     1      -4.412 -10.655   9.093  0.00  0.00    +0.162 A 
BRANCH  27   3
ATOM      3  O   UNL     1      -5.324  -8.450   9.286  0.00  0.00    -0.491 OA
ATOM     32  C   UNL     1      -6.748  -8.363   9.320  0.00  0.00    +0.277 C 
ENDBRANCH  27   3
BRANCH  29   4
ATOM      4  O   UNL     1      -4.635 -10.660   7.749  0.00  0.00    -0.491 OA
ATOM     33  C   UNL     1      -5.770 -11.387   7.282  0.00  0.00    +0.277 C 
ENDBRANCH  29   4
ENDBRANCH  19  22
ENDBRANCH  10  16
BRANCH  11  17
ATOM     17  C   UNL     1      -8.074 -12.132  16.744  0.00  0.00    +0.123 C 
BRANCH  17   7
ATOM      2  O   UNL     1      -8.808 -10.465  14.525  0.00  0.00    -0.270 OA
ATOM      7  N   UNL     1      -8.839 -10.924  16.800  0.00  0.00    -0.309 N 
ATOM     21  C   UNL     1      -9.151 -10.174  15.667  0.00  0.00    +0.251 C 
ATOM     34  H   UNL     1      -9.150 -10.617  17.714  0.00  0.00    +0.149 HD
BRANCH  21  23
ATOM      1  S   UNL     1     -11.033  -8.405  14.695  0.00  0.00    -0.092 S 
ATOM     23  C   UNL     1      -9.930  -8.930  15.896  0.00  0.00    +0.074 A 
ATOM     26  C   UNL     1      -9.907  -8.082  16.982  0.00  0.00    +0.021 A 
ATOM     30  C   UNL     1     -10.805  -6.988  16.826  0.00  0.00    +0.008 A 
ATOM     31  C   UNL     1     -11.483  -7.041  15.627  0.00  0.00    +0.046 A 
ENDBRANCH  21  23
ENDBRANCH  17   7
ENDBRANCH  11  17
TORSDOF 7
ENDMDL
MODEL 4
REMARK VINA RESULT:      -6.0     24.039     26.407
REMARK  Name = 40779497
REMARK  10 active torsions:
REMARK  status: ('A' for Active; 'I' for Inactive)
REMARK    1  A    between atoms: O_3  and  C_27
REMARK    2  A    between atoms: O_3  and  C_32
REMARK    3  A    between atoms: O_4  and  C_29
REMARK    4  A    between atoms: O_4  and  C_33
REMARK    5  A    between atoms: N_6  and  C_20
REMARK    6  A    between atoms: N_7  and  C_17
REMARK    7  A    between atoms: C_10  and  C_16
REMARK    8  A    between atoms: C_11  and  C_17
REMARK    9  A    between atoms: C_19  and  C_22
REMARK   10  A    between atoms: C_21  and  C_23
REMARK                            x       y       z     vdW  Elec       q    Type
REMARK                         _______ _______ _______ _____ _____    ______ ____
ROOT
ATOM      5  N   UNL     1      10.356   5.855   7.850  0.00  0.00    -0.297 NA
ATOM      9  C   UNL     1       9.486   7.760   6.300  0.00  0.00    +0.002 C 
ATOM     10  C   UNL     1       9.279   6.374   5.627  0.00  0.00    +0.055 C 
ATOM     11  C   UNL     1      11.392   6.912   7.714  0.00  0.00    +0.074 C 
ATOM     12  C   UNL     1      10.980   7.943   6.642  0.00  0.00    +0.024 C 
ATOM     13  C   UNL     1       8.718   7.723   7.639  0.00  0.00    +0.019 C 
ATOM     14  C   UNL     1      10.000   5.316   6.513  0.00  0.00    +0.094 C 
ATOM     15  C   UNL     1       9.145   6.478   8.435  0.00  0.00    +0.085 C 
ENDROOT
BRANCH  10  16
ATOM      6  N   UNL     1       9.140   7.057   3.188  0.00  0.00    -0.270 N 
ATOM      8  N   UNL     1       9.574   6.765   1.950  0.00  0.00    -0.171 NA
ATOM     16  C   UNL     1       9.635   6.232   4.154  0.00  0.00    +0.044 A 
ATOM     18  C   UNL     1      10.446   5.335   3.503  0.00  0.00    +0.053 A 
ATOM     19  C   UNL     1      10.371   5.712   2.149  0.00  0.00    +0.093 A 
ATOM     20  C   UNL     1       8.233   8.166   3.374  0.00  0.00    +0.172 C 
BRANCH  19  22
ATOM     22  C   UNL     1      11.045   5.084   1.042  0.00  0.00    +0.006 A 
ATOM     24  C   UNL     1      12.312   4.529   1.221  0.00  0.00    +0.059 A 
ATOM     25  C   UNL     1      10.431   5.032  -0.209  0.00  0.00    +0.014 A 
ATOM     27  C   UNL     1      12.965   3.921   0.149  0.00  0.00    +0.162 A 
ATOM     28  C   UNL     1      11.084   4.425  -1.282  0.00  0.00    +0.050 A 
ATOM     29  C   UNL     1      12.351   3.869  -1.103  0.00  0.00    +0.162 A 
BRANCH  27   3
ATOM      3  O   UNL     1      14.202   3.382   0.334  0.00  0.00    -0.491 OA
ATOM     32  C   UNL     1      14.957   3.863   1.445  0.00  0.00    +0.277 C 
ENDBRANCH  27   3
BRANCH  29   4
ATOM      4  O   UNL     1      12.978   3.278  -2.158  0.00  0.00    -0.491 OA
ATOM     33  C   UNL     1      12.173   2.486  -3.030  0.00  0.00    +0.277 C 
ENDBRANCH  29   4
ENDBRANCH  19  22
ENDBRANCH  10  16
BRANCH  11  17
ATOM     17  C   UNL     1      12.783   6.334   7.445  0.00  0.00    +0.123 C 
BRANCH  17   7
ATOM      2  O   UNL     1      15.140   7.718   6.567  0.00  0.00    -0.270 OA
ATOM      7  N   UNL     1      13.180   6.568   6.091  0.00  0.00    -0.309 N 
ATOM     21  C   UNL     1      14.347   7.253   5.753  0.00  0.00    +0.251 C 
ATOM     34  H   UNL     1      12.568   6.218   5.363  0.00  0.00    +0.149 HD
BRANCH  21  23
ATOM      1  S   UNL     1      16.188   7.832   3.780  0.00  0.00    -0.092 S 
ATOM     23  C   UNL     1      14.605   7.436   4.302  0.00  0.00    +0.074 A 
ATOM     26  C   UNL     1      13.724   7.333   3.247  0.00  0.00    +0.021 A 
ATOM     30  C   UNL     1      14.357   7.582   1.995  0.00  0.00    +0.008 A 
ATOM     31  C   UNL     1      15.698   7.866   2.140  0.00  0.00    +0.046 A 
ENDBRANCH  21  23
ENDBRANCH  17   7
ENDBRANCH  11  17
TORSDOF 7
ENDMDL
MODEL 5
REMARK VINA RESULT:      -6.0     27.182     30.184
REMARK  Name = 40779497
REMARK  10 active torsions:
REMARK  status: ('A' for Active; 'I' for Inactive)
REMARK    1  A    between atoms: O_3  and  C_27
REMARK    2  A    between atoms: O_3  and  C_32
REMARK    3  A    between atoms: O_4  and  C_29
REMARK    4  A    between atoms: O_4  and  C_33
REMARK    5  A    between atoms: N_6  and  C_20
REMARK    6  A    between atoms: N_7  and  C_17
REMARK    7  A    between atoms: C_10  and  C_16
REMARK    8  A    between atoms: C_11  and  C_17
REMARK    9  A    between atoms: C_19  and  C_22
REMARK   10  A    between atoms: C_21  and  C_23
REMARK                            x       y       z     vdW  Elec       q    Type
REMARK                         _______ _______ _______ _____ _____    ______ ____
ROOT
ATOM      5  N   UNL     1      13.339   8.837  17.151  0.00  0.00    -0.297 NA
ATOM      9  C   UNL     1      14.358   8.277  19.482  0.00  0.00    +0.002 C 
ATOM     10  C   UNL     1      12.806   8.280  19.554  0.00  0.00    +0.055 C 
ATOM     11  C   UNL     1      14.380   9.837  17.504  0.00  0.00    +0.074 C 
ATOM     12  C   UNL     1      14.848   9.646  18.962  0.00  0.00    +0.024 C 
ATOM     13  C   UNL     1      14.753   7.224  18.424  0.00  0.00    +0.019 C 
ATOM     14  C   UNL     1      12.280   8.816  18.191  0.00  0.00    +0.094 C 
ATOM     15  C   UNL     1      13.984   7.502  17.121  0.00  0.00    +0.085 C 
ENDROOT
BRANCH  10  16
ATOM      6  N   UNL     1      11.328   8.315  21.616  0.00  0.00    -0.270 N 
ATOM      8  N   UNL     1      10.842   9.100  22.592  0.00  0.00    -0.171 NA
ATOM     16  C   UNL     1      12.143   8.968  20.739  0.00  0.00    +0.044 A 
ATOM     18  C   UNL     1      12.192  10.271  21.170  0.00  0.00    +0.053 A 
ATOM     19  C   UNL     1      11.373  10.294  22.315  0.00  0.00    +0.093 A 
ATOM     20  C   UNL     1      10.961   6.918  21.585  0.00  0.00    +0.172 C 
BRANCH  19  22
ATOM     22  C   UNL     1      11.087  11.434  23.146  0.00  0.00    +0.006 A 
ATOM     24  C   UNL     1      10.782  12.664  22.563  0.00  0.00    +0.059 A 
ATOM     25  C   UNL     1      11.116  11.309  24.535  0.00  0.00    +0.014 A 
ATOM     27  C   UNL     1      10.506  13.769  23.368  0.00  0.00    +0.162 A 
ATOM     28  C   UNL     1      10.840  12.414  25.341  0.00  0.00    +0.050 A 
ATOM     29  C   UNL     1      10.535  13.644  24.757  0.00  0.00    +0.162 A 
BRANCH  27   3
ATOM      3  O   UNL     1      10.209  14.965  22.787  0.00  0.00    -0.491 OA
ATOM     32  C   UNL     1       8.855  15.171  22.387  0.00  0.00    +0.277 C 
ENDBRANCH  27   3
BRANCH  29   4
ATOM      4  O   UNL     1      10.266  14.715  25.554  0.00  0.00    -0.491 OA
ATOM     33  C   UNL     1      11.321  15.179  26.395  0.00  0.00    +0.277 C 
ENDBRANCH  29   4
ENDBRANCH  19  22
ENDBRANCH  10  16
BRANCH  11  17
ATOM     17  C   UNL     1      13.923  11.273  17.235  0.00  0.00    +0.123 C 
BRANCH  17   7
ATOM      2  O   UNL     1      13.296  11.010  14.446  0.00  0.00    -0.270 OA
ATOM      7  N   UNL     1      14.646  11.843  16.140  0.00  0.00    -0.309 N 
ATOM     21  C   UNL     1      14.270  11.664  14.810  0.00  0.00    +0.251 C 
ATOM     34  H   UNL     1      15.469  12.390  16.366  0.00  0.00    +0.149 HD
BRANCH  21  23
ATOM      1  S   UNL     1      15.716  13.889  14.056  0.00  0.00    -0.092 S 
ATOM     23  C   UNL     1      15.141  12.299  13.788  0.00  0.00    +0.074 A 
ATOM     26  C   UNL     1      15.586  11.783  12.590  0.00  0.00    +0.021 A 
ATOM     30  C   UNL     1      16.409  12.706  11.883  0.00  0.00    +0.008 A 
ATOM     31  C   UNL     1      16.563  13.892  12.568  0.00  0.00    +0.046 A 
ENDBRANCH  21  23
ENDBRANCH  17   7
ENDBRANCH  11  17
TORSDOF 7
ENDMDL
MODEL 6
REMARK VINA RESULT:      -6.0      3.592      7.574
REMARK  Name = 40779497
REMARK  10 active torsions:
REMARK  status: ('A' for Active; 'I' for Inactive)
REMARK    1  A    between atoms: O_3  and  C_27
REMARK    2  A    between atoms: O_3  and  C_32
REMARK    3  A    between atoms: O_4  and  C_29
REMARK    4  A    between atoms: O_4  and  C_33
REMARK    5  A    between atoms: N_6  and  C_20
REMARK    6  A    between atoms: N_7  and  C_17
REMARK    7  A    between atoms: C_10  and  C_16
REMARK    8  A    between atoms: C_11  and  C_17
REMARK    9  A    between atoms: C_19  and  C_22
REMARK   10  A    between atoms: C_21  and  C_23
REMARK                            x       y       z     vdW  Elec       q    Type
REMARK                         _______ _______ _______ _____ _____    ______ ____
ROOT
ATOM      5  N   UNL     1      -5.981 -12.771  17.330  0.00  0.00    -0.297 NA
ATOM      9  C   UNL     1      -6.056 -10.369  18.336  0.00  0.00    +0.002 C 
ATOM     10  C   UNL     1      -7.431 -11.074  18.506  0.00  0.00    +0.055 C 
ATOM     11  C   UNL     1      -5.450 -11.791  16.346  0.00  0.00    +0.074 C 
ATOM     12  C   UNL     1      -5.677 -10.346  16.839  0.00  0.00    +0.024 C 
ATOM     13  C   UNL     1      -5.012 -11.251  19.053  0.00  0.00    +0.019 C 
ATOM     14  C   UNL     1      -7.369 -12.409  17.710  0.00  0.00    +0.094 C 
ATOM     15  C   UNL     1      -5.135 -12.698  18.545  0.00  0.00    +0.085 C 
ENDROOT
BRANCH  10  16
ATOM      6  N   UNL     1      -9.843 -10.402  18.915  0.00  0.00    -0.270 N 
ATOM      8  N   UNL     1     -10.840  -9.611  18.484  0.00  0.00    -0.171 NA
ATOM     16  C   UNL     1      -8.690 -10.275  18.198  0.00  0.00    +0.044 A 
ATOM     18  C   UNL     1      -8.951  -9.338  17.229  0.00  0.00    +0.053 A 
ATOM     19  C   UNL     1     -10.289  -8.963  17.454  0.00  0.00    +0.093 A 
ATOM     20  C   UNL     1     -10.072 -11.273  20.045  0.00  0.00    +0.172 C 
BRANCH  19  22
ATOM     22  C   UNL     1     -11.051  -8.000  16.702  0.00  0.00    +0.006 A 
ATOM     24  C   UNL     1     -12.418  -8.193  16.505  0.00  0.00    +0.059 A 
ATOM     25  C   UNL     1     -10.421  -6.875  16.169  0.00  0.00    +0.014 A 
ATOM     27  C   UNL     1     -13.156  -7.261  15.776  0.00  0.00    +0.162 A 
ATOM     28  C   UNL     1     -11.159  -5.943  15.439  0.00  0.00    +0.050 A 
ATOM     29  C   UNL     1     -12.527  -6.136  15.243  0.00  0.00    +0.162 A 
BRANCH  27   3
ATOM      3  O   UNL     1     -14.491  -7.459  15.591  0.00  0.00    -0.491 OA
ATOM     32  C   UNL     1     -15.191  -8.159  16.619  0.00  0.00    +0.277 C 
ENDBRANCH  27   3
BRANCH  29   4
ATOM      4  O   UNL     1     -13.236  -5.218  14.530  0.00  0.00    -0.491 OA
ATOM     33  C   UNL     1     -12.639  -4.723  13.332  0.00  0.00    +0.277 C 
ENDBRANCH  29   4
ENDBRANCH  19  22
ENDBRANCH  10  16
BRANCH  11  17
ATOM     17  C   UNL     1      -6.018 -12.010  14.942  0.00  0.00    +0.123 C 
BRANCH  17   7
ATOM      2  O   UNL     1      -6.518  -9.850  13.118  0.00  0.00    -0.270 OA
ATOM      7  N   UNL     1      -5.122 -11.510  13.945  0.00  0.00    -0.309 N 
ATOM     21  C   UNL     1      -5.447 -10.451  13.097  0.00  0.00    +0.251 C 
ATOM     34  H   UNL     1      -4.220 -11.964  13.865  0.00  0.00    +0.149 HD
BRANCH  21  23
ATOM      1  S   UNL     1      -2.784 -10.502  12.376  0.00  0.00    -0.092 S 
ATOM     23  C   UNL     1      -4.418 -10.067  12.098  0.00  0.00    +0.074 A 
ATOM     26  C   UNL     1      -4.576  -9.378  10.916  0.00  0.00    +0.021 A 
ATOM     30  C   UNL     1      -3.340  -9.204  10.229  0.00  0.00    +0.008 A 
ATOM     31  C   UNL     1      -2.284  -9.767  10.912  0.00  0.00    +0.046 A 
ENDBRANCH  21  23
ENDBRANCH  17   7
ENDBRANCH  11  17
TORSDOF 7
ENDMDL
MODEL 7
REMARK VINA RESULT:      -6.0     20.355     23.475
REMARK  Name = 40779497
REMARK  10 active torsions:
REMARK  status: ('A' for Active; 'I' for Inactive)
REMARK    1  A    between atoms: O_3  and  C_27
REMARK    2  A    between atoms: O_3  and  C_32
REMARK    3  A    between atoms: O_4  and  C_29
REMARK    4  A    between atoms: O_4  and  C_33
REMARK    5  A    between atoms: N_6  and  C_20
REMARK    6  A    between atoms: N_7  and  C_17
REMARK    7  A    between atoms: C_10  and  C_16
REMARK    8  A    between atoms: C_11  and  C_17
REMARK    9  A    between atoms: C_19  and  C_22
REMARK   10  A    between atoms: C_21  and  C_23
REMARK                            x       y       z     vdW  Elec       q    Type
REMARK                         _______ _______ _______ _____ _____    ______ ____
ROOT
ATOM      5  N   UNL     1     -16.653   5.576  22.776  0.00  0.00    -0.297 NA
ATOM      9  C   UNL     1     -17.483   3.471  24.067  0.00  0.00    +0.002 C 
ATOM     10  C   UNL     1     -17.676   4.749  24.930  0.00  0.00    +0.055 C 
ATOM     11  C   UNL     1     -15.613   4.515  22.741  0.00  0.00    +0.074 C 
ATOM     12  C   UNL     1     -15.997   3.344  23.669  0.00  0.00    +0.024 C 
ATOM     13  C   UNL     1     -18.283   3.688  22.765  0.00  0.00    +0.019 C 
ATOM     14  C   UNL     1     -16.979   5.923  24.183  0.00  0.00    +0.094 C 
ATOM     15  C   UNL     1     -17.877   5.034  22.139  0.00  0.00    +0.085 C 
ENDROOT
BRANCH  10  16
ATOM      6  N   UNL     1     -17.787   5.545  27.337  0.00  0.00    -0.270 N 
ATOM      8  N   UNL     1     -17.317   5.327  28.577  0.00  0.00    -0.171 NA
ATOM     16  C   UNL     1     -17.287   4.689  26.400  0.00  0.00    +0.044 A 
ATOM     18  C   UNL     1     -16.429   3.855  27.074  0.00  0.00    +0.053 A 
ATOM     19  C   UNL     1     -16.488   4.293  28.410  0.00  0.00    +0.093 A 
ATOM     20  C   UNL     1     -18.733   6.615  27.118  0.00  0.00    +0.172 C 
BRANCH  19  22
ATOM     22  C   UNL     1     -15.766   3.746  29.529  0.00  0.00    +0.006 A 
ATOM     24  C   UNL     1     -15.255   2.450  29.462  0.00  0.00    +0.059 A 
ATOM     25  C   UNL     1     -15.579   4.511  30.680  0.00  0.00    +0.014 A 
ATOM     27  C   UNL     1     -14.557   1.919  30.546  0.00  0.00    +0.162 A 
ATOM     28  C   UNL     1     -14.881   3.980  31.765  0.00  0.00    +0.050 A 
ATOM     29  C   UNL     1     -14.370   2.684  31.698  0.00  0.00    +0.162 A 
BRANCH  27   3
ATOM      3  O   UNL     1     -14.061   0.652  30.470  0.00  0.00    -0.491 OA
ATOM     32  C   UNL     1     -14.964  -0.415  30.759  0.00  0.00    +0.277 C 
ENDBRANCH  27   3
BRANCH  29   4
ATOM      4  O   UNL     1     -13.689   2.177  32.763  0.00  0.00    -0.491 OA
ATOM     33  C   UNL     1     -14.465   1.659  33.842  0.00  0.00    +0.277 C 
ENDBRANCH  29   4
ENDBRANCH  19  22
ENDBRANCH  10  16
BRANCH  11  17
ATOM     17  C   UNL     1     -14.217   5.058  23.054  0.00  0.00    +0.123 C 
BRANCH  17   7
ATOM      2  O   UNL     1     -14.139   7.792  22.180  0.00  0.00    -0.270 OA
ATOM      7  N   UNL     1     -13.586   5.558  21.872  0.00  0.00    -0.309 N 
ATOM     21  C   UNL     1     -13.596   6.908  21.522  0.00  0.00    +0.251 C 
ATOM     34  H   UNL     1     -13.124   4.883  21.274  0.00  0.00    +0.149 HD
BRANCH  21  23
ATOM      1  S   UNL     1     -13.818   8.037  19.014  0.00  0.00    -0.092 S 
ATOM     23  C   UNL     1     -12.919   7.263  20.249  0.00  0.00    +0.074 A 
ATOM     26  C   UNL     1     -11.607   7.058  19.881  0.00  0.00    +0.021 A 
ATOM     30  C   UNL     1     -11.336   7.542  18.569  0.00  0.00    +0.008 A 
ATOM     31  C   UNL     1     -12.452   8.100  17.983  0.00  0.00    +0.046 A 
ENDBRANCH  21  23
ENDBRANCH  17   7
ENDBRANCH  11  17
TORSDOF 7
ENDMDL
MODEL 8
REMARK VINA RESULT:      -6.0      2.482      3.472
REMARK  Name = 40779497
REMARK  10 active torsions:
REMARK  status: ('A' for Active; 'I' for Inactive)
REMARK    1  A    between atoms: O_3  and  C_27
REMARK    2  A    between atoms: O_3  and  C_32
REMARK    3  A    between atoms: O_4  and  C_29
REMARK    4  A    between atoms: O_4  and  C_33
REMARK    5  A    between atoms: N_6  and  C_20
REMARK    6  A    between atoms: N_7  and  C_17
REMARK    7  A    between atoms: C_10  and  C_16
REMARK    8  A    between atoms: C_11  and  C_17
REMARK    9  A    between atoms: C_19  and  C_22
REMARK   10  A    between atoms: C_21  and  C_23
REMARK                            x       y       z     vdW  Elec       q    Type
REMARK                         _______ _______ _______ _____ _____    ______ ____
ROOT
ATOM      5  N   UNL     1      -6.143 -10.741  18.209  0.00  0.00    -0.297 NA
ATOM      9  C   UNL     1      -4.195 -12.280  17.420  0.00  0.00    +0.002 C 
ATOM     10  C   UNL     1      -4.055 -10.863  16.797  0.00  0.00    +0.055 C 
ATOM     11  C   UNL     1      -6.686 -12.030  17.704  0.00  0.00    +0.074 C 
ATOM     12  C   UNL     1      -5.571 -12.869  17.044  0.00  0.00    +0.024 C 
ATOM     13  C   UNL     1      -4.185 -12.095  18.953  0.00  0.00    +0.019 C 
ATOM     14  C   UNL     1      -5.349 -10.073  17.147  0.00  0.00    +0.094 C 
ATOM     15  C   UNL     1      -5.237 -11.043  19.343  0.00  0.00    +0.085 C 
ENDROOT
BRANCH  10  16
ATOM      6  N   UNL     1      -2.412 -10.672  14.873  0.00  0.00    -0.270 N 
ATOM      8  N   UNL     1      -2.308 -10.588  13.535  0.00  0.00    -0.171 NA
ATOM     16  C   UNL     1      -3.697 -10.760  15.321  0.00  0.00    +0.044 A 
ATOM     18  C   UNL     1      -4.489 -10.730  14.199  0.00  0.00    +0.053 A 
ATOM     19  C   UNL     1      -3.581 -10.624  13.130  0.00  0.00    +0.093 A 
ATOM     20  C   UNL     1      -1.211 -10.661  15.676  0.00  0.00    +0.172 C 
BRANCH  19  22
ATOM     22  C   UNL     1      -3.905 -10.554  11.729  0.00  0.00    +0.006 A 
ATOM     24  C   UNL     1      -4.727 -11.522  11.154  0.00  0.00    +0.059 A 
ATOM     25  C   UNL     1      -3.395  -9.518  10.946  0.00  0.00    +0.014 A 
ATOM     27  C   UNL     1      -5.040 -11.455   9.796  0.00  0.00    +0.162 A 
ATOM     28  C   UNL     1      -3.707  -9.450   9.588  0.00  0.00    +0.050 A 
ATOM     29  C   UNL     1      -4.530 -10.419   9.013  0.00  0.00    +0.162 A 
BRANCH  27   3
ATOM      3  O   UNL     1      -5.845 -12.406   9.245  0.00  0.00    -0.491 OA
ATOM     32  C   UNL     1      -7.199 -12.447   9.693  0.00  0.00    +0.277 C 
ENDBRANCH  27   3
BRANCH  29   4
ATOM      4  O   UNL     1      -4.829 -10.342   7.687  0.00  0.00    -0.491 OA
ATOM     33  C   UNL     1      -5.957  -9.547   7.321  0.00  0.00    +0.277 C 
ENDBRANCH  29   4
ENDBRANCH  19  22
ENDBRANCH  10  16
BRANCH  11  17
ATOM     17  C   UNL     1      -7.881 -11.833  16.770  0.00  0.00    +0.123 C 
BRANCH  17   7
ATOM      2  O   UNL     1      -9.059  -9.233  17.081  0.00  0.00    -0.270 OA
ATOM      7  N   UNL     1      -9.062 -11.514  17.512  0.00  0.00    -0.309 N 
ATOM     21  C   UNL     1      -9.567 -10.217  17.610  0.00  0.00    +0.251 C 
ATOM     34  H   UNL     1      -9.531 -12.278  17.983  0.00  0.00    +0.149 HD
BRANCH  21  23
ATOM      1  S   UNL     1     -10.744 -10.508  20.089  0.00  0.00    -0.092 S 
ATOM     23  C   UNL     1     -10.787 -10.047  18.440  0.00  0.00    +0.074 A 
ATOM     26  C   UNL     1     -12.019  -9.550  18.074  0.00  0.00    +0.021 A 
ATOM     30  C   UNL     1     -12.939  -9.547  19.161  0.00  0.00    +0.008 A 
ATOM     31  C   UNL     1     -12.376 -10.042  20.317  0.00  0.00    +0.046 A 
ENDBRANCH  21  23
ENDBRANCH  17   7
ENDBRANCH  11  17
TORSDOF 7
ENDMDL
MODEL 9
REMARK VINA RESULT:      -5.8     20.397     22.910
REMARK  Name = 40779497
REMARK  10 active torsions:
REMARK  status: ('A' for Active; 'I' for Inactive)
REMARK    1  A    between atoms: O_3  and  C_27
REMARK    2  A    between atoms: O_3  and  C_32
REMARK    3  A    between atoms: O_4  and  C_29
REMARK    4  A    between atoms: O_4  and  C_33
REMARK    5  A    between atoms: N_6  and  C_20
REMARK    6  A    between atoms: N_7  and  C_17
REMARK    7  A    between atoms: C_10  and  C_16
REMARK    8  A    between atoms: C_11  and  C_17
REMARK    9  A    between atoms: C_19  and  C_22
REMARK   10  A    between atoms: C_21  and  C_23
REMARK                            x       y       z     vdW  Elec       q    Type
REMARK                         _______ _______ _______ _____ _____    ______ ____
ROOT
ATOM      5  N   UNL     1     -18.184   4.938  23.259  0.00  0.00    -0.297 NA
ATOM      9  C   UNL     1     -17.789   2.364  23.202  0.00  0.00    +0.002 C 
ATOM     10  C   UNL     1     -18.477   2.779  24.532  0.00  0.00    +0.055 C 
ATOM     11  C   UNL     1     -16.775   4.649  22.886  0.00  0.00    +0.074 C 
ATOM     12  C   UNL     1     -16.466   3.145  23.047  0.00  0.00    +0.024 C 
ATOM     13  C   UNL     1     -18.720   2.820  22.058  0.00  0.00    +0.019 C 
ATOM     14  C   UNL     1     -18.495   4.334  24.580  0.00  0.00    +0.094 C 
ATOM     15  C   UNL     1     -19.062   4.308  22.245  0.00  0.00    +0.085 C 
ENDROOT
BRANCH  10  16
ATOM      6  N   UNL     1     -18.367   0.948  26.285  0.00  0.00    -0.270 N 
ATOM      8  N   UNL     1     -17.797   0.588  27.447  0.00  0.00    -0.171 NA
ATOM     16  C   UNL     1     -17.963   2.168  25.828  0.00  0.00    +0.044 A 
ATOM     18  C   UNL     1     -17.069   2.640  26.757  0.00  0.00    +0.053 A 
ATOM     19  C   UNL     1     -17.005   1.626  27.731  0.00  0.00    +0.093 A 
ATOM     20  C   UNL     1     -19.310   0.053  25.654  0.00  0.00    +0.172 C 
BRANCH  19  22
ATOM     22  C   UNL     1     -16.205   1.630  28.927  0.00  0.00    +0.006 A 
ATOM     24  C   UNL     1     -15.189   0.689  29.090  0.00  0.00    +0.059 A 
ATOM     25  C   UNL     1     -16.446   2.576  29.924  0.00  0.00    +0.014 A 
ATOM     27  C   UNL     1     -14.413   0.693  30.250  0.00  0.00    +0.162 A 
ATOM     28  C   UNL     1     -15.671   2.580  31.084  0.00  0.00    +0.050 A 
ATOM     29  C   UNL     1     -14.655   1.638  31.247  0.00  0.00    +0.162 A 
BRANCH  27   3
ATOM      3  O   UNL     1     -13.423  -0.231  30.399  0.00  0.00    -0.491 OA
ATOM     32  C   UNL     1     -13.184  -1.106  29.297  0.00  0.00    +0.277 C 
ENDBRANCH  27   3
BRANCH  29   4
ATOM      4  O   UNL     1     -13.905   1.653  32.383  0.00  0.00    -0.491 OA
ATOM     33  C   UNL     1     -14.606   1.728  33.624  0.00  0.00    +0.277 C 
ENDBRANCH  29   4
ENDBRANCH  19  22
ENDBRANCH  10  16
BRANCH  11  17
ATOM     17  C   UNL     1     -15.778   5.521  23.652  0.00  0.00    +0.123 C 
BRANCH  17   7
ATOM      2  O   UNL     1     -15.168   8.211  22.854  0.00  0.00    -0.270 OA
ATOM      7  N   UNL     1     -14.705   5.937  22.803  0.00  0.00    -0.309 N 
ATOM     21  C   UNL     1     -14.480   7.271  22.465  0.00  0.00    +0.251 C 
ATOM     34  H   UNL     1     -14.099   5.212  22.437  0.00  0.00    +0.149 HD
BRANCH  21  23
ATOM      1  S   UNL     1     -13.127   9.113  20.919  0.00  0.00    -0.092 S 
ATOM     23  C   UNL     1     -13.339   7.535  21.551  0.00  0.00    +0.074 A 
ATOM     26  C   UNL     1     -12.368   6.665  21.105  0.00  0.00    +0.021 A 
ATOM     30  C   UNL     1     -11.439   7.301  20.234  0.00  0.00    +0.008 A 
ATOM     31  C   UNL     1     -11.733   8.634  20.046  0.00  0.00    +0.046 A 
ENDBRANCH  21  23
ENDBRANCH  17   7
ENDBRANCH  11  17
TORSDOF 7
ENDMDL
MODEL 10
REMARK VINA RESULT:      -5.7      3.321      7.426
REMARK  Name = 40779497
REMARK  10 active torsions:
REMARK  status: ('A' for Active; 'I' for Inactive)
REMARK    1  A    between atoms: O_3  and  C_27
REMARK    2  A    between atoms: O_3  and  C_32
REMARK    3  A    between atoms: O_4  and  C_29
REMARK    4  A    between atoms: O_4  and  C_33
REMARK    5  A    between atoms: N_6  and  C_20
REMARK    6  A    between atoms: N_7  and  C_17
REMARK    7  A    between atoms: C_10  and  C_16
REMARK    8  A    between atoms: C_11  and  C_17
REMARK    9  A    between atoms: C_19  and  C_22
REMARK   10  A    between atoms: C_21  and  C_23
REMARK                            x       y       z     vdW  Elec       q    Type
REMARK                         _______ _______ _______ _____ _____    ______ ____
ROOT
ATOM      5  N   UNL     1      -5.903 -10.513   9.275  0.00  0.00    -0.297 NA
ATOM      9  C   UNL     1      -4.259  -8.957  10.564  0.00  0.00    +0.002 C 
ATOM     10  C   UNL     1      -4.317 -10.359  11.232  0.00  0.00    +0.055 C 
ATOM     11  C   UNL     1      -6.560  -9.213   9.571  0.00  0.00    +0.074 C 
ATOM     12  C   UNL     1      -5.681  -8.359  10.509  0.00  0.00    +0.024 C 
ATOM     13  C   UNL     1      -3.804  -9.177   9.105  0.00  0.00    +0.019 C 
ATOM     14  C   UNL     1      -5.458 -11.157  10.537  0.00  0.00    +0.094 C 
ATOM     15  C   UNL     1      -4.704 -10.238   8.449  0.00  0.00    +0.085 C 
ENDROOT
BRANCH  10  16
ATOM      6  N   UNL     1      -3.308 -10.511  13.555  0.00  0.00    -0.270 N 
ATOM      8  N   UNL     1      -3.600 -10.564  14.866  0.00  0.00    -0.171 NA
ATOM     16  C   UNL     1      -4.406 -10.429  12.750  0.00  0.00    +0.044 A 
ATOM     18  C   UNL     1      -5.491 -10.430  13.592  0.00  0.00    +0.053 A 
ATOM     19  C   UNL     1      -4.934 -10.514  14.882  0.00  0.00    +0.093 A 
ATOM     20  C   UNL     1      -1.925 -10.545  13.138  0.00  0.00    +0.172 C 
BRANCH  19  22
ATOM     22  C   UNL     1      -5.653 -10.549  16.129  0.00  0.00    +0.006 A 
ATOM     24  C   UNL     1      -5.029 -11.028  17.281  0.00  0.00    +0.059 A 
ATOM     25  C   UNL     1      -6.975 -10.106  16.185  0.00  0.00    +0.014 A 
ATOM     27  C   UNL     1      -5.725 -11.063  18.489  0.00  0.00    +0.162 A 
ATOM     28  C   UNL     1      -7.672 -10.141  17.393  0.00  0.00    +0.050 A 
ATOM     29  C   UNL     1      -7.047 -10.619  18.545  0.00  0.00    +0.162 A 
BRANCH  27   3
ATOM      3  O   UNL     1      -5.106 -11.531  19.608  0.00  0.00    -0.491 OA
ATOM     32  C   UNL     1      -3.869 -12.218  19.422  0.00  0.00    +0.277 C 
ENDBRANCH  27   3
BRANCH  29   4
ATOM      4  O   UNL     1      -7.737 -10.648  19.718  0.00  0.00    -0.491 OA
ATOM     33  C   UNL     1      -9.047 -11.215  19.687  0.00  0.00    +0.277 C 
ENDBRANCH  29   4
ENDBRANCH  19  22
ENDBRANCH  10  16
BRANCH  11  17
ATOM     17  C   UNL     1      -7.978  -9.388  10.120  0.00  0.00    +0.123 C 
BRANCH  17   7
ATOM      2  O   UNL     1     -10.745  -9.307   9.361  0.00  0.00    -0.270 OA
ATOM      7  N   UNL     1      -8.765  -8.216   9.885  0.00  0.00    -0.309 N 
ATOM     21  C   UNL     1     -10.109  -8.269   9.518  0.00  0.00    +0.251 C 
ATOM     34  H   UNL     1      -8.302  -7.321   9.989  0.00  0.00    +0.149 HD
BRANCH  21  23
ATOM      1  S   UNL     1     -12.461  -6.828   9.578  0.00  0.00    -0.092 S 
ATOM     23  C   UNL     1     -10.779  -6.964   9.286  0.00  0.00    +0.074 A 
ATOM     26  C   UNL     1     -10.233  -5.778   8.847  0.00  0.00    +0.021 A 
ATOM     30  C   UNL     1     -11.207  -4.744   8.749  0.00  0.00    +0.008 A 
ATOM     31  C   UNL     1     -12.462  -5.178   9.117  0.00  0.00    +0.046 A 
ENDBRANCH  21  23
ENDBRANCH  17   7
ENDBRANCH  11  17
TORSDOF 7
ENDMDL
