MODEL 1
REMARK VINA RESULT:      -7.0      0.000      0.000
REMARK  Name = 28960045
REMARK  7 active torsions:
REMARK  status: ('A' for Active; 'I' for Inactive)
REMARK    1  A    between atoms: O_2  and  C_21
REMARK    2  A    between atoms: N_5  and  C_14
REMARK    3  A    between atoms: C_8  and  C_12
REMARK    4  A    between atoms: C_9  and  C_15
REMARK    5  A    between atoms: C_12  and  C_14
REMARK    6  A    between atoms: C_15  and  C_21
REMARK    7  A    between atoms: C_18  and  C_22
REMARK                            x       y       z     vdW  Elec       q    Type
REMARK                         _______ _______ _______ _____ _____    ______ ____
ROOT
ATOM      1  O   UNL     1      -1.345  -9.813  12.438  0.00  0.00    -0.270 OA
ATOM      4  N   UNL     1      -2.585 -11.228  13.830  0.00  0.00    -0.297 N 
ATOM      8  C   UNL     1      -4.511 -11.593  15.356  0.00  0.00    +0.011 C 
ATOM      9  C   UNL     1      -3.526 -11.532  16.552  0.00  0.00    +0.006 C 
ATOM     10  C   UNL     1      -3.771 -12.057  14.090  0.00  0.00    +0.112 C 
ATOM     11  C   UNL     1      -2.281 -10.693  16.216  0.00  0.00    +0.023 C 
ATOM     13  C   UNL     1      -1.620 -11.175  14.927  0.00  0.00    +0.108 C 
ATOM     18  C   UNL     1      -2.333 -10.513  12.657  0.00  0.00    +0.247 C 
ENDROOT
BRANCH  18  22
ATOM     22  C   UNL     1      -3.323 -10.589  11.577  0.00  0.00    +0.037 A 
ATOM     24  C   UNL     1      -4.277  -9.580  11.431  0.00  0.00    +0.013 A 
ATOM     25  C   UNL     1      -3.312 -11.671  10.697  0.00  0.00    +0.013 A 
ATOM     27  C   UNL     1      -5.218  -9.654  10.404  0.00  0.00    +0.001 A 
ATOM     28  C   UNL     1      -4.252 -11.744   9.670  0.00  0.00    +0.001 A 
ATOM     30  C   UNL     1      -5.206 -10.735   9.523  0.00  0.00    +0.000 A 
ENDBRANCH  18  22
BRANCH   8  12
ATOM     12  C   UNL     1      -5.249 -10.274  15.090  0.00  0.00    +0.020 C 
BRANCH  12  14
ATOM     14  C   UNL     1      -6.500 -10.512  14.257  0.00  0.00    +0.085 C 
BRANCH  14   5
ATOM      5  N   UNL     1      -7.675 -10.012  14.972  0.00  0.00    -0.299 NA
ATOM      6  N   UNL     1      -9.711 -10.029  16.975  0.00  0.00    -0.313 N 
ATOM      7  N   UNL     1     -11.999  -9.632  17.437  0.00  0.00    -0.240 NA
ATOM     16  C   UNL     1      -7.342  -9.723  16.372  0.00  0.00    +0.103 C 
ATOM     17  C   UNL     1      -8.769 -10.989  14.910  0.00  0.00    +0.103 C 
ATOM     19  C   UNL     1      -8.549  -9.146  17.116  0.00  0.00    +0.122 C 
ATOM     20  C   UNL     1     -10.024 -10.454  15.604  0.00  0.00    +0.122 C 
ATOM     23  C   UNL     1     -10.764  -9.942  17.893  0.00  0.00    +0.121 A 
ATOM     26  C   UNL     1     -10.466 -10.182  19.224  0.00  0.00    +0.043 A 
ATOM     29  C   UNL     1     -11.501 -10.098  20.148  0.00  0.00    +0.005 A 
ATOM     31  C   UNL     1     -12.980  -9.561  18.365  0.00  0.00    +0.113 A 
ATOM     32  C   UNL     1     -12.786  -9.783  19.718  0.00  0.00    +0.020 A 
ENDBRANCH  14   5
ENDBRANCH  12  14
ENDBRANCH   8  12
BRANCH   9  15
ATOM     15  C   UNL     1      -4.177 -11.035  17.843  0.00  0.00    +0.124 C 
BRANCH  15  21
ATOM      3  O   UNL     1      -3.388 -12.163  19.855  0.00  0.00    -0.251 OA
ATOM     21  C   UNL     1      -4.163 -12.092  18.913  0.00  0.00    +0.305 C 
BRANCH  21   2
ATOM      2  O   UNL     1      -5.160 -12.985  18.686  0.00  0.00    -0.481 OA
ATOM     33  H   UNL     1      -5.981 -12.747  19.167  0.00  0.00    +0.295 HD
ENDBRANCH  21   2
ENDBRANCH  15  21
ENDBRANCH   9  15
TORSDOF 7
ENDMDL
MODEL 2
REMARK VINA RESULT:      -6.8     26.981     30.310
REMARK  Name = 28960045
REMARK  7 active torsions:
REMARK  status: ('A' for Active; 'I' for Inactive)
REMARK    1  A    between atoms: O_2  and  C_21
REMARK    2  A    between atoms: N_5  and  C_14
REMARK    3  A    between atoms: C_8  and  C_12
REMARK    4  A    between atoms: C_9  and  C_15
REMARK    5  A    between atoms: C_12  and  C_14
REMARK    6  A    between atoms: C_15  and  C_21
REMARK    7  A    between atoms: C_18  and  C_22
REMARK                            x       y       z     vdW  Elec       q    Type
REMARK                         _______ _______ _______ _____ _____    ______ ____
ROOT
ATOM      1  O   UNL     1      13.474   8.693  15.202  0.00  0.00    -0.270 OA
ATOM      4  N   UNL     1      12.830   9.385  17.342  0.00  0.00    -0.297 N 
ATOM      8  C   UNL     1      13.247   9.468  19.790  0.00  0.00    +0.011 C 
ATOM      9  C   UNL     1      12.148   8.391  19.975  0.00  0.00    +0.006 C 
ATOM     10  C   UNL     1      12.983  10.272  18.505  0.00  0.00    +0.112 C 
ATOM     11  C   UNL     1      11.994   7.519  18.717  0.00  0.00    +0.023 C 
ATOM     13  C   UNL     1      11.779   8.377  17.472  0.00  0.00    +0.108 C 
ATOM     18  C   UNL     1      13.595   9.437  16.174  0.00  0.00    +0.247 C 
ENDROOT
BRANCH  18  22
ATOM     22  C   UNL     1      14.640  10.461  16.079  0.00  0.00    +0.037 A 
ATOM     24  C   UNL     1      15.399  10.579  14.913  0.00  0.00    +0.013 A 
ATOM     25  C   UNL     1      14.876  11.317  17.154  0.00  0.00    +0.013 A 
ATOM     27  C   UNL     1      16.392  11.554  14.824  0.00  0.00    +0.001 A 
ATOM     28  C   UNL     1      15.870  12.292  17.064  0.00  0.00    +0.001 A 
ATOM     30  C   UNL     1      16.628  12.411  15.899  0.00  0.00    +0.000 A 
ENDBRANCH  18  22
BRANCH   8  12
ATOM     12  C   UNL     1      14.674   8.907  19.785  0.00  0.00    +0.020 C 
BRANCH  12  14
ATOM     14  C   UNL     1      15.442   9.366  21.016  0.00  0.00    +0.085 C 
BRANCH  14   5
ATOM      5  N   UNL     1      16.544   8.443  21.287  0.00  0.00    -0.299 NA
ATOM      6  N   UNL     1      19.106   7.249  20.877  0.00  0.00    -0.313 N 
ATOM      7  N   UNL     1      20.337   5.226  20.851  0.00  0.00    -0.240 NA
ATOM     16  C   UNL     1      17.769   9.184  21.609  0.00  0.00    +0.103 C 
ATOM     17  C   UNL     1      16.779   7.568  20.131  0.00  0.00    +0.103 C 
ATOM     19  C   UNL     1      18.916   8.229  21.950  0.00  0.00    +0.122 C 
ATOM     20  C   UNL     1      17.892   6.558  20.423  0.00  0.00    +0.122 C 
ATOM     23  C   UNL     1      20.327   6.575  20.760  0.00  0.00    +0.121 A 
ATOM     26  C   UNL     1      21.460   7.346  20.556  0.00  0.00    +0.043 A 
ATOM     29  C   UNL     1      22.680   6.692  20.440  0.00  0.00    +0.005 A 
ATOM     31  C   UNL     1      21.541   4.625  20.732  0.00  0.00    +0.113 A 
ATOM     32  C   UNL     1      22.731   5.304  20.527  0.00  0.00    +0.020 A 
ENDBRANCH  14   5
ENDBRANCH  12  14
ENDBRANCH   8  12
BRANCH   9  15
ATOM     15  C   UNL     1      12.364   7.517  21.211  0.00  0.00    +0.124 C 
BRANCH  15  21
ATOM      3  O   UNL     1      11.152   5.439  21.604  0.00  0.00    -0.251 OA
ATOM     21  C   UNL     1      11.164   6.656  21.498  0.00  0.00    +0.305 C 
BRANCH  21   2
ATOM      2  O   UNL     1      10.061   7.437  21.628  0.00  0.00    -0.481 OA
ATOM     33  H   UNL     1       9.316   7.112  21.080  0.00  0.00    +0.295 HD
ENDBRANCH  21   2
ENDBRANCH  15  21
ENDBRANCH   9  15
TORSDOF 7
ENDMDL
MODEL 3
REMARK VINA RESULT:      -6.8     27.254     30.506
REMARK  Name = 28960045
REMARK  7 active torsions:
REMARK  status: ('A' for Active; 'I' for Inactive)
REMARK    1  A    between atoms: O_2  and  C_21
REMARK    2  A    between atoms: N_5  and  C_14
REMARK    3  A    between atoms: C_8  and  C_12
REMARK    4  A    between atoms: C_9  and  C_15
REMARK    5  A    between atoms: C_12  and  C_14
REMARK    6  A    between atoms: C_15  and  C_21
REMARK    7  A    between atoms: C_18  and  C_22
REMARK                            x       y       z     vdW  Elec       q    Type
REMARK                         _______ _______ _______ _____ _____    ______ ____
ROOT
ATOM      1  O   UNL     1      11.428   6.266  20.876  0.00  0.00    -0.270 OA
ATOM      4  N   UNL     1      11.393   8.603  20.974  0.00  0.00    -0.297 N 
ATOM      8  C   UNL     1      12.448  10.741  21.675  0.00  0.00    +0.011 C 
ATOM      9  C   UNL     1      11.412  10.830  22.825  0.00  0.00    +0.006 C 
ATOM     10  C   UNL     1      11.870   9.915  20.512  0.00  0.00    +0.112 C 
ATOM     11  C   UNL     1      10.908   9.438  23.241  0.00  0.00    +0.023 C 
ATOM     13  C   UNL     1      10.391   8.654  22.037  0.00  0.00    +0.108 C 
ATOM     18  C   UNL     1      11.821   7.365  20.489  0.00  0.00    +0.247 C 
ENDROOT
BRANCH  18  22
ATOM     22  C   UNL     1      12.827   7.353  19.421  0.00  0.00    +0.037 A 
ATOM     24  C   UNL     1      12.473   7.723  18.123  0.00  0.00    +0.013 A 
ATOM     25  C   UNL     1      14.138   6.970  19.704  0.00  0.00    +0.013 A 
ATOM     27  C   UNL     1      13.431   7.711  17.109  0.00  0.00    +0.001 A 
ATOM     28  C   UNL     1      15.096   6.960  18.690  0.00  0.00    +0.001 A 
ATOM     30  C   UNL     1      14.742   7.330  17.392  0.00  0.00    +0.000 A 
ENDBRANCH  18  22
BRANCH   8  12
ATOM     12  C   UNL     1      13.809  10.179  22.105  0.00  0.00    +0.020 C 
BRANCH  12  14
ATOM     14  C   UNL     1      14.908  11.214  21.914  0.00  0.00    +0.085 C 
BRANCH  14   5
ATOM      5  N   UNL     1      16.149  10.552  21.514  0.00  0.00    -0.299 NA
ATOM      6  N   UNL     1      18.515   8.997  21.896  0.00  0.00    -0.313 N 
ATOM      7  N   UNL     1      20.809   8.767  21.358  0.00  0.00    -0.240 NA
ATOM     16  C   UNL     1      16.058   9.105  21.744  0.00  0.00    +0.103 C 
ATOM     17  C   UNL     1      17.289  11.105  22.256  0.00  0.00    +0.103 C 
ATOM     19  C   UNL     1      17.331   8.393  21.278  0.00  0.00    +0.122 C 
ATOM     20  C   UNL     1      18.603  10.460  21.806  0.00  0.00    +0.122 C 
ATOM     23  C   UNL     1      19.708   8.270  21.966  0.00  0.00    +0.121 A 
ATOM     26  C   UNL     1      19.682   7.073  22.664  0.00  0.00    +0.043 A 
ATOM     29  C   UNL     1      20.860   6.339  22.742  0.00  0.00    +0.005 A 
ATOM     31  C   UNL     1      21.935   8.026  21.455  0.00  0.00    +0.113 A 
ATOM     32  C   UNL     1      22.013   6.818  22.129  0.00  0.00    +0.020 A 
ENDBRANCH  14   5
ENDBRANCH  12  14
ENDBRANCH   8  12
BRANCH   9  15
ATOM     15  C   UNL     1      11.928  11.601  24.040  0.00  0.00    +0.124 C 
BRANCH  15  21
ATOM      3  O   UNL     1      10.205  13.320  24.183  0.00  0.00    -0.251 OA
ATOM     21  C   UNL     1      10.837  12.405  24.691  0.00  0.00    +0.305 C 
BRANCH  21   2
ATOM      2  O   UNL     1      10.639  11.965  25.960  0.00  0.00    -0.481 OA
ATOM     33  H   UNL     1       9.822  12.338  26.354  0.00  0.00    +0.295 HD
ENDBRANCH  21   2
ENDBRANCH  15  21
ENDBRANCH   9  15
TORSDOF 7
ENDMDL
MODEL 4
REMARK VINA RESULT:      -6.7     24.109     27.816
REMARK  Name = 28960045
REMARK  7 active torsions:
REMARK  status: ('A' for Active; 'I' for Inactive)
REMARK    1  A    between atoms: O_2  and  C_21
REMARK    2  A    between atoms: N_5  and  C_14
REMARK    3  A    between atoms: C_8  and  C_12
REMARK    4  A    between atoms: C_9  and  C_15
REMARK    5  A    between atoms: C_12  and  C_14
REMARK    6  A    between atoms: C_15  and  C_21
REMARK    7  A    between atoms: C_18  and  C_22
REMARK                            x       y       z     vdW  Elec       q    Type
REMARK                         _______ _______ _______ _____ _____    ______ ____
ROOT
ATOM      1  O   UNL     1      12.096   2.097  -2.218  0.00  0.00    -0.270 OA
ATOM      4  N   UNL     1      11.635   4.384  -2.386  0.00  0.00    -0.297 N 
ATOM      8  C   UNL     1      10.497   6.417  -1.520  0.00  0.00    +0.011 C 
ATOM      9  C   UNL     1       9.465   6.280  -2.669  0.00  0.00    +0.006 C 
ATOM     10  C   UNL     1      11.831   5.770  -1.935  0.00  0.00    +0.112 C 
ATOM     11  C   UNL     1       9.330   4.821  -3.138  0.00  0.00    +0.023 C 
ATOM     13  C   UNL     1      10.691   4.226  -3.490  0.00  0.00    +0.108 C 
ATOM     18  C   UNL     1      12.261   3.258  -1.848  0.00  0.00    +0.247 C 
ENDROOT
BRANCH  18  22
ATOM     22  C   UNL     1      13.203   3.455  -0.740  0.00  0.00    +0.037 A 
ATOM     24  C   UNL     1      14.501   3.899  -0.998  0.00  0.00    +0.013 A 
ATOM     25  C   UNL     1      12.801   3.199   0.570  0.00  0.00    +0.013 A 
ATOM     27  C   UNL     1      15.396   4.086   0.056  0.00  0.00    +0.001 A 
ATOM     28  C   UNL     1      13.696   3.387   1.624  0.00  0.00    +0.001 A 
ATOM     30  C   UNL     1      14.993   3.831   1.366  0.00  0.00    +0.000 A 
ENDBRANCH  18  22
BRANCH   8  12
ATOM     12  C   UNL     1      10.018   5.841  -0.182  0.00  0.00    +0.020 C 
BRANCH  12  14
ATOM     14  C   UNL     1      10.307   6.807   0.958  0.00  0.00    +0.085 C 
BRANCH  14   5
ATOM      5  N   UNL     1       9.903   6.209   2.230  0.00  0.00    -0.299 NA
ATOM      6  N   UNL     1       9.795   5.952   5.073  0.00  0.00    -0.313 N 
ATOM      7  N   UNL     1       9.815   4.445   6.900  0.00  0.00    -0.240 NA
ATOM     16  C   UNL     1       9.147   7.176   3.036  0.00  0.00    +0.103 C 
ATOM     17  C   UNL     1      11.078   5.746   2.979  0.00  0.00    +0.103 C 
ATOM     19  C   UNL     1       8.669   6.545   4.346  0.00  0.00    +0.122 C 
ATOM     20  C   UNL     1      10.664   5.067   4.286  0.00  0.00    +0.122 C 
ATOM     23  C   UNL     1       9.686   5.713   6.448  0.00  0.00    +0.121 A 
ATOM     26  C   UNL     1       9.449   6.807   7.264  0.00  0.00    +0.043 A 
ATOM     29  C   UNL     1       9.337   6.586   8.632  0.00  0.00    +0.005 A 
ATOM     31  C   UNL     1       9.701   4.270   8.235  0.00  0.00    +0.113 A 
ATOM     32  C   UNL     1       9.465   5.296   9.135  0.00  0.00    +0.020 A 
ENDBRANCH  14   5
ENDBRANCH  12  14
ENDBRANCH   8  12
BRANCH   9  15
ATOM     15  C   UNL     1       8.095   6.861  -2.318  0.00  0.00    +0.124 C 
BRANCH  15  21
ATOM      3  O   UNL     1       8.054   8.936  -1.038  0.00  0.00    -0.251 OA
ATOM     21  C   UNL     1       8.162   8.349  -2.104  0.00  0.00    +0.305 C 
BRANCH  21   2
ATOM      2  O   UNL     1       8.366   8.973  -3.293  0.00  0.00    -0.481 OA
ATOM     33  H   UNL     1       7.521   9.226  -3.723  0.00  0.00    +0.295 HD
ENDBRANCH  21   2
ENDBRANCH  15  21
ENDBRANCH   9  15
TORSDOF 7
ENDMDL
MODEL 5
REMARK VINA RESULT:      -6.4      3.231      5.512
REMARK  Name = 28960045
REMARK  7 active torsions:
REMARK  status: ('A' for Active; 'I' for Inactive)
REMARK    1  A    between atoms: O_2  and  C_21
REMARK    2  A    between atoms: N_5  and  C_14
REMARK    3  A    between atoms: C_8  and  C_12
REMARK    4  A    between atoms: C_9  and  C_15
REMARK    5  A    between atoms: C_12  and  C_14
REMARK    6  A    between atoms: C_15  and  C_21
REMARK    7  A    between atoms: C_18  and  C_22
REMARK                            x       y       z     vdW  Elec       q    Type
REMARK                         _______ _______ _______ _____ _____    ______ ____
ROOT
ATOM      1  O   UNL     1      -0.980  -9.713  12.329  0.00  0.00    -0.270 OA
ATOM      4  N   UNL     1      -2.354 -11.132  13.583  0.00  0.00    -0.297 N 
ATOM      8  C   UNL     1      -4.441 -11.510  14.878  0.00  0.00    +0.011 C 
ATOM      9  C   UNL     1      -3.603 -11.422  16.179  0.00  0.00    +0.006 C 
ATOM     10  C   UNL     1      -3.551 -11.976  13.712  0.00  0.00    +0.112 C 
ATOM     11  C   UNL     1      -2.339 -10.568  15.982  0.00  0.00    +0.023 C 
ATOM     13  C   UNL     1      -1.525 -11.054  14.785  0.00  0.00    +0.108 C 
ATOM     18  C   UNL     1      -1.976 -10.425  12.439  0.00  0.00    +0.247 C 
ENDROOT
BRANCH  18  22
ATOM     22  C   UNL     1      -2.832 -10.527  11.252  0.00  0.00    +0.037 A 
ATOM     24  C   UNL     1      -3.168  -9.379  10.532  0.00  0.00    +0.013 A 
ATOM     25  C   UNL     1      -3.311 -11.772  10.843  0.00  0.00    +0.013 A 
ATOM     27  C   UNL     1      -3.982  -9.478   9.403  0.00  0.00    +0.001 A 
ATOM     28  C   UNL     1      -4.124 -11.870   9.714  0.00  0.00    +0.001 A 
ATOM     30  C   UNL     1      -4.460 -10.723   8.994  0.00  0.00    +0.000 A 
ENDBRANCH  18  22
BRANCH   8  12
ATOM     12  C   UNL     1      -5.161 -10.206  14.512  0.00  0.00    +0.020 C 
BRANCH  12  14
ATOM     14  C   UNL     1      -6.667 -10.358  14.663  0.00  0.00    +0.085 C 
BRANCH  14   5
ATOM      5  N   UNL     1      -7.326 -10.060  13.391  0.00  0.00    -0.299 NA
ATOM      6  N   UNL     1      -7.746 -10.223  10.571  0.00  0.00    -0.313 N 
ATOM      7  N   UNL     1      -8.289  -9.021   8.604  0.00  0.00    -0.240 NA
ATOM     16  C   UNL     1      -7.863 -11.287  12.790  0.00  0.00    +0.103 C 
ATOM     17  C   UNL     1      -6.388  -9.417  12.463  0.00  0.00    +0.103 C 
ATOM     19  C   UNL     1      -8.604 -10.980  11.486  0.00  0.00    +0.122 C 
ATOM     20  C   UNL     1      -7.080  -9.048  11.149  0.00  0.00    +0.122 C 
ATOM     23  C   UNL     1      -8.034 -10.207   9.201  0.00  0.00    +0.121 A 
ATOM     26  C   UNL     1      -8.039 -11.425   8.540  0.00  0.00    +0.043 A 
ATOM     29  C   UNL     1      -8.325 -11.426   7.180  0.00  0.00    +0.005 A 
ATOM     31  C   UNL     1      -8.561  -9.061   7.281  0.00  0.00    +0.113 A 
ATOM     32  C   UNL     1      -8.591 -10.225   6.530  0.00  0.00    +0.020 A 
ENDBRANCH  14   5
ENDBRANCH  12  14
ENDBRANCH   8  12
BRANCH   9  15
ATOM     15  C   UNL     1      -4.408 -10.923  17.379  0.00  0.00    +0.124 C 
BRANCH  15  21
ATOM      3  O   UNL     1      -5.465 -12.626  18.767  0.00  0.00    -0.251 OA
ATOM     21  C   UNL     1      -4.486 -11.960  18.466  0.00  0.00    +0.305 C 
BRANCH  21   2
ATOM      2  O   UNL     1      -3.283 -12.062  19.087  0.00  0.00    -0.481 OA
ATOM     33  H   UNL     1      -3.212 -12.886  19.614  0.00  0.00    +0.295 HD
ENDBRANCH  21   2
ENDBRANCH  15  21
ENDBRANCH   9  15
TORSDOF 7
ENDMDL
MODEL 6
REMARK VINA RESULT:      -6.4     27.541     30.898
REMARK  Name = 28960045
REMARK  7 active torsions:
REMARK  status: ('A' for Active; 'I' for Inactive)
REMARK    1  A    between atoms: O_2  and  C_21
REMARK    2  A    between atoms: N_5  and  C_14
REMARK    3  A    between atoms: C_8  and  C_12
REMARK    4  A    between atoms: C_9  and  C_15
REMARK    5  A    between atoms: C_12  and  C_14
REMARK    6  A    between atoms: C_15  and  C_21
REMARK    7  A    between atoms: C_18  and  C_22
REMARK                            x       y       z     vdW  Elec       q    Type
REMARK                         _______ _______ _______ _____ _____    ______ ____
ROOT
ATOM      1  O   UNL     1      10.653   8.460  19.975  0.00  0.00    -0.270 OA
ATOM      4  N   UNL     1      12.093  10.182  20.632  0.00  0.00    -0.297 N 
ATOM      8  C   UNL     1      14.209  10.923  21.704  0.00  0.00    +0.011 C 
ATOM      9  C   UNL     1      13.387  11.343  22.949  0.00  0.00    +0.006 C 
ATOM     10  C   UNL     1      13.321  10.970  20.448  0.00  0.00    +0.112 C 
ATOM     11  C   UNL     1      12.091  10.523  23.073  0.00  0.00    +0.023 C 
ATOM     13  C   UNL     1      11.278  10.575  21.781  0.00  0.00    +0.108 C 
ATOM     18  C   UNL     1      11.675   9.125  19.821  0.00  0.00    +0.247 C 
ENDROOT
BRANCH  18  22
ATOM     22  C   UNL     1      12.519   8.759  18.677  0.00  0.00    +0.037 A 
ATOM     24  C   UNL     1      13.392   7.675  18.772  0.00  0.00    +0.013 A 
ATOM     25  C   UNL     1      12.447   9.496  17.495  0.00  0.00    +0.013 A 
ATOM     27  C   UNL     1      14.193   7.329  17.683  0.00  0.00    +0.001 A 
ATOM     28  C   UNL     1      13.247   9.149  16.407  0.00  0.00    +0.001 A 
ATOM     30  C   UNL     1      14.121   8.065  16.501  0.00  0.00    +0.000 A 
ENDBRANCH  18  22
BRANCH   8  12
ATOM     12  C   UNL     1      14.878   9.548  21.833  0.00  0.00    +0.020 C 
BRANCH  12  14
ATOM     14  C   UNL     1      15.806   9.284  20.657  0.00  0.00    +0.085 C 
BRANCH  14   5
ATOM      5  N   UNL     1      16.894   8.399  21.073  0.00  0.00    -0.299 NA
ATOM      6  N   UNL     1      19.424   7.093  20.845  0.00  0.00    -0.313 N 
ATOM      7  N   UNL     1      20.614   5.071  21.163  0.00  0.00    -0.240 NA
ATOM     16  C   UNL     1      18.139   9.158  21.240  0.00  0.00    +0.103 C 
ATOM     17  C   UNL     1      17.091   7.328  20.089  0.00  0.00    +0.103 C 
ATOM     19  C   UNL     1      19.273   8.252  21.730  0.00  0.00    +0.122 C 
ATOM     20  C   UNL     1      18.188   6.361  20.540  0.00  0.00    +0.122 C 
ATOM     23  C   UNL     1      20.630   6.382  20.833  0.00  0.00    +0.121 A 
ATOM     26  C   UNL     1      21.774   7.079  20.480  0.00  0.00    +0.043 A 
ATOM     29  C   UNL     1      22.978   6.387  20.464  0.00  0.00    +0.005 A 
ATOM     31  C   UNL     1      21.804   4.431  21.136  0.00  0.00    +0.113 A 
ATOM     32  C   UNL     1      23.003   5.036  20.796  0.00  0.00    +0.020 A 
ENDBRANCH  14   5
ENDBRANCH  12  14
ENDBRANCH   8  12
BRANCH   9  15
ATOM     15  C   UNL     1      14.189  11.280  24.248  0.00  0.00    +0.124 C 
BRANCH  15  21
ATOM      3  O   UNL     1      12.884  12.204  26.089  0.00  0.00    -0.251 OA
ATOM     21  C   UNL     1      13.742  12.330  25.228  0.00  0.00    +0.305 C 
BRANCH  21   2
ATOM      2  O   UNL     1      14.443  13.475  25.022  0.00  0.00    -0.481 OA
ATOM     33  H   UNL     1      14.857  13.495  24.133  0.00  0.00    +0.295 HD
ENDBRANCH  21   2
ENDBRANCH  15  21
ENDBRANCH   9  15
TORSDOF 7
ENDMDL
MODEL 7
REMARK VINA RESULT:      -6.4      2.538      8.289
REMARK  Name = 28960045
REMARK  7 active torsions:
REMARK  status: ('A' for Active; 'I' for Inactive)
REMARK    1  A    between atoms: O_2  and  C_21
REMARK    2  A    between atoms: N_5  and  C_14
REMARK    3  A    between atoms: C_8  and  C_12
REMARK    4  A    between atoms: C_9  and  C_15
REMARK    5  A    between atoms: C_12  and  C_14
REMARK    6  A    between atoms: C_15  and  C_21
REMARK    7  A    between atoms: C_18  and  C_22
REMARK                            x       y       z     vdW  Elec       q    Type
REMARK                         _______ _______ _______ _____ _____    ______ ____
ROOT
ATOM      1  O   UNL     1      -8.820 -10.982  18.626  0.00  0.00    -0.270 OA
ATOM      4  N   UNL     1      -6.889 -10.079  17.663  0.00  0.00    -0.297 N 
ATOM      8  C   UNL     1      -5.284  -9.962  15.770  0.00  0.00    +0.011 C 
ATOM      9  C   UNL     1      -4.287 -10.797  16.614  0.00  0.00    +0.006 C 
ATOM     10  C   UNL     1      -6.234  -9.184  16.698  0.00  0.00    +0.112 C 
ATOM     11  C   UNL     1      -5.017 -11.681  17.640  0.00  0.00    +0.023 C 
ATOM     13  C   UNL     1      -5.975 -10.857  18.497  0.00  0.00    +0.108 C 
ATOM     18  C   UNL     1      -8.268 -10.231  17.824  0.00  0.00    +0.247 C 
ENDROOT
BRANCH  18  22
ATOM     22  C   UNL     1      -9.155  -9.433  16.970  0.00  0.00    +0.037 A 
ATOM     24  C   UNL     1      -9.523  -9.908  15.710  0.00  0.00    +0.013 A 
ATOM     25  C   UNL     1      -9.627  -8.200  17.416  0.00  0.00    +0.013 A 
ATOM     27  C   UNL     1     -10.366  -9.148  14.898  0.00  0.00    +0.001 A 
ATOM     28  C   UNL     1     -10.471  -7.441  16.605  0.00  0.00    +0.001 A 
ATOM     30  C   UNL     1     -10.840  -7.915  15.346  0.00  0.00    +0.000 A 
ENDBRANCH  18  22
BRANCH   8  12
ATOM     12  C   UNL     1      -6.086 -10.789  14.757  0.00  0.00    +0.020 C 
BRANCH  12  14
ATOM     14  C   UNL     1      -6.481  -9.940  13.557  0.00  0.00    +0.085 C 
BRANCH  14   5
ATOM      5  N   UNL     1      -5.721 -10.359  12.380  0.00  0.00    -0.299 NA
ATOM      6  N   UNL     1      -5.325 -11.005   9.626  0.00  0.00    -0.313 N 
ATOM      7  N   UNL     1      -4.273 -12.475   8.096  0.00  0.00    -0.240 NA
ATOM     16  C   UNL     1      -5.727  -9.303  11.361  0.00  0.00    +0.103 C 
ATOM     17  C   UNL     1      -6.279 -11.596  11.820  0.00  0.00    +0.103 C 
ATOM     19  C   UNL     1      -4.887  -9.706  10.146  0.00  0.00    +0.122 C 
ATOM     20  C   UNL     1      -5.457 -12.077  10.621  0.00  0.00    +0.122 C 
ATOM     23  C   UNL     1      -5.016 -11.365   8.309  0.00  0.00    +0.121 A 
ATOM     26  C   UNL     1      -5.499 -10.550   7.299  0.00  0.00    +0.043 A 
ATOM     29  C   UNL     1      -5.200 -10.894   5.986  0.00  0.00    +0.005 A 
ATOM     31  C   UNL     1      -4.003 -12.778   6.807  0.00  0.00    +0.113 A 
ATOM     32  C   UNL     1      -4.439 -12.029   5.726  0.00  0.00    +0.020 A 
ENDBRANCH  14   5
ENDBRANCH  12  14
ENDBRANCH   8  12
BRANCH   9  15
ATOM     15  C   UNL     1      -3.334 -11.637  15.763  0.00  0.00    +0.124 C 
BRANCH  15  21
ATOM      3  O   UNL     1      -1.589 -10.425  14.568  0.00  0.00    -0.251 OA
ATOM     21  C   UNL     1      -2.004 -10.957  15.586  0.00  0.00    +0.305 C 
BRANCH  21   2
ATOM      2  O   UNL     1      -1.303 -11.014  16.748  0.00  0.00    -0.481 OA
ATOM     33  H   UNL     1      -1.491 -10.245  17.326  0.00  0.00    +0.295 HD
ENDBRANCH  21   2
ENDBRANCH  15  21
ENDBRANCH   9  15
TORSDOF 7
ENDMDL
MODEL 8
REMARK VINA RESULT:      -6.4      3.115      7.295
REMARK  Name = 28960045
REMARK  7 active torsions:
REMARK  status: ('A' for Active; 'I' for Inactive)
REMARK    1  A    between atoms: O_2  and  C_21
REMARK    2  A    between atoms: N_5  and  C_14
REMARK    3  A    between atoms: C_8  and  C_12
REMARK    4  A    between atoms: C_9  and  C_15
REMARK    5  A    between atoms: C_12  and  C_14
REMARK    6  A    between atoms: C_15  and  C_21
REMARK    7  A    between atoms: C_18  and  C_22
REMARK                            x       y       z     vdW  Elec       q    Type
REMARK                         _______ _______ _______ _____ _____    ______ ____
ROOT
ATOM      1  O   UNL     1      -8.843 -11.729  17.791  0.00  0.00    -0.270 OA
ATOM      4  N   UNL     1      -6.837 -10.626  17.305  0.00  0.00    -0.297 N 
ATOM      8  C   UNL     1      -5.058 -10.016  15.682  0.00  0.00    +0.011 C 
ATOM      9  C   UNL     1      -4.139 -11.068  16.353  0.00  0.00    +0.006 C 
ATOM     10  C   UNL     1      -6.102  -9.510  16.693  0.00  0.00    +0.112 C 
ATOM     11  C   UNL     1      -4.955 -12.190  17.019  0.00  0.00    +0.023 C 
ATOM     13  C   UNL     1      -6.000 -11.620  17.975  0.00  0.00    +0.108 C 
ATOM     18  C   UNL     1      -8.224 -10.794  17.285  0.00  0.00    +0.247 C 
ENDROOT
BRANCH  18  22
ATOM     22  C   UNL     1      -9.033  -9.777  16.604  0.00  0.00    +0.037 A 
ATOM     24  C   UNL     1      -9.469  -8.650  17.302  0.00  0.00    +0.013 A 
ATOM     25  C   UNL     1      -9.366  -9.937  15.260  0.00  0.00    +0.013 A 
ATOM     27  C   UNL     1     -10.237  -7.683  16.654  0.00  0.00    +0.001 A 
ATOM     28  C   UNL     1     -10.133  -8.970  14.612  0.00  0.00    +0.001 A 
ATOM     30  C   UNL     1     -10.569  -7.842  15.309  0.00  0.00    +0.000 A 
ENDBRANCH  18  22
BRANCH   8  12
ATOM     12  C   UNL     1      -5.750 -10.517  14.407  0.00  0.00    +0.020 C 
BRANCH  12  14
ATOM     14  C   UNL     1      -4.955 -10.126  13.170  0.00  0.00    +0.085 C 
BRANCH  14   5
ATOM      5  N   UNL     1      -5.845 -10.045  12.012  0.00  0.00    -0.299 NA
ATOM      6  N   UNL     1      -7.432  -8.738  10.030  0.00  0.00    -0.313 N 
ATOM      7  N   UNL     1      -9.460  -8.786   8.808  0.00  0.00    -0.240 NA
ATOM     16  C   UNL     1      -5.206  -9.298  10.922  0.00  0.00    +0.103 C 
ATOM     17  C   UNL     1      -7.113  -9.404  12.381  0.00  0.00    +0.103 C 
ATOM     19  C   UNL     1      -6.105  -9.254   9.684  0.00  0.00    +0.122 C 
ATOM     20  C   UNL     1      -8.076  -9.364  11.192  0.00  0.00    +0.122 C 
ATOM     23  C   UNL     1      -8.255  -8.212   9.028  0.00  0.00    +0.121 A 
ATOM     26  C   UNL     1      -7.774  -7.123   8.318  0.00  0.00    +0.043 A 
ATOM     29  C   UNL     1      -8.580  -6.590   7.319  0.00  0.00    +0.005 A 
ATOM     31  C   UNL     1     -10.215  -8.240   7.829  0.00  0.00    +0.113 A 
ATOM     32  C   UNL     1      -9.826  -7.153   7.064  0.00  0.00    +0.020 A 
ENDBRANCH  14   5
ENDBRANCH  12  14
ENDBRANCH   8  12
BRANCH   9  15
ATOM     15  C   UNL     1      -3.099 -11.655  15.398  0.00  0.00    +0.124 C 
BRANCH  15  21
ATOM      3  O   UNL     1      -1.530 -10.057  14.434  0.00  0.00    -0.251 OA
ATOM     21  C   UNL     1      -1.858 -10.807  15.341  0.00  0.00    +0.305 C 
BRANCH  21   2
ATOM      2  O   UNL     1      -1.127 -10.991  16.470  0.00  0.00    -0.481 OA
ATOM     33  H   UNL     1      -1.669 -10.876  17.280  0.00  0.00    +0.295 HD
ENDBRANCH  21   2
ENDBRANCH  15  21
ENDBRANCH   9  15
TORSDOF 7
ENDMDL
MODEL 9
REMARK VINA RESULT:      -6.3      4.555      7.598
REMARK  Name = 28960045
REMARK  7 active torsions:
REMARK  status: ('A' for Active; 'I' for Inactive)
REMARK    1  A    between atoms: O_2  and  C_21
REMARK    2  A    between atoms: N_5  and  C_14
REMARK    3  A    between atoms: C_8  and  C_12
REMARK    4  A    between atoms: C_9  and  C_15
REMARK    5  A    between atoms: C_12  and  C_14
REMARK    6  A    between atoms: C_15  and  C_21
REMARK    7  A    between atoms: C_18  and  C_22
REMARK                            x       y       z     vdW  Elec       q    Type
REMARK                         _______ _______ _______ _____ _____    ______ ____
ROOT
ATOM      1  O   UNL     1      -6.672 -11.430  20.418  0.00  0.00    -0.270 OA
ATOM      4  N   UNL     1      -8.535 -11.595  19.012  0.00  0.00    -0.297 N 
ATOM      8  C   UNL     1     -10.214 -10.515  17.532  0.00  0.00    +0.011 C 
ATOM      9  C   UNL     1     -11.253 -10.657  18.673  0.00  0.00    +0.006 C 
ATOM     10  C   UNL     1      -9.133 -11.603  17.669  0.00  0.00    +0.112 C 
ATOM     11  C   UNL     1     -10.577 -10.692  20.054  0.00  0.00    +0.023 C 
ATOM     13  C   UNL     1      -9.487 -11.759  20.109  0.00  0.00    +0.108 C 
ATOM     18  C   UNL     1      -7.176 -11.442  19.296  0.00  0.00    +0.247 C 
ENDROOT
BRANCH  18  22
ATOM     22  C   UNL     1      -6.250 -11.280  18.169  0.00  0.00    +0.037 A 
ATOM     24  C   UNL     1      -5.481 -12.361  17.736  0.00  0.00    +0.013 A 
ATOM     25  C   UNL     1      -6.138 -10.045  17.532  0.00  0.00    +0.013 A 
ATOM     27  C   UNL     1      -4.601 -12.206  16.665  0.00  0.00    +0.001 A 
ATOM     28  C   UNL     1      -5.258  -9.890  16.461  0.00  0.00    +0.001 A 
ATOM     30  C   UNL     1      -4.490 -10.971  16.027  0.00  0.00    +0.000 A 
ENDBRANCH  18  22
BRANCH   8  12
ATOM     12  C   UNL     1      -9.566  -9.127  17.449  0.00  0.00    +0.020 C 
BRANCH  12  14
ATOM     14  C   UNL     1      -9.367  -8.707  16.000  0.00  0.00    +0.085 C 
BRANCH  14   5
ATOM      5  N   UNL     1     -10.555  -8.003  15.519  0.00  0.00    -0.299 NA
ATOM      6  N   UNL     1     -12.037  -6.248  13.821  0.00  0.00    -0.313 N 
ATOM      7  N   UNL     1     -13.715  -4.581  13.724  0.00  0.00    -0.240 NA
ATOM     16  C   UNL     1     -10.857  -8.388  14.136  0.00  0.00    +0.103 C 
ATOM     17  C   UNL     1     -10.361  -6.550  15.603  0.00  0.00    +0.103 C 
ATOM     19  C   UNL     1     -12.131  -7.699  13.639  0.00  0.00    +0.122 C 
ATOM     20  C   UNL     1     -11.618  -5.801  15.156  0.00  0.00    +0.122 C 
ATOM     23  C   UNL     1     -12.859  -5.399  13.071  0.00  0.00    +0.121 A 
ATOM     26  C   UNL     1     -12.739  -5.456  11.692  0.00  0.00    +0.043 A 
ATOM     29  C   UNL     1     -13.550  -4.620  10.934  0.00  0.00    +0.005 A 
ATOM     31  C   UNL     1     -14.487  -3.782  12.953  0.00  0.00    +0.113 A 
ATOM     32  C   UNL     1     -14.443  -3.763  11.568  0.00  0.00    +0.020 A 
ENDBRANCH  14   5
ENDBRANCH  12  14
ENDBRANCH   8  12
BRANCH   9  15
ATOM     15  C   UNL     1     -12.340  -9.583  18.633  0.00  0.00    +0.124 C 
BRANCH  15  21
ATOM      3  O   UNL     1     -13.708 -10.721  16.967  0.00  0.00    -0.251 OA
ATOM     21  C   UNL     1     -13.192  -9.701  17.399  0.00  0.00    +0.305 C 
BRANCH  21   2
ATOM      2  O   UNL     1     -13.317  -8.484  16.811  0.00  0.00    -0.481 OA
ATOM     33  H   UNL     1     -14.250  -8.279  16.590  0.00  0.00    +0.295 HD
ENDBRANCH  21   2
ENDBRANCH  15  21
ENDBRANCH   9  15
TORSDOF 7
ENDMDL
MODEL 10
REMARK VINA RESULT:      -6.3      2.778      8.047
REMARK  Name = 28960045
REMARK  7 active torsions:
REMARK  status: ('A' for Active; 'I' for Inactive)
REMARK    1  A    between atoms: O_2  and  C_21
REMARK    2  A    between atoms: N_5  and  C_14
REMARK    3  A    between atoms: C_8  and  C_12
REMARK    4  A    between atoms: C_9  and  C_15
REMARK    5  A    between atoms: C_12  and  C_14
REMARK    6  A    between atoms: C_15  and  C_21
REMARK    7  A    between atoms: C_18  and  C_22
REMARK                            x       y       z     vdW  Elec       q    Type
REMARK                         _______ _______ _______ _____ _____    ______ ____
ROOT
ATOM      1  O   UNL     1     -10.873 -11.087  18.141  0.00  0.00    -0.270 OA
ATOM      4  N   UNL     1      -8.719 -10.172  18.164  0.00  0.00    -0.297 N 
ATOM      8  C   UNL     1      -6.471  -9.942  17.132  0.00  0.00    +0.011 C 
ATOM      9  C   UNL     1      -5.915 -10.889  18.226  0.00  0.00    +0.006 C 
ATOM     10  C   UNL     1      -7.725  -9.218  17.653  0.00  0.00    +0.112 C 
ATOM     11  C   UNL     1      -7.003 -11.836  18.761  0.00  0.00    +0.023 C 
ATOM     13  C   UNL     1      -8.234 -11.059  19.220  0.00  0.00    +0.108 C 
ATOM     18  C   UNL     1     -10.039 -10.286  17.721  0.00  0.00    +0.247 C 
ENDROOT
BRANCH  18  22
ATOM     22  C   UNL     1     -10.491  -9.379  16.659  0.00  0.00    +0.037 A 
ATOM     24  C   UNL     1     -10.397  -9.768  15.322  0.00  0.00    +0.013 A 
ATOM     25  C   UNL     1     -11.014  -8.129  16.988  0.00  0.00    +0.013 A 
ATOM     27  C   UNL     1     -10.827  -8.905  14.314  0.00  0.00    +0.001 A 
ATOM     28  C   UNL     1     -11.445  -7.267  15.979  0.00  0.00    +0.001 A 
ATOM     30  C   UNL     1     -11.351  -7.655  14.642  0.00  0.00    +0.000 A 
ENDBRANCH  18  22
BRANCH   8  12
ATOM     12  C   UNL     1      -6.773 -10.640  15.799  0.00  0.00    +0.020 C 
BRANCH  12  14
ATOM     14  C   UNL     1      -5.927 -10.057  14.677  0.00  0.00    +0.085 C 
BRANCH  14   5
ATOM      5  N   UNL     1      -5.049 -11.090  14.129  0.00  0.00    -0.299 NA
ATOM      6  N   UNL     1      -3.317 -13.360  14.223  0.00  0.00    -0.313 N 
ATOM      7  N   UNL     1      -1.333 -14.338  13.380  0.00  0.00    -0.240 NA
ATOM     16  C   UNL     1      -5.590 -12.426  14.407  0.00  0.00    +0.103 C 
ATOM     17  C   UNL     1      -3.699 -10.970  14.692  0.00  0.00    +0.103 C 
ATOM     19  C   UNL     1      -4.709 -13.515  13.790  0.00  0.00    +0.122 C 
ATOM     20  C   UNL     1      -2.755 -12.010  14.083  0.00  0.00    +0.122 C 
ATOM     23  C   UNL     1      -2.441 -14.448  14.148  0.00  0.00    +0.121 A 
ATOM     26  C   UNL     1      -2.772 -15.581  14.874  0.00  0.00    +0.043 A 
ATOM     29  C   UNL     1      -1.912 -16.670  14.808  0.00  0.00    +0.005 A 
ATOM     31  C   UNL     1      -0.520 -15.418  13.342  0.00  0.00    +0.113 A 
ATOM     32  C   UNL     1      -0.761 -16.595  14.030  0.00  0.00    +0.020 A 
ENDBRANCH  14   5
ENDBRANCH  12  14
ENDBRANCH   8  12
BRANCH   9  15
ATOM     15  C   UNL     1      -4.690 -11.681  17.768  0.00  0.00    +0.124 C 
BRANCH  15  21
ATOM      3  O   UNL     1      -3.672 -12.023  19.957  0.00  0.00    -0.251 OA
ATOM     21  C   UNL     1      -4.086 -12.470  18.898  0.00  0.00    +0.305 C 
BRANCH  21   2
ATOM      2  O   UNL     1      -4.063 -13.788  18.574  0.00  0.00    -0.481 OA
ATOM     33  H   UNL     1      -4.962 -14.181  18.577  0.00  0.00    +0.295 HD
ENDBRANCH  21   2
ENDBRANCH  15  21
ENDBRANCH   9  15
TORSDOF 7
ENDMDL
