MODEL 1
REMARK VINA RESULT:      -7.3      0.000      0.000
REMARK  Name = 11883036
REMARK  10 active torsions:
REMARK  status: ('A' for Active; 'I' for Inactive)
REMARK    1  A    between atoms: O_4  and  C_16
REMARK    2  A    between atoms: O_5  and  C_21
REMARK    3  A    between atoms: N_9  and  C_27
REMARK    4  A    between atoms: C_11  and  C_19
REMARK    5  A    between atoms: C_13  and  C_21
REMARK    6  A    between atoms: C_13  and  C_22
REMARK    7  A    between atoms: C_14  and  C_24
REMARK    8  A    between atoms: C_24  and  C_25
REMARK    9  A    between atoms: C_27  and  C_29
REMARK   10  A    between atoms: C_28  and  C_30
REMARK                            x       y       z     vdW  Elec       q    Type
REMARK                         _______ _______ _______ _____ _____    ______ ____
ROOT
ATOM      1  S   UNL     1      15.393   8.061   6.213  0.00  0.00    -0.057 S 
ATOM      7  O   UNL     1      12.454   6.787   2.836  0.00  0.00    -0.270 OA
ATOM      8  N   UNL     1      15.179   7.563   3.683  0.00  0.00    -0.229 NA
ATOM     10  N   UNL     1      13.178   7.341   5.009  0.00  0.00    -0.261 N 
ATOM     11  C   UNL     1      18.825   8.747   3.274  0.00  0.00    -0.019 C 
ATOM     12  C   UNL     1      19.230   8.258   4.734  0.00  0.00    +0.011 C 
ATOM     13  C   UNL     1      20.690   8.600   5.224  0.00  0.00    +0.021 C 
ATOM     14  C   UNL     1      17.522   7.938   2.827  0.00  0.00    +0.054 C 
ATOM     15  C   UNL     1      19.970   8.414   2.282  0.00  0.00    +0.010 C 
ATOM     16  C   UNL     1      21.705   8.250   4.098  0.00  0.00    +0.123 C 
ATOM     17  C   UNL     1      18.124   8.598   5.775  0.00  0.00    +0.049 C 
ATOM     18  C   UNL     1      21.345   8.870   2.752  0.00  0.00    +0.032 C 
ATOM     19  C   UNL     1      18.536  10.267   3.208  0.00  0.00    +0.012 C 
ATOM     20  C   UNL     1      16.492   7.920   3.928  0.00  0.00    +0.058 A 
ATOM     22  C   UNL     1      21.036   7.708   6.451  0.00  0.00    +0.016 C 
ATOM     23  C   UNL     1      16.788   8.201   5.246  0.00  0.00    +0.015 A 
ATOM     26  C   UNL     1      14.506   7.611   4.813  0.00  0.00    +0.165 A 
ATOM     28  C   UNL     1      12.246   6.952   4.033  0.00  0.00    +0.255 C 
ATOM     44  H   UNL     1      12.866   7.452   5.969  0.00  0.00    +0.157 HD
ENDROOT
BRANCH  28  30
ATOM      2  F   UNL     1      10.567   9.001   5.004  0.00  0.00    -0.205 F 
ATOM      3  F   UNL     1      11.105   4.372   4.087  0.00  0.00    -0.205 F 
ATOM     30  C   UNL     1      10.871   6.693   4.533  0.00  0.00    +0.107 A 
ATOM     33  C   UNL     1      10.088   7.749   5.001  0.00  0.00    +0.138 A 
ATOM     34  C   UNL     1      10.361   5.394   4.535  0.00  0.00    +0.138 A 
ATOM     38  C   UNL     1       8.797   7.506   5.471  0.00  0.00    +0.039 A 
ATOM     39  C   UNL     1       9.071   5.151   5.004  0.00  0.00    +0.039 A 
ATOM     40  C   UNL     1       8.289   6.207   5.473  0.00  0.00    +0.006 A 
ENDBRANCH  28  30
BRANCH  16   4
ATOM      4  O   UNL     1      23.021   8.666   4.458  0.00  0.00    -0.391 OA
ATOM     41  H   UNL     1      23.370   8.023   5.098  0.00  0.00    +0.210 HD
ENDBRANCH  16   4
BRANCH  13  21
ATOM     21  C   UNL     1      20.881  10.056   5.703  0.00  0.00    +0.165 C 
BRANCH  21   5
ATOM      5  O   UNL     1      21.826  10.046   6.750  0.00  0.00    -0.394 OA
ATOM     42  H   UNL     1      22.663  10.383   6.388  0.00  0.00    +0.209 HD
ENDBRANCH  21   5
ENDBRANCH  13  21
BRANCH  14  24
ATOM     24  C   UNL     1      16.912   8.395   1.495  0.00  0.00    +0.106 C 
BRANCH  24  25
ATOM      6  O   UNL     1      17.640   7.446  -0.608  0.00  0.00    -0.276 OA
ATOM      9  N   UNL     1      16.266   6.203   0.797  0.00  0.00    -0.311 N 
ATOM     25  C   UNL     1      17.001   7.323   0.434  0.00  0.00    +0.214 C 
ATOM     43  H   UNL     1      15.804   6.175   1.700  0.00  0.00    +0.149 HD
BRANCH   9  27
ATOM     27  C   UNL     1      16.168   5.023  -0.031  0.00  0.00    +0.139 C 
BRANCH  27  29
ATOM     29  C   UNL     1      14.884   4.279   0.203  0.00  0.00    -0.030 A 
ATOM     31  C   UNL     1      14.060   3.954  -0.875  0.00  0.00    +0.005 A 
ATOM     32  C   UNL     1      14.515   3.913   1.497  0.00  0.00    +0.005 A 
ATOM     35  C   UNL     1      12.868   3.263  -0.660  0.00  0.00    +0.000 A 
ATOM     36  C   UNL     1      13.323   3.222   1.714  0.00  0.00    +0.000 A 
ATOM     37  C   UNL     1      12.499   2.897   0.636  0.00  0.00    +0.000 A 
ENDBRANCH  27  29
ENDBRANCH   9  27
ENDBRANCH  24  25
ENDBRANCH  14  24
TORSDOF 8
ENDMDL
MODEL 2
REMARK VINA RESULT:      -7.0     17.116     20.902
REMARK  Name = 11883036
REMARK  10 active torsions:
REMARK  status: ('A' for Active; 'I' for Inactive)
REMARK    1  A    between atoms: O_4  and  C_16
REMARK    2  A    between atoms: O_5  and  C_21
REMARK    3  A    between atoms: N_9  and  C_27
REMARK    4  A    between atoms: C_11  and  C_19
REMARK    5  A    between atoms: C_13  and  C_21
REMARK    6  A    between atoms: C_13  and  C_22
REMARK    7  A    between atoms: C_14  and  C_24
REMARK    8  A    between atoms: C_24  and  C_25
REMARK    9  A    between atoms: C_27  and  C_29
REMARK   10  A    between atoms: C_28  and  C_30
REMARK                            x       y       z     vdW  Elec       q    Type
REMARK                         _______ _______ _______ _____ _____    ______ ____
ROOT
ATOM      1  S   UNL     1      18.010   6.449  20.437  0.00  0.00    -0.057 S 
ATOM      7  O   UNL     1      20.664   9.083  23.210  0.00  0.00    -0.270 OA
ATOM      8  N   UNL     1      18.097   8.641  21.808  0.00  0.00    -0.229 NA
ATOM     10  N   UNL     1      20.072   7.260  21.839  0.00  0.00    -0.261 N 
ATOM     11  C   UNL     1      14.652   9.548  20.334  0.00  0.00    -0.019 C 
ATOM     12  C   UNL     1      14.211   8.021  20.222  0.00  0.00    +0.011 C 
ATOM     13  C   UNL     1      12.826   7.725  19.527  0.00  0.00    +0.021 C 
ATOM     14  C   UNL     1      15.815   9.646  21.424  0.00  0.00    +0.054 C 
ATOM     15  C   UNL     1      13.450  10.397  20.824  0.00  0.00    +0.010 C 
ATOM     16  C   UNL     1      11.749   8.691  20.099  0.00  0.00    +0.123 C 
ATOM     17  C   UNL     1      15.376   7.129  19.703  0.00  0.00    +0.049 C 
ATOM     18  C   UNL     1      12.166  10.157  20.043  0.00  0.00    +0.032 C 
ATOM     19  C   UNL     1      15.155  10.128  18.989  0.00  0.00    +0.012 C 
ATOM     20  C   UNL     1      16.854   8.576  21.206  0.00  0.00    +0.058 A 
ATOM     22  C   UNL     1      12.381   6.277  19.878  0.00  0.00    +0.016 C 
ATOM     23  C   UNL     1      16.630   7.447  20.445  0.00  0.00    +0.015 A 
ATOM     26  C   UNL     1      18.793   7.578  21.467  0.00  0.00    +0.165 A 
ATOM     28  C   UNL     1      20.918   8.012  22.671  0.00  0.00    +0.255 C 
ATOM     44  H   UNL     1      20.417   6.389  21.446  0.00  0.00    +0.157 HD
ENDROOT
BRANCH  28  30
ATOM      2  F   UNL     1      23.039   8.143  20.815  0.00  0.00    -0.205 F 
ATOM      3  F   UNL     1      21.532   6.649  25.064  0.00  0.00    -0.205 F 
ATOM     30  C   UNL     1      22.252   7.411  22.933  0.00  0.00    +0.107 A 
ATOM     33  C   UNL     1      23.262   7.509  21.975  0.00  0.00    +0.138 A 
ATOM     34  C   UNL     1      22.495   6.749  24.136  0.00  0.00    +0.138 A 
ATOM     38  C   UNL     1      24.513   6.944  22.220  0.00  0.00    +0.039 A 
ATOM     39  C   UNL     1      23.746   6.185  24.382  0.00  0.00    +0.039 A 
ATOM     40  C   UNL     1      24.756   6.282  23.424  0.00  0.00    +0.006 A 
ENDBRANCH  28  30
BRANCH  16   4
ATOM      4  O   UNL     1      10.514   8.538  19.400  0.00  0.00    -0.391 OA
ATOM     41  H   UNL     1       9.809   8.902  19.962  0.00  0.00    +0.210 HD
ENDBRANCH  16   4
BRANCH  13  21
ATOM     21  C   UNL     1      12.857   7.788  17.985  0.00  0.00    +0.165 C 
BRANCH  21   5
ATOM      5  O   UNL     1      11.825   6.960  17.498  0.00  0.00    -0.394 OA
ATOM     42  H   UNL     1      12.244   6.187  17.081  0.00  0.00    +0.209 HD
ENDBRANCH  21   5
ENDBRANCH  13  21
BRANCH  14  24
ATOM     24  C   UNL     1      16.457  11.034  21.550  0.00  0.00    +0.106 C 
BRANCH  24  25
ATOM      6  O   UNL     1      17.099  12.384  23.452  0.00  0.00    -0.276 OA
ATOM      9  N   UNL     1      15.138  11.140  23.540  0.00  0.00    -0.311 N 
ATOM     25  C   UNL     1      16.297  11.609  22.939  0.00  0.00    +0.214 C 
ATOM     43  H   UNL     1      14.510  10.534  23.020  0.00  0.00    +0.149 HD
BRANCH   9  27
ATOM     27  C   UNL     1      14.731  11.520  24.873  0.00  0.00    +0.139 C 
BRANCH  27  29
ATOM     29  C   UNL     1      13.306  11.995  24.912  0.00  0.00    -0.030 A 
ATOM     31  C   UNL     1      12.347  11.389  24.100  0.00  0.00    +0.005 A 
ATOM     32  C   UNL     1      12.943  13.041  25.759  0.00  0.00    +0.005 A 
ATOM     35  C   UNL     1      11.024  11.829  24.136  0.00  0.00    +0.000 A 
ATOM     36  C   UNL     1      11.619  13.482  25.795  0.00  0.00    +0.000 A 
ATOM     37  C   UNL     1      10.660  12.876  24.984  0.00  0.00    +0.000 A 
ENDBRANCH  27  29
ENDBRANCH   9  27
ENDBRANCH  24  25
ENDBRANCH  14  24
TORSDOF 8
ENDMDL
MODEL 3
REMARK VINA RESULT:      -7.0     16.338     20.165
REMARK  Name = 11883036
REMARK  10 active torsions:
REMARK  status: ('A' for Active; 'I' for Inactive)
REMARK    1  A    between atoms: O_4  and  C_16
REMARK    2  A    between atoms: O_5  and  C_21
REMARK    3  A    between atoms: N_9  and  C_27
REMARK    4  A    between atoms: C_11  and  C_19
REMARK    5  A    between atoms: C_13  and  C_21
REMARK    6  A    between atoms: C_13  and  C_22
REMARK    7  A    between atoms: C_14  and  C_24
REMARK    8  A    between atoms: C_24  and  C_25
REMARK    9  A    between atoms: C_27  and  C_29
REMARK   10  A    between atoms: C_28  and  C_30
REMARK                            x       y       z     vdW  Elec       q    Type
REMARK                         _______ _______ _______ _____ _____    ______ ____
ROOT
ATOM      1  S   UNL     1      17.827   6.149  19.720  0.00  0.00    -0.057 S 
ATOM      7  O   UNL     1      20.834   8.292  22.555  0.00  0.00    -0.270 OA
ATOM      8  N   UNL     1      18.128   8.115  21.375  0.00  0.00    -0.229 NA
ATOM     10  N   UNL     1      20.045   6.702  21.005  0.00  0.00    -0.261 N 
ATOM     11  C   UNL     1      14.589   9.302  20.407  0.00  0.00    -0.019 C 
ATOM     12  C   UNL     1      14.084   7.818  20.124  0.00  0.00    +0.011 C 
ATOM     13  C   UNL     1      12.628   7.656  19.539  0.00  0.00    +0.021 C 
ATOM     14  C   UNL     1      15.857   9.214  21.375  0.00  0.00    +0.054 C 
ATOM     15  C   UNL     1      13.473  10.096  21.134  0.00  0.00    +0.010 C 
ATOM     16  C   UNL     1      11.648   8.551  20.350  0.00  0.00    +0.123 C 
ATOM     17  C   UNL     1      15.160   6.986  19.366  0.00  0.00    +0.049 C 
ATOM     18  C   UNL     1      12.110  10.000  20.462  0.00  0.00    +0.032 C 
ATOM     19  C   UNL     1      14.979  10.061  19.115  0.00  0.00    +0.012 C 
ATOM     20  C   UNL     1      16.830   8.165  20.900  0.00  0.00    +0.058 A 
ATOM     22  C   UNL     1      12.168   6.183  19.723  0.00  0.00    +0.016 C 
ATOM     23  C   UNL     1      16.491   7.165  20.013  0.00  0.00    +0.015 A 
ATOM     26  C   UNL     1      18.748   7.099  20.816  0.00  0.00    +0.165 A 
ATOM     28  C   UNL     1      20.995   7.306  21.845  0.00  0.00    +0.255 C 
ATOM     44  H   UNL     1      20.318   5.890  20.459  0.00  0.00    +0.157 HD
ENDROOT
BRANCH  28  30
ATOM      2  F   UNL     1      21.785   5.584  23.936  0.00  0.00    -0.205 F 
ATOM      3  F   UNL     1      22.933   7.671  19.826  0.00  0.00    -0.205 F 
ATOM     30  C   UNL     1      22.326   6.644  21.880  0.00  0.00    +0.107 A 
ATOM     33  C   UNL     1      22.658   5.803  22.942  0.00  0.00    +0.138 A 
ATOM     34  C   UNL     1      23.242   6.864  20.852  0.00  0.00    +0.138 A 
ATOM     38  C   UNL     1      23.907   5.182  22.977  0.00  0.00    +0.039 A 
ATOM     39  C   UNL     1      24.491   6.244  20.886  0.00  0.00    +0.039 A 
ATOM     40  C   UNL     1      24.823   5.403  21.948  0.00  0.00    +0.006 A 
ENDBRANCH  28  30
BRANCH  16   4
ATOM      4  O   UNL     1      10.346   8.529  19.767  0.00  0.00    -0.391 OA
ATOM     41  H   UNL     1       9.881   9.334  20.052  0.00  0.00    +0.210 HD
ENDBRANCH  16   4
BRANCH  13  21
ATOM     21  C   UNL     1      12.510   7.943  18.026  0.00  0.00    +0.165 C 
BRANCH  21   5
ATOM      5  O   UNL     1      11.677   6.953  17.464  0.00  0.00    -0.394 OA
ATOM     42  H   UNL     1      10.876   7.399  17.139  0.00  0.00    +0.209 HD
ENDBRANCH  21   5
ENDBRANCH  13  21
BRANCH  14  24
ATOM     24  C   UNL     1      16.558  10.555  21.632  0.00  0.00    +0.106 C 
BRANCH  24  25
ATOM      6  O   UNL     1      15.381  11.102  23.674  0.00  0.00    -0.276 OA
ATOM      9  N   UNL     1      15.515  12.678  21.971  0.00  0.00    -0.311 N 
ATOM     25  C   UNL     1      15.759  11.444  22.557  0.00  0.00    +0.214 C 
ATOM     43  H   UNL     1      15.906  12.889  21.057  0.00  0.00    +0.149 HD
BRANCH   9  27
ATOM     27  C   UNL     1      14.770  13.729  22.626  0.00  0.00    +0.139 C 
BRANCH  27  29
ATOM     29  C   UNL     1      13.291  13.591  22.404  0.00  0.00    -0.030 A 
ATOM     31  C   UNL     1      12.746  13.858  21.148  0.00  0.00    +0.005 A 
ATOM     32  C   UNL     1      12.463  13.196  23.454  0.00  0.00    +0.005 A 
ATOM     35  C   UNL     1      11.372  13.730  20.942  0.00  0.00    +0.000 A 
ATOM     36  C   UNL     1      11.089  13.068  23.249  0.00  0.00    +0.000 A 
ATOM     37  C   UNL     1      10.543  13.335  21.993  0.00  0.00    +0.000 A 
ENDBRANCH  27  29
ENDBRANCH   9  27
ENDBRANCH  24  25
ENDBRANCH  14  24
TORSDOF 8
ENDMDL
MODEL 4
REMARK VINA RESULT:      -6.9     14.286     16.924
REMARK  Name = 11883036
REMARK  10 active torsions:
REMARK  status: ('A' for Active; 'I' for Inactive)
REMARK    1  A    between atoms: O_4  and  C_16
REMARK    2  A    between atoms: O_5  and  C_21
REMARK    3  A    between atoms: N_9  and  C_27
REMARK    4  A    between atoms: C_11  and  C_19
REMARK    5  A    between atoms: C_13  and  C_21
REMARK    6  A    between atoms: C_13  and  C_22
REMARK    7  A    between atoms: C_14  and  C_24
REMARK    8  A    between atoms: C_24  and  C_25
REMARK    9  A    between atoms: C_27  and  C_29
REMARK   10  A    between atoms: C_28  and  C_30
REMARK                            x       y       z     vdW  Elec       q    Type
REMARK                         _______ _______ _______ _____ _____    ______ ____
ROOT
ATOM      1  S   UNL     1      21.174  -5.101   0.857  0.00  0.00    -0.057 S 
ATOM      7  O   UNL     1      18.517  -6.217  -2.799  0.00  0.00    -0.270 OA
ATOM      8  N   UNL     1      19.904  -7.026  -0.315  0.00  0.00    -0.229 NA
ATOM     10  N   UNL     1      19.805  -4.860  -1.366  0.00  0.00    -0.261 N 
ATOM     11  C   UNL     1      21.427  -9.437   2.280  0.00  0.00    -0.019 C 
ATOM     12  C   UNL     1      21.469  -8.317   3.412  0.00  0.00    +0.011 C 
ATOM     13  C   UNL     1      22.154  -8.705   4.779  0.00  0.00    +0.021 C 
ATOM     14  C   UNL     1      20.339  -9.000   1.195  0.00  0.00    +0.054 C 
ATOM     15  C   UNL     1      20.979 -10.784   2.906  0.00  0.00    +0.010 C 
ATOM     16  C   UNL     1      21.630 -10.096   5.237  0.00  0.00    +0.123 C 
ATOM     17  C   UNL     1      21.944  -6.949   2.840  0.00  0.00    +0.049 C 
ATOM     18  C   UNL     1      21.752 -11.169   4.160  0.00  0.00    +0.032 C 
ATOM     19  C   UNL     1      22.795  -9.642   1.586  0.00  0.00    +0.012 C 
ATOM     20  C   UNL     1      20.506  -7.551   0.814  0.00  0.00    +0.058 A 
ATOM     22  C   UNL     1      21.738  -7.674   5.866  0.00  0.00    +0.016 C 
ATOM     23  C   UNL     1      21.215  -6.645   1.576  0.00  0.00    +0.015 A 
ATOM     26  C   UNL     1      20.194  -5.746  -0.398  0.00  0.00    +0.165 A 
ATOM     28  C   UNL     1      19.006  -5.137  -2.488  0.00  0.00    +0.255 C 
ATOM     44  H   UNL     1      20.156  -3.915  -1.235  0.00  0.00    +0.157 HD
ENDROOT
BRANCH  28  30
ATOM      2  F   UNL     1      16.544  -3.762  -2.422  0.00  0.00    -0.205 F 
ATOM      3  F   UNL     1      20.869  -4.125  -4.351  0.00  0.00    -0.205 F 
ATOM     30  C   UNL     1      18.713  -3.973  -3.364  0.00  0.00    +0.107 A 
ATOM     33  C   UNL     1      17.475  -3.334  -3.285  0.00  0.00    +0.138 A 
ATOM     34  C   UNL     1      19.675  -3.519  -4.266  0.00  0.00    +0.138 A 
ATOM     38  C   UNL     1      17.199  -2.242  -4.108  0.00  0.00    +0.039 A 
ATOM     39  C   UNL     1      19.400  -2.427  -5.089  0.00  0.00    +0.039 A 
ATOM     40  C   UNL     1      18.162  -1.789  -5.011  0.00  0.00    +0.006 A 
ENDBRANCH  28  30
BRANCH  16   4
ATOM      4  O   UNL     1      22.324 -10.537   6.404  0.00  0.00    -0.391 OA
ATOM     41  H   UNL     1      22.814 -11.343   6.169  0.00  0.00    +0.210 HD
ENDBRANCH  16   4
BRANCH  13  21
ATOM     21  C   UNL     1      23.697  -8.681   4.752  0.00  0.00    +0.165 C 
BRANCH  21   5
ATOM      5  O   UNL     1      24.145  -8.276   6.027  0.00  0.00    -0.394 OA
ATOM     42  H   UNL     1      24.014  -9.025   6.632  0.00  0.00    +0.209 HD
ENDBRANCH  21   5
ENDBRANCH  13  21
BRANCH  14  24
ATOM     24  C   UNL     1      20.275  -9.903  -0.044  0.00  0.00    +0.106 C 
BRANCH  24  25
ATOM      6  O   UNL     1      18.234  -9.703  -1.327  0.00  0.00    -0.276 OA
ATOM      9  N   UNL     1      18.357 -11.257   0.397  0.00  0.00    -0.311 N 
ATOM     25  C   UNL     1      18.853 -10.251  -0.419  0.00  0.00    +0.214 C 
ATOM     43  H   UNL     1      18.959 -11.682   1.095  0.00  0.00    +0.149 HD
BRANCH   9  27
ATOM     27  C   UNL     1      17.019 -11.789   0.269  0.00  0.00    +0.139 C 
BRANCH  27  29
ATOM     29  C   UNL     1      16.411 -12.109   1.604  0.00  0.00    -0.030 A 
ATOM     31  C   UNL     1      16.678 -11.296   2.705  0.00  0.00    +0.005 A 
ATOM     32  C   UNL     1      15.580 -13.220   1.743  0.00  0.00    +0.005 A 
ATOM     35  C   UNL     1      16.114 -11.592   3.945  0.00  0.00    +0.000 A 
ATOM     36  C   UNL     1      15.015 -13.518   2.984  0.00  0.00    +0.000 A 
ATOM     37  C   UNL     1      15.282 -12.704   4.085  0.00  0.00    +0.000 A 
ENDBRANCH  27  29
ENDBRANCH   9  27
ENDBRANCH  24  25
ENDBRANCH  14  24
TORSDOF 8
ENDMDL
MODEL 5
REMARK VINA RESULT:      -6.9     25.313     27.951
REMARK  Name = 11883036
REMARK  10 active torsions:
REMARK  status: ('A' for Active; 'I' for Inactive)
REMARK    1  A    between atoms: O_4  and  C_16
REMARK    2  A    between atoms: O_5  and  C_21
REMARK    3  A    between atoms: N_9  and  C_27
REMARK    4  A    between atoms: C_11  and  C_19
REMARK    5  A    between atoms: C_13  and  C_21
REMARK    6  A    between atoms: C_13  and  C_22
REMARK    7  A    between atoms: C_14  and  C_24
REMARK    8  A    between atoms: C_24  and  C_25
REMARK    9  A    between atoms: C_27  and  C_29
REMARK   10  A    between atoms: C_28  and  C_30
REMARK                            x       y       z     vdW  Elec       q    Type
REMARK                         _______ _______ _______ _____ _____    ______ ____
ROOT
ATOM      1  S   UNL     1      18.200  -2.744  29.818  0.00  0.00    -0.057 S 
ATOM      7  O   UNL     1      20.022  -3.554  25.612  0.00  0.00    -0.270 OA
ATOM      8  N   UNL     1      18.151  -4.323  27.770  0.00  0.00    -0.229 NA
ATOM     10  N   UNL     1      19.680  -2.463  27.672  0.00  0.00    -0.261 N 
ATOM     11  C   UNL     1      15.755  -6.605  29.749  0.00  0.00    -0.019 C 
ATOM     12  C   UNL     1      15.122  -5.380  30.547  0.00  0.00    +0.011 C 
ATOM     13  C   UNL     1      14.079  -5.726  31.679  0.00  0.00    +0.021 C 
ATOM     14  C   UNL     1      16.411  -6.034  28.409  0.00  0.00    +0.054 C 
ATOM     15  C   UNL     1      14.632  -7.601  29.358  0.00  0.00    +0.010 C 
ATOM     16  C   UNL     1      13.058  -6.766  31.135  0.00  0.00    +0.123 C 
ATOM     17  C   UNL     1      16.215  -4.365  30.991  0.00  0.00    +0.049 C 
ATOM     18  C   UNL     1      13.723  -7.991  30.515  0.00  0.00    +0.032 C 
ATOM     19  C   UNL     1      16.829  -7.364  30.566  0.00  0.00    +0.012 C 
ATOM     20  C   UNL     1      17.242  -4.810  28.692  0.00  0.00    +0.058 A 
ATOM     22  C   UNL     1      13.280  -4.442  32.041  0.00  0.00    +0.016 C 
ATOM     23  C   UNL     1      17.126  -4.066  29.848  0.00  0.00    +0.015 A 
ATOM     26  C   UNL     1      18.720  -3.243  28.260  0.00  0.00    +0.165 A 
ATOM     28  C   UNL     1      20.264  -2.656  26.410  0.00  0.00    +0.255 C 
ATOM     44  H   UNL     1      19.985  -1.677  28.240  0.00  0.00    +0.157 HD
ENDROOT
BRANCH  28  30
ATOM      2  F   UNL     1      23.045  -3.073  26.636  0.00  0.00    -0.205 F 
ATOM      3  F   UNL     1      19.534  -0.141  25.360  0.00  0.00    -0.205 F 
ATOM     30  C   UNL     1      21.265  -1.632  26.008  0.00  0.00    +0.107 A 
ATOM     33  C   UNL     1      22.628  -1.898  26.144  0.00  0.00    +0.138 A 
ATOM     34  C   UNL     1      20.842  -0.406  25.495  0.00  0.00    +0.138 A 
ATOM     38  C   UNL     1      23.567  -0.938  25.768  0.00  0.00    +0.039 A 
ATOM     39  C   UNL     1      21.780   0.554  25.118  0.00  0.00    +0.039 A 
ATOM     40  C   UNL     1      23.143   0.289  25.255  0.00  0.00    +0.006 A 
ENDBRANCH  28  30
BRANCH  16   4
ATOM      4  O   UNL     1      12.179  -7.198  32.172  0.00  0.00    -0.391 OA
ATOM     41  H   UNL     1      12.639  -7.885  32.683  0.00  0.00    +0.210 HD
ENDBRANCH  16   4
BRANCH  13  21
ATOM     21  C   UNL     1      14.707  -6.211  33.003  0.00  0.00    +0.165 C 
BRANCH  21   5
ATOM      5  O   UNL     1      13.914  -5.725  34.062  0.00  0.00    -0.394 OA
ATOM     42  H   UNL     1      12.992  -5.967  33.868  0.00  0.00    +0.209 HD
ENDBRANCH  21   5
ENDBRANCH  13  21
BRANCH  14  24
ATOM     24  C   UNL     1      17.195  -7.069  27.591  0.00  0.00    +0.106 C 
BRANCH  24  25
ATOM      6  O   UNL     1      16.010  -7.800  25.612  0.00  0.00    -0.276 OA
ATOM      9  N   UNL     1      17.517  -6.037  25.460  0.00  0.00    -0.311 N 
ATOM     25  C   UNL     1      16.821  -7.035  26.126  0.00  0.00    +0.214 C 
ATOM     43  H   UNL     1      18.137  -5.422  25.979  0.00  0.00    +0.149 HD
BRANCH   9  27
ATOM     27  C   UNL     1      17.363  -5.776  24.047  0.00  0.00    +0.139 C 
BRANCH  27  29
ATOM     29  C   UNL     1      17.316  -4.304  23.749  0.00  0.00    -0.030 A 
ATOM     31  C   UNL     1      18.040  -3.787  22.675  0.00  0.00    +0.005 A 
ATOM     32  C   UNL     1      16.549  -3.455  24.547  0.00  0.00    +0.005 A 
ATOM     35  C   UNL     1      17.997  -2.421  22.397  0.00  0.00    +0.000 A 
ATOM     36  C   UNL     1      16.506  -2.089  24.271  0.00  0.00    +0.000 A 
ATOM     37  C   UNL     1      17.230  -1.571  23.196  0.00  0.00    +0.000 A 
ENDBRANCH  27  29
ENDBRANCH   9  27
ENDBRANCH  24  25
ENDBRANCH  14  24
TORSDOF 8
ENDMDL
MODEL 6
REMARK VINA RESULT:      -6.7     23.259     25.742
REMARK  Name = 11883036
REMARK  10 active torsions:
REMARK  status: ('A' for Active; 'I' for Inactive)
REMARK    1  A    between atoms: O_4  and  C_16
REMARK    2  A    between atoms: O_5  and  C_21
REMARK    3  A    between atoms: N_9  and  C_27
REMARK    4  A    between atoms: C_11  and  C_19
REMARK    5  A    between atoms: C_13  and  C_21
REMARK    6  A    between atoms: C_13  and  C_22
REMARK    7  A    between atoms: C_14  and  C_24
REMARK    8  A    between atoms: C_24  and  C_25
REMARK    9  A    between atoms: C_27  and  C_29
REMARK   10  A    between atoms: C_28  and  C_30
REMARK                            x       y       z     vdW  Elec       q    Type
REMARK                         _______ _______ _______ _____ _____    ______ ____
ROOT
ATOM      1  S   UNL     1      19.805  -6.264  20.185  0.00  0.00    -0.057 S 
ATOM      7  O   UNL     1      21.987 -10.183  21.430  0.00  0.00    -0.270 OA
ATOM      8  N   UNL     1      20.604  -7.683  22.195  0.00  0.00    -0.229 NA
ATOM     10  N   UNL     1      21.075  -8.550  19.997  0.00  0.00    -0.261 N 
ATOM     11  C   UNL     1      19.481  -4.807  24.505  0.00  0.00    -0.019 C 
ATOM     12  C   UNL     1      18.308  -4.370  23.520  0.00  0.00    +0.011 C 
ATOM     13  C   UNL     1      17.500  -3.069  23.902  0.00  0.00    +0.021 C 
ATOM     14  C   UNL     1      19.850  -6.328  24.186  0.00  0.00    +0.054 C 
ATOM     15  C   UNL     1      18.981  -4.723  25.971  0.00  0.00    +0.010 C 
ATOM     16  C   UNL     1      17.119  -3.126  25.409  0.00  0.00    +0.123 C 
ATOM     17  C   UNL     1      18.770  -4.406  22.034  0.00  0.00    +0.049 C 
ATOM     18  C   UNL     1      18.311  -3.402  26.319  0.00  0.00    +0.032 C 
ATOM     19  C   UNL     1      20.747  -3.928  24.361  0.00  0.00    +0.012 C 
ATOM     20  C   UNL     1      19.991  -6.551  22.702  0.00  0.00    +0.058 A 
ATOM     22  C   UNL     1      16.174  -3.039  23.091  0.00  0.00    +0.016 C 
ATOM     23  C   UNL     1      19.483  -5.686  21.755  0.00  0.00    +0.015 A 
ATOM     26  C   UNL     1      20.572  -7.634  20.881  0.00  0.00    +0.165 A 
ATOM     28  C   UNL     1      21.740  -9.746  20.312  0.00  0.00    +0.255 C 
ATOM     44  H   UNL     1      20.946  -8.302  19.019  0.00  0.00    +0.157 HD
ENDROOT
BRANCH  28  30
ATOM      2  F   UNL     1      20.345 -12.064  19.510  0.00  0.00    -0.205 F 
ATOM      3  F   UNL     1      23.986  -9.117  18.724  0.00  0.00    -0.205 F 
ATOM     30  C   UNL     1      22.155 -10.570  19.146  0.00  0.00    +0.107 A 
ATOM     33  C   UNL     1      21.424 -11.707  18.799  0.00  0.00    +0.138 A 
ATOM     34  C   UNL     1      23.276 -10.208  18.400  0.00  0.00    +0.138 A 
ATOM     38  C   UNL     1      21.814 -12.481  17.706  0.00  0.00    +0.039 A 
ATOM     39  C   UNL     1      23.666 -10.981  17.306  0.00  0.00    +0.039 A 
ATOM     40  C   UNL     1      22.936 -12.118  16.960  0.00  0.00    +0.006 A 
ENDBRANCH  28  30
BRANCH  16   4
ATOM      4  O   UNL     1      16.500  -1.908  25.818  0.00  0.00    -0.391 OA
ATOM     41  H   UNL     1      16.636  -1.815  26.776  0.00  0.00    +0.210 HD
ENDBRANCH  16   4
BRANCH  13  21
ATOM     21  C   UNL     1      18.222  -1.746  23.567  0.00  0.00    +0.165 C 
BRANCH  21   5
ATOM      5  O   UNL     1      17.605  -1.194  22.425  0.00  0.00    -0.394 OA
ATOM     42  H   UNL     1      16.782  -0.766  22.718  0.00  0.00    +0.209 HD
ENDBRANCH  21   5
ENDBRANCH  13  21
BRANCH  14  24
ATOM     24  C   UNL     1      21.067  -6.864  24.952  0.00  0.00    +0.106 C 
BRANCH  24  25
ATOM      6  O   UNL     1      21.508  -8.601  26.577  0.00  0.00    -0.276 OA
ATOM      9  N   UNL     1      19.387  -8.414  25.646  0.00  0.00    -0.311 N 
ATOM     25  C   UNL     1      20.713  -8.048  25.822  0.00  0.00    +0.214 C 
ATOM     43  H   UNL     1      18.791  -7.869  25.031  0.00  0.00    +0.149 HD
BRANCH   9  27
ATOM     27  C   UNL     1      18.773  -9.518  26.348  0.00  0.00    +0.139 C 
BRANCH  27  29
ATOM     29  C   UNL     1      17.334  -9.700  25.961  0.00  0.00    -0.030 A 
ATOM     31  C   UNL     1      16.461  -8.612  25.987  0.00  0.00    +0.005 A 
ATOM     32  C   UNL     1      16.870 -10.957  25.575  0.00  0.00    +0.005 A 
ATOM     35  C   UNL     1      15.124  -8.781  25.627  0.00  0.00    +0.000 A 
ATOM     36  C   UNL     1      15.532 -11.127  25.215  0.00  0.00    +0.000 A 
ATOM     37  C   UNL     1      14.659 -10.039  25.241  0.00  0.00    +0.000 A 
ENDBRANCH  27  29
ENDBRANCH   9  27
ENDBRANCH  24  25
ENDBRANCH  14  24
TORSDOF 8
ENDMDL
MODEL 7
REMARK VINA RESULT:      -6.5     15.342     17.752
REMARK  Name = 11883036
REMARK  10 active torsions:
REMARK  status: ('A' for Active; 'I' for Inactive)
REMARK    1  A    between atoms: O_4  and  C_16
REMARK    2  A    between atoms: O_5  and  C_21
REMARK    3  A    between atoms: N_9  and  C_27
REMARK    4  A    between atoms: C_11  and  C_19
REMARK    5  A    between atoms: C_13  and  C_21
REMARK    6  A    between atoms: C_13  and  C_22
REMARK    7  A    between atoms: C_14  and  C_24
REMARK    8  A    between atoms: C_24  and  C_25
REMARK    9  A    between atoms: C_27  and  C_29
REMARK   10  A    between atoms: C_28  and  C_30
REMARK                            x       y       z     vdW  Elec       q    Type
REMARK                         _______ _______ _______ _____ _____    ______ ____
ROOT
ATOM      1  S   UNL     1      20.317  -6.314   0.080  0.00  0.00    -0.057 S 
ATOM      7  O   UNL     1      17.530  -8.344  -3.049  0.00  0.00    -0.270 OA
ATOM      8  N   UNL     1      19.232  -8.551  -0.638  0.00  0.00    -0.229 NA
ATOM     10  N   UNL     1      18.736  -6.618  -1.990  0.00  0.00    -0.261 N 
ATOM     11  C   UNL     1      21.303 -10.288   2.110  0.00  0.00    -0.019 C 
ATOM     12  C   UNL     1      21.288  -8.999   3.046  0.00  0.00    +0.011 C 
ATOM     13  C   UNL     1      22.139  -9.068   4.373  0.00  0.00    +0.021 C 
ATOM     14  C   UNL     1      20.073 -10.176   1.098  0.00  0.00    +0.054 C 
ATOM     15  C   UNL     1      21.107 -11.558   2.979  0.00  0.00    +0.010 C 
ATOM     16  C   UNL     1      21.859 -10.418   5.093  0.00  0.00    +0.123 C 
ATOM     17  C   UNL     1      21.513  -7.697   2.224  0.00  0.00    +0.049 C 
ATOM     18  C   UNL     1      22.034 -11.630   4.185  0.00  0.00    +0.032 C 
ATOM     19  C   UNL     1      22.620 -10.433   1.309  0.00  0.00    +0.012 C 
ATOM     20  C   UNL     1      20.000  -8.802   0.485  0.00  0.00    +0.058 A 
ATOM     22  C   UNL     1      21.680  -7.931   5.329  0.00  0.00    +0.016 C 
ATOM     23  C   UNL     1      20.638  -7.700   1.016  0.00  0.00    +0.015 A 
ATOM     26  C   UNL     1      19.331  -7.275  -0.947  0.00  0.00    +0.165 A 
ATOM     28  C   UNL     1      17.888  -7.175  -2.961  0.00  0.00    +0.255 C 
ATOM     44  H   UNL     1      18.961  -5.629  -2.044  0.00  0.00    +0.157 HD
ENDROOT
BRANCH  28  30
ATOM      2  F   UNL     1      19.540  -5.862  -4.834  0.00  0.00    -0.205 F 
ATOM      3  F   UNL     1      15.148  -6.526  -3.152  0.00  0.00    -0.205 F 
ATOM     30  C   UNL     1      17.358  -6.218  -3.968  0.00  0.00    +0.107 A 
ATOM     33  C   UNL     1      18.226  -5.600  -4.868  0.00  0.00    +0.138 A 
ATOM     34  C   UNL     1      15.992  -5.938  -4.012  0.00  0.00    +0.138 A 
ATOM     38  C   UNL     1      17.729  -4.702  -5.812  0.00  0.00    +0.039 A 
ATOM     39  C   UNL     1      15.494  -5.040  -4.956  0.00  0.00    +0.039 A 
ATOM     40  C   UNL     1      16.363  -4.421  -5.856  0.00  0.00    +0.006 A 
ENDBRANCH  28  30
BRANCH  16   4
ATOM      4  O   UNL     1      22.708 -10.569   6.229  0.00  0.00    -0.391 OA
ATOM     41  H   UNL     1      22.246 -11.133   6.871  0.00  0.00    +0.210 HD
ENDBRANCH  16   4
BRANCH  13  21
ATOM     21  C   UNL     1      23.655  -8.856   4.173  0.00  0.00    +0.165 C 
BRANCH  21   5
ATOM      5  O   UNL     1      24.144  -8.154   5.294  0.00  0.00    -0.394 OA
ATOM     42  H   UNL     1      24.406  -8.814   5.958  0.00  0.00    +0.209 HD
ENDBRANCH  21   5
ENDBRANCH  13  21
BRANCH  14  24
ATOM     24  C   UNL     1      20.027 -11.273   0.025  0.00  0.00    +0.106 C 
BRANCH  24  25
ATOM      6  O   UNL     1      18.452 -12.982  -0.647  0.00  0.00    -0.276 OA
ATOM      9  N   UNL     1      17.709 -11.162   0.593  0.00  0.00    -0.311 N 
ATOM     25  C   UNL     1      18.665 -11.923  -0.064  0.00  0.00    +0.214 C 
ATOM     43  H   UNL     1      17.987 -10.319   1.087  0.00  0.00    +0.149 HD
BRANCH   9  27
ATOM     27  C   UNL     1      16.316 -11.540   0.668  0.00  0.00    +0.139 C 
BRANCH  27  29
ATOM     29  C   UNL     1      15.943 -12.042   2.033  0.00  0.00    -0.030 A 
ATOM     31  C   UNL     1      16.260 -11.290   3.165  0.00  0.00    +0.005 A 
ATOM     32  C   UNL     1      15.278 -13.261   2.170  0.00  0.00    +0.005 A 
ATOM     35  C   UNL     1      15.914 -11.756   4.433  0.00  0.00    +0.000 A 
ATOM     36  C   UNL     1      14.931 -13.728   3.438  0.00  0.00    +0.000 A 
ATOM     37  C   UNL     1      15.249 -12.976   4.570  0.00  0.00    +0.000 A 
ENDBRANCH  27  29
ENDBRANCH   9  27
ENDBRANCH  24  25
ENDBRANCH  14  24
TORSDOF 8
ENDMDL
MODEL 8
REMARK VINA RESULT:      -6.5     16.941     20.483
REMARK  Name = 11883036
REMARK  10 active torsions:
REMARK  status: ('A' for Active; 'I' for Inactive)
REMARK    1  A    between atoms: O_4  and  C_16
REMARK    2  A    between atoms: O_5  and  C_21
REMARK    3  A    between atoms: N_9  and  C_27
REMARK    4  A    between atoms: C_11  and  C_19
REMARK    5  A    between atoms: C_13  and  C_21
REMARK    6  A    between atoms: C_13  and  C_22
REMARK    7  A    between atoms: C_14  and  C_24
REMARK    8  A    between atoms: C_24  and  C_25
REMARK    9  A    between atoms: C_27  and  C_29
REMARK   10  A    between atoms: C_28  and  C_30
REMARK                            x       y       z     vdW  Elec       q    Type
REMARK                         _______ _______ _______ _____ _____    ______ ____
ROOT
ATOM      1  S   UNL     1      17.728   5.463  19.714  0.00  0.00    -0.057 S 
ATOM      7  O   UNL     1      21.783   6.915  21.480  0.00  0.00    -0.270 OA
ATOM      8  N   UNL     1      18.901   7.375  21.003  0.00  0.00    -0.229 NA
ATOM     10  N   UNL     1      20.269   5.498  20.362  0.00  0.00    -0.261 N 
ATOM     11  C   UNL     1      15.614   9.376  20.765  0.00  0.00    -0.019 C 
ATOM     12  C   UNL     1      14.719   8.059  20.789  0.00  0.00    +0.011 C 
ATOM     13  C   UNL     1      13.165   8.246  20.589  0.00  0.00    +0.021 C 
ATOM     14  C   UNL     1      17.032   9.020  21.409  0.00  0.00    +0.054 C 
ATOM     15  C   UNL     1      14.943  10.471  21.635  0.00  0.00    +0.010 C 
ATOM     16  C   UNL     1      12.667   9.407  21.496  0.00  0.00    +0.123 C 
ATOM     17  C   UNL     1      15.334   6.937  19.902  0.00  0.00    +0.049 C 
ATOM     18  C   UNL     1      13.470  10.692  21.321  0.00  0.00    +0.032 C 
ATOM     19  C   UNL     1      15.823   9.936  19.336  0.00  0.00    +0.012 C 
ATOM     20  C   UNL     1      17.574   7.731  20.846  0.00  0.00    +0.058 A 
ATOM     22  C   UNL     1      12.435   6.953  21.051  0.00  0.00    +0.016 C 
ATOM     23  C   UNL     1      16.791   6.804  20.190  0.00  0.00    +0.015 A 
ATOM     26  C   UNL     1      19.098   6.203  20.439  0.00  0.00    +0.165 A 
ATOM     28  C   UNL     1      21.518   5.882  20.875  0.00  0.00    +0.255 C 
ATOM     44  H   UNL     1      20.192   4.613  19.867  0.00  0.00    +0.157 HD
ENDROOT
BRANCH  28  30
ATOM      2  F   UNL     1      21.272   3.154  21.548  0.00  0.00    -0.205 F 
ATOM      3  F   UNL     1      24.021   6.603  19.788  0.00  0.00    -0.205 F 
ATOM     30  C   UNL     1      22.618   4.903  20.673  0.00  0.00    +0.107 A 
ATOM     33  C   UNL     1      22.436   3.566  21.027  0.00  0.00    +0.138 A 
ATOM     34  C   UNL     1      23.834   5.320  20.131  0.00  0.00    +0.138 A 
ATOM     38  C   UNL     1      23.468   2.647  20.839  0.00  0.00    +0.039 A 
ATOM     39  C   UNL     1      24.866   4.402  19.943  0.00  0.00    +0.039 A 
ATOM     40  C   UNL     1      24.684   3.065  20.297  0.00  0.00    +0.006 A 
ENDBRANCH  28  30
BRANCH  16   4
ATOM      4  O   UNL     1      11.291   9.688  21.244  0.00  0.00    -0.391 OA
ATOM     41  H   UNL     1      11.236  10.159  20.396  0.00  0.00    +0.210 HD
ENDBRANCH  16   4
BRANCH  13  21
ATOM     21  C   UNL     1      12.730   8.468  19.124  0.00  0.00    +0.165 C 
BRANCH  21   5
ATOM      5  O   UNL     1      11.424   7.955  18.979  0.00  0.00    -0.394 OA
ATOM     42  H   UNL     1      11.023   8.396  18.211  0.00  0.00    +0.209 HD
ENDBRANCH  21   5
ENDBRANCH  13  21
BRANCH  14  24
ATOM     24  C   UNL     1      18.070  10.148  21.331  0.00  0.00    +0.106 C 
BRANCH  24  25
ATOM      6  O   UNL     1      18.272  11.477  23.342  0.00  0.00    -0.276 OA
ATOM      9  N   UNL     1      19.587   9.577  23.087  0.00  0.00    -0.311 N 
ATOM     25  C   UNL     1      18.629  10.499  22.691  0.00  0.00    +0.214 C 
ATOM     43  H   UNL     1      19.785   8.773  22.500  0.00  0.00    +0.149 HD
BRANCH   9  27
ATOM     27  C   UNL     1      20.293   9.665  24.345  0.00  0.00    +0.139 C 
BRANCH  27  29
ATOM     29  C   UNL     1      21.293   8.556  24.506  0.00  0.00    -0.030 A 
ATOM     31  C   UNL     1      22.653   8.812  24.325  0.00  0.00    +0.005 A 
ATOM     32  C   UNL     1      20.863   7.271  24.837  0.00  0.00    +0.005 A 
ATOM     35  C   UNL     1      23.582   7.783  24.474  0.00  0.00    +0.000 A 
ATOM     36  C   UNL     1      21.793   6.242  24.986  0.00  0.00    +0.000 A 
ATOM     37  C   UNL     1      23.152   6.497  24.805  0.00  0.00    +0.000 A 
ENDBRANCH  27  29
ENDBRANCH   9  27
ENDBRANCH  24  25
ENDBRANCH  14  24
TORSDOF 8
ENDMDL
MODEL 9
REMARK VINA RESULT:      -6.3     25.937     28.316
REMARK  Name = 11883036
REMARK  10 active torsions:
REMARK  status: ('A' for Active; 'I' for Inactive)
REMARK    1  A    between atoms: O_4  and  C_16
REMARK    2  A    between atoms: O_5  and  C_21
REMARK    3  A    between atoms: N_9  and  C_27
REMARK    4  A    between atoms: C_11  and  C_19
REMARK    5  A    between atoms: C_13  and  C_21
REMARK    6  A    between atoms: C_13  and  C_22
REMARK    7  A    between atoms: C_14  and  C_24
REMARK    8  A    between atoms: C_24  and  C_25
REMARK    9  A    between atoms: C_27  and  C_29
REMARK   10  A    between atoms: C_28  and  C_30
REMARK                            x       y       z     vdW  Elec       q    Type
REMARK                         _______ _______ _______ _____ _____    ______ ____
ROOT
ATOM      1  S   UNL     1      15.696  -3.427  31.364  0.00  0.00    -0.057 S 
ATOM      7  O   UNL     1      18.414   0.343  31.626  0.00  0.00    -0.270 OA
ATOM      8  N   UNL     1      17.789  -2.266  30.382  0.00  0.00    -0.229 NA
ATOM     10  N   UNL     1      16.633  -1.108  32.150  0.00  0.00    -0.261 N 
ATOM     11  C   UNL     1      18.410  -5.445  28.290  0.00  0.00    -0.019 C 
ATOM     12  C   UNL     1      16.855  -5.776  28.187  0.00  0.00    +0.011 C 
ATOM     13  C   UNL     1      16.456  -7.133  27.488  0.00  0.00    +0.021 C 
ATOM     14  C   UNL     1      18.562  -3.887  28.610  0.00  0.00    +0.054 C 
ATOM     15  C   UNL     1      19.088  -5.732  26.925  0.00  0.00    +0.010 C 
ATOM     16  C   UNL     1      17.259  -7.283  26.164  0.00  0.00    +0.123 C 
ATOM     17  C   UNL     1      16.132  -5.534  29.544  0.00  0.00    +0.049 C 
ATOM     18  C   UNL     1      18.762  -7.103  26.349  0.00  0.00    +0.032 C 
ATOM     19  C   UNL     1      19.129  -6.269  29.385  0.00  0.00    +0.012 C 
ATOM     20  C   UNL     1      17.628  -3.468  29.716  0.00  0.00    +0.058 A 
ATOM     22  C   UNL     1      14.948  -7.086  27.112  0.00  0.00    +0.016 C 
ATOM     23  C   UNL     1      16.535  -4.213  30.107  0.00  0.00    +0.015 A 
ATOM     26  C   UNL     1      16.833  -2.143  31.277  0.00  0.00    +0.165 A 
ATOM     28  C   UNL     1      17.415   0.052  32.274  0.00  0.00    +0.255 C 
ATOM     44  H   UNL     1      15.832  -1.227  32.764  0.00  0.00    +0.157 HD
ENDROOT
BRANCH  28  30
ATOM      2  F   UNL     1      17.428  -0.501  35.041  0.00  0.00    -0.205 F 
ATOM      3  F   UNL     1      16.444   2.612  31.591  0.00  0.00    -0.205 F 
ATOM     30  C   UNL     1      16.947   1.031  33.290  0.00  0.00    +0.107 A 
ATOM     33  C   UNL     1      16.978   0.699  34.645  0.00  0.00    +0.138 A 
ATOM     34  C   UNL     1      16.477   2.282  32.890  0.00  0.00    +0.138 A 
ATOM     38  C   UNL     1      16.538   1.616  35.599  0.00  0.00    +0.039 A 
ATOM     39  C   UNL     1      16.038   3.200  33.843  0.00  0.00    +0.039 A 
ATOM     40  C   UNL     1      16.068   2.867  35.198  0.00  0.00    +0.006 A 
ENDBRANCH  28  30
BRANCH  16   4
ATOM      4  O   UNL     1      17.019  -8.558  25.571  0.00  0.00    -0.391 OA
ATOM     41  H   UNL     1      16.860  -9.193  26.290  0.00  0.00    +0.210 HD
ENDBRANCH  16   4
BRANCH  13  21
ATOM     21  C   UNL     1      16.624  -8.384  28.377  0.00  0.00    +0.165 C 
BRANCH  21   5
ATOM      5  O   UNL     1      15.651  -9.326  27.984  0.00  0.00    -0.394 OA
ATOM     42  H   UNL     1      16.105 -10.015  27.469  0.00  0.00    +0.209 HD
ENDBRANCH  21   5
ENDBRANCH  13  21
BRANCH  14  24
ATOM     24  C   UNL     1      20.000  -3.429  28.885  0.00  0.00    +0.106 C 
BRANCH  24  25
ATOM      6  O   UNL     1      21.736  -2.315  27.620  0.00  0.00    -0.276 OA
ATOM      9  N   UNL     1      19.517  -2.096  26.962  0.00  0.00    -0.311 N 
ATOM     25  C   UNL     1      20.543  -2.563  27.771  0.00  0.00    +0.214 C 
ATOM     43  H   UNL     1      18.562  -2.391  27.138  0.00  0.00    +0.149 HD
BRANCH   9  27
ATOM     27  C   UNL     1      19.742  -1.241  25.818  0.00  0.00    +0.139 C 
BRANCH  27  29
ATOM     29  C   UNL     1      18.976  -1.704  24.612  0.00  0.00    -0.030 A 
ATOM     31  C   UNL     1      19.201  -2.977  24.089  0.00  0.00    +0.005 A 
ATOM     32  C   UNL     1      18.041  -0.860  24.014  0.00  0.00    +0.005 A 
ATOM     35  C   UNL     1      18.491  -3.408  22.969  0.00  0.00    +0.000 A 
ATOM     36  C   UNL     1      17.330  -1.289  22.893  0.00  0.00    +0.000 A 
ATOM     37  C   UNL     1      17.555  -2.563  22.370  0.00  0.00    +0.000 A 
ENDBRANCH  27  29
ENDBRANCH   9  27
ENDBRANCH  24  25
ENDBRANCH  14  24
TORSDOF 8
ENDMDL
MODEL 10
REMARK VINA RESULT:      -6.3     16.547     20.377
REMARK  Name = 11883036
REMARK  10 active torsions:
REMARK  status: ('A' for Active; 'I' for Inactive)
REMARK    1  A    between atoms: O_4  and  C_16
REMARK    2  A    between atoms: O_5  and  C_21
REMARK    3  A    between atoms: N_9  and  C_27
REMARK    4  A    between atoms: C_11  and  C_19
REMARK    5  A    between atoms: C_13  and  C_21
REMARK    6  A    between atoms: C_13  and  C_22
REMARK    7  A    between atoms: C_14  and  C_24
REMARK    8  A    between atoms: C_24  and  C_25
REMARK    9  A    between atoms: C_27  and  C_29
REMARK   10  A    between atoms: C_28  and  C_30
REMARK                            x       y       z     vdW  Elec       q    Type
REMARK                         _______ _______ _______ _____ _____    ______ ____
ROOT
ATOM      1  S   UNL     1      -0.857  12.614   3.209  0.00  0.00    -0.057 S 
ATOM      7  O   UNL     1      -1.388   8.980   0.349  0.00  0.00    -0.270 OA
ATOM      8  N   UNL     1      -1.892  10.255   2.970  0.00  0.00    -0.229 NA
ATOM     10  N   UNL     1      -0.671  11.105   1.074  0.00  0.00    -0.261 N 
ATOM     11  C   UNL     1      -2.900  10.461   6.685  0.00  0.00    -0.019 C 
ATOM     12  C   UNL     1      -3.075  12.043   6.631  0.00  0.00    +0.011 C 
ATOM     13  C   UNL     1      -3.395  12.775   7.991  0.00  0.00    +0.021 C 
ATOM     14  C   UNL     1      -3.026   9.900   5.195  0.00  0.00    +0.054 C 
ATOM     15  C   UNL     1      -4.040   9.845   7.537  0.00  0.00    +0.010 C 
ATOM     16  C   UNL     1      -4.522  12.005   8.736  0.00  0.00    +0.123 C 
ATOM     17  C   UNL     1      -1.935  12.714   5.811  0.00  0.00    +0.049 C 
ATOM     18  C   UNL     1      -4.230  10.516   8.891  0.00  0.00    +0.032 C 
ATOM     19  C   UNL     1      -1.540  10.028   7.286  0.00  0.00    +0.012 C 
ATOM     20  C   UNL     1      -2.198  10.717   4.237  0.00  0.00    +0.058 A 
ATOM     22  C   UNL     1      -3.934  14.201   7.686  0.00  0.00    +0.016 C 
ATOM     23  C   UNL     1      -1.734  11.984   4.527  0.00  0.00    +0.015 A 
ATOM     26  C   UNL     1      -1.182  11.168   2.342  0.00  0.00    +0.165 A 
ATOM     28  C   UNL     1      -0.799  10.040   0.167  0.00  0.00    +0.255 C 
ATOM     44  H   UNL     1      -0.142  11.926   0.794  0.00  0.00    +0.157 HD
ENDROOT
BRANCH  28  30
ATOM      2  F   UNL     1       1.928  10.698  -0.132  0.00  0.00    -0.205 F 
ATOM      3  F   UNL     1      -2.229   9.820  -2.257  0.00  0.00    -0.205 F 
ATOM     30  C   UNL     1      -0.166  10.254  -1.161  0.00  0.00    +0.107 A 
ATOM     33  C   UNL     1       1.188  10.577  -1.244  0.00  0.00    +0.138 A 
ATOM     34  C   UNL     1      -0.926  10.131  -2.324  0.00  0.00    +0.138 A 
ATOM     38  C   UNL     1       1.783  10.779  -2.489  0.00  0.00    +0.039 A 
ATOM     39  C   UNL     1      -0.332  10.332  -3.570  0.00  0.00    +0.039 A 
ATOM     40  C   UNL     1       1.022  10.657  -3.653  0.00  0.00    +0.006 A 
ENDBRANCH  28  30
BRANCH  16   4
ATOM      4  O   UNL     1      -4.746  12.565  10.029  0.00  0.00    -0.391 OA
ATOM     41  H   UNL     1      -5.658  12.353  10.289  0.00  0.00    +0.210 HD
ENDBRANCH  16   4
BRANCH  13  21
ATOM     21  C   UNL     1      -2.171  12.983   8.910  0.00  0.00    +0.165 C 
BRANCH  21   5
ATOM      5  O   UNL     1      -2.353  14.196   9.605  0.00  0.00    -0.394 OA
ATOM     42  H   UNL     1      -3.292  14.438   9.525  0.00  0.00    +0.209 HD
ENDBRANCH  21   5
ENDBRANCH  13  21
BRANCH  14  24
ATOM     24  C   UNL     1      -2.735   8.400   5.051  0.00  0.00    +0.106 C 
BRANCH  24  25
ATOM      6  O   UNL     1      -4.104   6.410   5.188  0.00  0.00    -0.276 OA
ATOM      9  N   UNL     1      -5.006   8.363   4.309  0.00  0.00    -0.311 N 
ATOM     25  C   UNL     1      -4.000   7.592   4.873  0.00  0.00    +0.214 C 
ATOM     43  H   UNL     1      -4.842   9.348   4.122  0.00  0.00    +0.149 HD
BRANCH   9  27
ATOM     27  C   UNL     1      -6.326   7.850   4.021  0.00  0.00    +0.139 C 
BRANCH  27  29
ATOM     29  C   UNL     1      -7.249   7.980   5.199  0.00  0.00    -0.030 A 
ATOM     31  C   UNL     1      -8.015   6.888   5.609  0.00  0.00    +0.005 A 
ATOM     32  C   UNL     1      -7.340   9.192   5.883  0.00  0.00    +0.005 A 
ATOM     35  C   UNL     1      -8.872   7.008   6.702  0.00  0.00    +0.000 A 
ATOM     36  C   UNL     1      -8.197   9.313   6.977  0.00  0.00    +0.000 A 
ATOM     37  C   UNL     1      -8.963   8.221   7.387  0.00  0.00    +0.000 A 
ENDBRANCH  27  29
ENDBRANCH   9  27
ENDBRANCH  24  25
ENDBRANCH  14  24
TORSDOF 8
ENDMDL
