MODEL 1
REMARK VINA RESULT:      -6.6      0.000      0.000
REMARK  Name = 51136599
REMARK  11 active torsions:
REMARK  status: ('A' for Active; 'I' for Inactive)
REMARK    1  A    between atoms: O_2  and  C_19
REMARK    2  A    between atoms: O_4  and  C_26
REMARK    3  A    between atoms: O_4  and  C_33
REMARK    4  A    between atoms: O_5  and  C_27
REMARK    5  A    between atoms: O_5  and  C_34
REMARK    6  A    between atoms: C_9  and  C_14
REMARK    7  A    between atoms: C_10  and  C_15
REMARK    8  A    between atoms: C_14  and  C_16
REMARK    9  A    between atoms: C_15  and  C_19
REMARK   10  A    between atoms: C_17  and  C_23
REMARK   11  A    between atoms: C_32  and  C_35
REMARK                            x       y       z     vdW  Elec       q    Type
REMARK                         _______ _______ _______ _____ _____    ______ ____
ROOT
ATOM      1  O   UNL     1      -1.497  -9.961  12.193  0.00  0.00    -0.270 OA
ATOM      6  N   UNL     1      -2.826 -11.308  13.569  0.00  0.00    -0.297 N 
ATOM      9  C   UNL     1      -4.698 -11.543  15.186  0.00  0.00    +0.016 C 
ATOM     10  C   UNL     1      -3.650 -11.683  16.320  0.00  0.00    +0.006 C 
ATOM     11  C   UNL     1      -2.331 -10.979  15.960  0.00  0.00    +0.023 C 
ATOM     12  C   UNL     1      -4.089 -12.004  13.849  0.00  0.00    +0.112 C 
ATOM     13  C   UNL     1      -1.805 -11.448  14.607  0.00  0.00    +0.108 C 
ATOM     17  C   UNL     1      -2.551 -10.549  12.429  0.00  0.00    +0.247 C 
ENDROOT
BRANCH  17  23
ATOM     23  C   UNL     1      -3.599 -10.432  11.410  0.00  0.00    +0.037 A 
ATOM     28  C   UNL     1      -4.495  -9.362  11.449  0.00  0.00    +0.014 A 
ATOM     29  C   UNL     1      -3.699 -11.388  10.399  0.00  0.00    +0.014 A 
ATOM     30  C   UNL     1      -5.490  -9.251  10.478  0.00  0.00    +0.019 A 
ATOM     31  C   UNL     1      -4.693 -11.276   9.428  0.00  0.00    +0.019 A 
ATOM     32  C   UNL     1      -5.590 -10.207   9.467  0.00  0.00    +0.052 A 
BRANCH  32  35
ATOM      8  N   UNL     1      -7.438  -9.997   7.667  0.00  0.00    -0.191 NA
ATOM     35  C   UNL     1      -6.610 -10.091   8.473  0.00  0.00    +0.099 C 
ENDBRANCH  32  35
ENDBRANCH  17  23
BRANCH   9  14
ATOM     14  C   UNL     1      -5.280 -10.131  15.048  0.00  0.00    +0.061 C 
BRANCH  14  16
ATOM      7  N   UNL     1      -7.165 -10.258  13.565  0.00  0.00    -0.287 NA
ATOM     16  C   UNL     1      -6.766 -10.212  14.793  0.00  0.00    +0.044 C 
ATOM     18  C   UNL     1      -7.692 -10.229  15.954  0.00  0.00    +0.003 A 
ATOM     20  C   UNL     1      -9.033  -9.917  15.697  0.00  0.00    -0.033 A 
ATOM     21  C   UNL     1      -9.438  -9.578  14.293  0.00  0.00    +0.059 C 
ATOM     22  C   UNL     1      -8.604 -10.400  13.318  0.00  0.00    +0.146 C 
ATOM     24  C   UNL     1      -7.269 -10.524  17.252  0.00  0.00    +0.059 A 
ATOM     25  C   UNL     1      -9.946  -9.877  16.754  0.00  0.00    +0.053 A 
ATOM     26  C   UNL     1      -8.192 -10.496  18.298  0.00  0.00    +0.162 A 
ATOM     27  C   UNL     1      -9.526 -10.170  18.051  0.00  0.00    +0.162 A 
BRANCH  26   4
ATOM      4  O   UNL     1      -7.776 -10.786  19.563  0.00  0.00    -0.491 OA
ATOM     33  C   UNL     1      -7.439 -12.145  19.839  0.00  0.00    +0.277 C 
ENDBRANCH  26   4
BRANCH  27   5
ATOM      5  O   UNL     1     -10.429 -10.134  19.071  0.00  0.00    -0.491 OA
ATOM     34  C   UNL     1     -11.758  -9.729  18.745  0.00  0.00    +0.277 C 
ENDBRANCH  27   5
ENDBRANCH  14  16
ENDBRANCH   9  14
BRANCH  10  15
ATOM     15  C   UNL     1      -4.164 -11.203  17.676  0.00  0.00    +0.124 C 
BRANCH  15  19
ATOM      3  O   UNL     1      -3.360 -12.040  19.819  0.00  0.00    -0.251 OA
ATOM     19  C   UNL     1      -3.928 -12.225  18.754  0.00  0.00    +0.305 C 
BRANCH  19   2
ATOM      2  O   UNL     1      -4.446 -13.421  18.373  0.00  0.00    -0.481 OA
ATOM     36  H   UNL     1      -4.985 -13.342  17.557  0.00  0.00    +0.295 HD
ENDBRANCH  19   2
ENDBRANCH  15  19
ENDBRANCH  10  15
TORSDOF 9
ENDMDL
MODEL 2
REMARK VINA RESULT:      -6.4     27.527     30.200
REMARK  Name = 51136599
REMARK  11 active torsions:
REMARK  status: ('A' for Active; 'I' for Inactive)
REMARK    1  A    between atoms: O_2  and  C_19
REMARK    2  A    between atoms: O_4  and  C_26
REMARK    3  A    between atoms: O_4  and  C_33
REMARK    4  A    between atoms: O_5  and  C_27
REMARK    5  A    between atoms: O_5  and  C_34
REMARK    6  A    between atoms: C_9  and  C_14
REMARK    7  A    between atoms: C_10  and  C_15
REMARK    8  A    between atoms: C_14  and  C_16
REMARK    9  A    between atoms: C_15  and  C_19
REMARK   10  A    between atoms: C_17  and  C_23
REMARK   11  A    between atoms: C_32  and  C_35
REMARK                            x       y       z     vdW  Elec       q    Type
REMARK                         _______ _______ _______ _____ _____    ______ ____
ROOT
ATOM      1  O   UNL     1      13.228   8.810  15.087  0.00  0.00    -0.270 OA
ATOM      6  N   UNL     1      12.755   9.470  17.281  0.00  0.00    -0.297 N 
ATOM      9  C   UNL     1      13.368   9.525  19.689  0.00  0.00    +0.016 C 
ATOM     10  C   UNL     1      12.294   8.437  19.948  0.00  0.00    +0.006 C 
ATOM     11  C   UNL     1      12.045   7.581  18.694  0.00  0.00    +0.023 C 
ATOM     12  C   UNL     1      12.996  10.344  18.438  0.00  0.00    +0.112 C 
ATOM     13  C   UNL     1      11.725   8.453  17.484  0.00  0.00    +0.108 C 
ATOM     17  C   UNL     1      13.423   9.542  16.056  0.00  0.00    +0.247 C 
ENDROOT
BRANCH  17  23
ATOM     23  C   UNL     1      14.451  10.575  15.890  0.00  0.00    +0.037 A 
ATOM     28  C   UNL     1      14.490  11.666  16.759  0.00  0.00    +0.014 A 
ATOM     29  C   UNL     1      15.390  10.465  14.865  0.00  0.00    +0.014 A 
ATOM     30  C   UNL     1      15.469  12.648  16.600  0.00  0.00    +0.019 A 
ATOM     31  C   UNL     1      16.369  11.446  14.707  0.00  0.00    +0.019 A 
ATOM     32  C   UNL     1      16.409  12.538  15.576  0.00  0.00    +0.052 A 
BRANCH  32  35
ATOM      8  N   UNL     1      18.225  14.360  15.284  0.00  0.00    -0.191 NA
ATOM     35  C   UNL     1      17.411  13.544  15.414  0.00  0.00    +0.099 C 
ENDBRANCH  32  35
ENDBRANCH  17  23
BRANCH   9  14
ATOM     14  C   UNL     1      14.794   8.975  19.561  0.00  0.00    +0.061 C 
BRANCH  14  16
ATOM      7  N   UNL     1      15.239  10.601  21.271  0.00  0.00    -0.287 NA
ATOM     16  C   UNL     1      15.665   9.550  20.651  0.00  0.00    +0.044 C 
ATOM     18  C   UNL     1      16.961   8.892  20.954  0.00  0.00    +0.003 A 
ATOM     20  C   UNL     1      17.900   9.645  21.670  0.00  0.00    -0.033 A 
ATOM     21  C   UNL     1      17.546  11.048  22.068  0.00  0.00    +0.059 C 
ATOM     22  C   UNL     1      16.056  11.123  22.372  0.00  0.00    +0.146 C 
ATOM     24  C   UNL     1      17.263   7.592  20.542  0.00  0.00    +0.059 A 
ATOM     25  C   UNL     1      19.154   9.098  21.952  0.00  0.00    +0.053 A 
ATOM     26  C   UNL     1      18.512   7.049  20.841  0.00  0.00    +0.162 A 
ATOM     27  C   UNL     1      19.457   7.799  21.541  0.00  0.00    +0.162 A 
BRANCH  26   4
ATOM      4  O   UNL     1      18.801   5.778  20.439  0.00  0.00    -0.491 OA
ATOM     33  C   UNL     1      18.055   5.262  19.339  0.00  0.00    +0.277 C 
ENDBRANCH  26   4
BRANCH  27   5
ATOM      5  O   UNL     1      20.682   7.276  21.829  0.00  0.00    -0.491 OA
ATOM     34  C   UNL     1      20.862   6.727  23.133  0.00  0.00    +0.277 C 
ENDBRANCH  27   5
ENDBRANCH  14  16
ENDBRANCH   9  14
BRANCH  10  15
ATOM     15  C   UNL     1      12.614   7.552  21.150  0.00  0.00    +0.124 C 
BRANCH  15  19
ATOM      3  O   UNL     1      10.334   7.254  21.959  0.00  0.00    -0.251 OA
ATOM     19  C   UNL     1      11.406   6.783  21.611  0.00  0.00    +0.305 C 
BRANCH  19   2
ATOM      2  O   UNL     1      11.674   5.452  21.589  0.00  0.00    -0.481 OA
ATOM     36  H   UNL     1      12.567   5.265  21.232  0.00  0.00    +0.295 HD
ENDBRANCH  19   2
ENDBRANCH  15  19
ENDBRANCH  10  15
TORSDOF 9
ENDMDL
MODEL 3
REMARK VINA RESULT:      -6.4     28.150     31.075
REMARK  Name = 51136599
REMARK  11 active torsions:
REMARK  status: ('A' for Active; 'I' for Inactive)
REMARK    1  A    between atoms: O_2  and  C_19
REMARK    2  A    between atoms: O_4  and  C_26
REMARK    3  A    between atoms: O_4  and  C_33
REMARK    4  A    between atoms: O_5  and  C_27
REMARK    5  A    between atoms: O_5  and  C_34
REMARK    6  A    between atoms: C_9  and  C_14
REMARK    7  A    between atoms: C_10  and  C_15
REMARK    8  A    between atoms: C_14  and  C_16
REMARK    9  A    between atoms: C_15  and  C_19
REMARK   10  A    between atoms: C_17  and  C_23
REMARK   11  A    between atoms: C_32  and  C_35
REMARK                            x       y       z     vdW  Elec       q    Type
REMARK                         _______ _______ _______ _____ _____    ______ ____
ROOT
ATOM      1  O   UNL     1      10.634   8.635  19.644  0.00  0.00    -0.270 OA
ATOM      6  N   UNL     1      12.561   7.805  20.680  0.00  0.00    -0.297 N 
ATOM      9  C   UNL     1      14.986   8.003  21.183  0.00  0.00    +0.016 C 
ATOM     10  C   UNL     1      15.255   6.890  20.137  0.00  0.00    +0.006 C 
ATOM     11  C   UNL     1      14.154   6.848  19.063  0.00  0.00    +0.023 C 
ATOM     12  C   UNL     1      13.563   7.855  21.754  0.00  0.00    +0.112 C 
ATOM     13  C   UNL     1      12.769   6.746  19.695  0.00  0.00    +0.108 C 
ATOM     17  C   UNL     1      11.473   8.670  20.543  0.00  0.00    +0.247 C 
ENDROOT
BRANCH  17  23
ATOM     23  C   UNL     1      11.296   9.721  21.551  0.00  0.00    +0.037 A 
ATOM     28  C   UNL     1      10.885   9.388  22.843  0.00  0.00    +0.014 A 
ATOM     29  C   UNL     1      11.542  11.054  21.220  0.00  0.00    +0.014 A 
ATOM     30  C   UNL     1      10.719  10.388  23.801  0.00  0.00    +0.019 A 
ATOM     31  C   UNL     1      11.376  12.053  22.178  0.00  0.00    +0.019 A 
ATOM     32  C   UNL     1      10.965  11.720  23.470  0.00  0.00    +0.052 A 
BRANCH  32  35
ATOM      8  N   UNL     1      10.655  13.574  25.250  0.00  0.00    -0.191 NA
ATOM     35  C   UNL     1      10.794  12.744  24.452  0.00  0.00    +0.099 C 
ENDBRANCH  32  35
ENDBRANCH  17  23
BRANCH   9  14
ATOM     14  C   UNL     1      15.202   9.424  20.650  0.00  0.00    +0.061 C 
BRANCH  14  16
ATOM      7  N   UNL     1      14.743  10.836  22.538  0.00  0.00    -0.287 NA
ATOM     16  C   UNL     1      15.651  10.330  21.771  0.00  0.00    +0.044 C 
ATOM     18  C   UNL     1      17.103  10.599  21.935  0.00  0.00    +0.003 A 
ATOM     20  C   UNL     1      17.455  11.714  22.706  0.00  0.00    -0.033 A 
ATOM     21  C   UNL     1      16.363  12.557  23.295  0.00  0.00    +0.059 C 
ATOM     22  C   UNL     1      15.184  11.665  23.665  0.00  0.00    +0.146 C 
ATOM     24  C   UNL     1      18.089   9.805  21.347  0.00  0.00    +0.059 A 
ATOM     25  C   UNL     1      18.803  12.045  22.866  0.00  0.00    +0.053 A 
ATOM     26  C   UNL     1      19.433  10.134  21.525  0.00  0.00    +0.162 A 
ATOM     27  C   UNL     1      19.790  11.252  22.279  0.00  0.00    +0.162 A 
BRANCH  26   4
ATOM      4  O   UNL     1      20.394   9.355  20.951  0.00  0.00    -0.491 OA
ATOM     33  C   UNL     1      20.807   8.198  21.676  0.00  0.00    +0.277 C 
ENDBRANCH  26   4
BRANCH  27   5
ATOM      5  O   UNL     1      21.101  11.583  22.448  0.00  0.00    -0.491 OA
ATOM     34  C   UNL     1      21.685  11.289  23.716  0.00  0.00    +0.277 C 
ENDBRANCH  27   5
ENDBRANCH  14  16
ENDBRANCH   9  14
BRANCH  10  15
ATOM     15  C   UNL     1      16.635   6.994  19.491  0.00  0.00    +0.124 C 
BRANCH  15  19
ATOM      3  O   UNL     1      17.823   6.267  21.491  0.00  0.00    -0.251 OA
ATOM     19  C   UNL     1      17.675   6.246  20.279  0.00  0.00    +0.305 C 
BRANCH  19   2
ATOM      2  O   UNL     1      18.455   5.521  19.436  0.00  0.00    -0.481 OA
ATOM     36  H   UNL     1      18.461   5.896  18.530  0.00  0.00    +0.295 HD
ENDBRANCH  19   2
ENDBRANCH  15  19
ENDBRANCH  10  15
TORSDOF 9
ENDMDL
MODEL 4
REMARK VINA RESULT:      -6.3      2.180      7.097
REMARK  Name = 51136599
REMARK  11 active torsions:
REMARK  status: ('A' for Active; 'I' for Inactive)
REMARK    1  A    between atoms: O_2  and  C_19
REMARK    2  A    between atoms: O_4  and  C_26
REMARK    3  A    between atoms: O_4  and  C_33
REMARK    4  A    between atoms: O_5  and  C_27
REMARK    5  A    between atoms: O_5  and  C_34
REMARK    6  A    between atoms: C_9  and  C_14
REMARK    7  A    between atoms: C_10  and  C_15
REMARK    8  A    between atoms: C_14  and  C_16
REMARK    9  A    between atoms: C_15  and  C_19
REMARK   10  A    between atoms: C_17  and  C_23
REMARK   11  A    between atoms: C_32  and  C_35
REMARK                            x       y       z     vdW  Elec       q    Type
REMARK                         _______ _______ _______ _____ _____    ______ ____
ROOT
ATOM      1  O   UNL     1      -8.284 -11.427  19.509  0.00  0.00    -0.270 OA
ATOM      6  N   UNL     1      -6.799 -10.236  18.148  0.00  0.00    -0.297 N 
ATOM      9  C   UNL     1      -5.585  -9.988  15.994  0.00  0.00    +0.016 C 
ATOM     10  C   UNL     1      -4.298 -10.477  16.708  0.00  0.00    +0.006 C 
ATOM     11  C   UNL     1      -4.627 -11.375  17.913  0.00  0.00    +0.023 C 
ATOM     12  C   UNL     1      -6.537  -9.337  17.015  0.00  0.00    +0.112 C 
ATOM     13  C   UNL     1      -5.607 -10.690  18.861  0.00  0.00    +0.108 C 
ATOM     17  C   UNL     1      -8.060 -10.671  18.565  0.00  0.00    +0.247 C 
ENDROOT
BRANCH  17  23
ATOM     23  C   UNL     1      -9.233 -10.195  17.825  0.00  0.00    +0.037 A 
ATOM     28  C   UNL     1     -10.021 -11.098  17.109  0.00  0.00    +0.014 A 
ATOM     29  C   UNL     1      -9.564  -8.840  17.839  0.00  0.00    +0.014 A 
ATOM     30  C   UNL     1     -11.138 -10.644  16.407  0.00  0.00    +0.019 A 
ATOM     31  C   UNL     1     -10.680  -8.387  17.137  0.00  0.00    +0.019 A 
ATOM     32  C   UNL     1     -11.468  -9.289  16.421  0.00  0.00    +0.052 A 
BRANCH  32  35
ATOM      8  N   UNL     1     -13.541  -8.449  15.116  0.00  0.00    -0.191 NA
ATOM     35  C   UNL     1     -12.612  -8.825  15.702  0.00  0.00    +0.099 C 
ENDBRANCH  32  35
ENDBRANCH  17  23
BRANCH   9  14
ATOM     14  C   UNL     1      -6.315 -11.084  15.208  0.00  0.00    +0.061 C 
BRANCH  14  16
ATOM      7  N   UNL     1      -8.307 -10.198  14.200  0.00  0.00    -0.287 NA
ATOM     16  C   UNL     1      -7.054 -10.472  14.042  0.00  0.00    +0.044 C 
ATOM     18  C   UNL     1      -6.316 -10.221  12.778  0.00  0.00    +0.003 A 
ATOM     20  C   UNL     1      -7.086 -10.027  11.625  0.00  0.00    -0.033 A 
ATOM     21  C   UNL     1      -8.580 -10.097  11.736  0.00  0.00    +0.059 C 
ATOM     22  C   UNL     1      -9.010  -9.546  13.089  0.00  0.00    +0.146 C 
ATOM     24  C   UNL     1      -4.921 -10.191  12.712  0.00  0.00    +0.059 A 
ATOM     25  C   UNL     1      -6.450  -9.827  10.397  0.00  0.00    +0.053 A 
ATOM     26  C   UNL     1      -4.296  -9.974  11.484  0.00  0.00    +0.162 A 
ATOM     27  C   UNL     1      -5.057  -9.796  10.328  0.00  0.00    +0.162 A 
BRANCH  26   4
ATOM      4  O   UNL     1      -2.934  -9.943  11.424  0.00  0.00    -0.491 OA
ATOM     33  C   UNL     1      -2.238 -11.077  11.937  0.00  0.00    +0.277 C 
ENDBRANCH  26   4
BRANCH  27   5
ATOM      5  O   UNL     1      -4.451  -9.593   9.125  0.00  0.00    -0.491 OA
ATOM     34  C   UNL     1      -5.207  -9.910   7.958  0.00  0.00    +0.277 C 
ENDBRANCH  27   5
ENDBRANCH  14  16
ENDBRANCH   9  14
BRANCH  10  15
ATOM     15  C   UNL     1      -3.319 -11.177  15.767  0.00  0.00    +0.124 C 
BRANCH  15  19
ATOM      3  O   UNL     1      -1.334  -9.922  15.112  0.00  0.00    -0.251 OA
ATOM     19  C   UNL     1      -1.924 -10.631  15.912  0.00  0.00    +0.305 C 
BRANCH  19   2
ATOM      2  O   UNL     1      -1.390 -11.047  17.089  0.00  0.00    -0.481 OA
ATOM     36  H   UNL     1      -1.824 -11.861  17.420  0.00  0.00    +0.295 HD
ENDBRANCH  19   2
ENDBRANCH  15  19
ENDBRANCH  10  15
TORSDOF 9
ENDMDL
MODEL 5
REMARK VINA RESULT:      -6.2     28.760     31.315
REMARK  Name = 51136599
REMARK  11 active torsions:
REMARK  status: ('A' for Active; 'I' for Inactive)
REMARK    1  A    between atoms: O_2  and  C_19
REMARK    2  A    between atoms: O_4  and  C_26
REMARK    3  A    between atoms: O_4  and  C_33
REMARK    4  A    between atoms: O_5  and  C_27
REMARK    5  A    between atoms: O_5  and  C_34
REMARK    6  A    between atoms: C_9  and  C_14
REMARK    7  A    between atoms: C_10  and  C_15
REMARK    8  A    between atoms: C_14  and  C_16
REMARK    9  A    between atoms: C_15  and  C_19
REMARK   10  A    between atoms: C_17  and  C_23
REMARK   11  A    between atoms: C_32  and  C_35
REMARK                            x       y       z     vdW  Elec       q    Type
REMARK                         _______ _______ _______ _____ _____    ______ ____
ROOT
ATOM      1  O   UNL     1      12.553   7.922  18.942  0.00  0.00    -0.270 OA
ATOM      6  N   UNL     1      14.162   7.748  20.631  0.00  0.00    -0.297 N 
ATOM      9  C   UNL     1      16.306   8.493  21.643  0.00  0.00    +0.016 C 
ATOM     10  C   UNL     1      16.970   7.206  21.089  0.00  0.00    +0.006 C 
ATOM     11  C   UNL     1      16.239   6.687  19.839  0.00  0.00    +0.023 C 
ATOM     12  C   UNL     1      14.799   8.258  21.854  0.00  0.00    +0.112 C 
ATOM     13  C   UNL     1      14.746   6.517  20.102  0.00  0.00    +0.108 C 
ATOM     17  C   UNL     1      13.086   8.342  19.968  0.00  0.00    +0.247 C 
ENDROOT
BRANCH  17  23
ATOM     23  C   UNL     1      12.526   9.577  20.528  0.00  0.00    +0.037 A 
ATOM     28  C   UNL     1      12.983  10.817  20.080  0.00  0.00    +0.014 A 
ATOM     29  C   UNL     1      11.535   9.511  21.508  0.00  0.00    +0.014 A 
ATOM     30  C   UNL     1      12.448  11.990  20.612  0.00  0.00    +0.019 A 
ATOM     31  C   UNL     1      11.001  10.684  22.040  0.00  0.00    +0.019 A 
ATOM     32  C   UNL     1      11.457  11.925  21.592  0.00  0.00    +0.052 A 
BRANCH  32  35
ATOM      8  N   UNL     1      10.467  14.103  22.579  0.00  0.00    -0.191 NA
ATOM     35  C   UNL     1      10.911  13.127  22.136  0.00  0.00    +0.099 C 
ENDBRANCH  32  35
ENDBRANCH  17  23
BRANCH   9  14
ATOM     14  C   UNL     1      16.534   9.735  20.772  0.00  0.00    +0.061 C 
BRANCH  14  16
ATOM      7  N   UNL     1      18.701  10.723  21.081  0.00  0.00    -0.287 NA
ATOM     16  C   UNL     1      17.471  10.688  21.475  0.00  0.00    +0.044 C 
ATOM     18  C   UNL     1      16.942  11.528  22.579  0.00  0.00    +0.003 A 
ATOM     20  C   UNL     1      17.883  12.096  23.447  0.00  0.00    -0.033 A 
ATOM     21  C   UNL     1      19.338  11.813  23.218  0.00  0.00    +0.059 C 
ATOM     22  C   UNL     1      19.597  11.693  21.721  0.00  0.00    +0.146 C 
ATOM     24  C   UNL     1      15.576  11.745  22.775  0.00  0.00    +0.059 A 
ATOM     25  C   UNL     1      17.447  12.864  24.530  0.00  0.00    +0.053 A 
ATOM     26  C   UNL     1      15.152  12.527  23.850  0.00  0.00    +0.162 A 
ATOM     27  C   UNL     1      16.084  13.082  24.727  0.00  0.00    +0.162 A 
BRANCH  26   4
ATOM      4  O   UNL     1      13.818  12.738  24.037  0.00  0.00    -0.491 OA
ATOM     33  C   UNL     1      13.131  11.826  24.892  0.00  0.00    +0.277 C 
ENDBRANCH  26   4
BRANCH  27   5
ATOM      5  O   UNL     1      15.673  13.839  25.784  0.00  0.00    -0.491 OA
ATOM     34  C   UNL     1      15.874  13.294  27.087  0.00  0.00    +0.277 C 
ENDBRANCH  27   5
ENDBRANCH  14  16
ENDBRANCH   9  14
BRANCH  10  15
ATOM     15  C   UNL     1      18.462   7.372  20.810  0.00  0.00    +0.124 C 
BRANCH  15  19
ATOM      3  O   UNL     1      19.934   6.046  22.230  0.00  0.00    -0.251 OA
ATOM     19  C   UNL     1      19.292   7.065  22.027  0.00  0.00    +0.305 C 
BRANCH  19   2
ATOM      2  O   UNL     1      19.232   8.105  22.898  0.00  0.00    -0.481 OA
ATOM     36  H   UNL     1      18.365   8.149  23.354  0.00  0.00    +0.295 HD
ENDBRANCH  19   2
ENDBRANCH  15  19
ENDBRANCH  10  15
TORSDOF 9
ENDMDL
MODEL 6
REMARK VINA RESULT:      -6.1     19.540     22.395
REMARK  Name = 51136599
REMARK  11 active torsions:
REMARK  status: ('A' for Active; 'I' for Inactive)
REMARK    1  A    between atoms: O_2  and  C_19
REMARK    2  A    between atoms: O_4  and  C_26
REMARK    3  A    between atoms: O_4  and  C_33
REMARK    4  A    between atoms: O_5  and  C_27
REMARK    5  A    between atoms: O_5  and  C_34
REMARK    6  A    between atoms: C_9  and  C_14
REMARK    7  A    between atoms: C_10  and  C_15
REMARK    8  A    between atoms: C_14  and  C_16
REMARK    9  A    between atoms: C_15  and  C_19
REMARK   10  A    between atoms: C_17  and  C_23
REMARK   11  A    between atoms: C_32  and  C_35
REMARK                            x       y       z     vdW  Elec       q    Type
REMARK                         _______ _______ _______ _____ _____    ______ ____
ROOT
ATOM      1  O   UNL     1     -16.288   7.363  17.004  0.00  0.00    -0.270 OA
ATOM      6  N   UNL     1     -16.256   7.534  19.337  0.00  0.00    -0.297 N 
ATOM      9  C   UNL     1     -15.005   7.441  21.483  0.00  0.00    +0.016 C 
ATOM     10  C   UNL     1     -15.636   6.050  21.746  0.00  0.00    +0.006 C 
ATOM     11  C   UNL     1     -16.008   5.340  20.432  0.00  0.00    +0.023 C 
ATOM     12  C   UNL     1     -15.925   8.269  20.566  0.00  0.00    +0.112 C 
ATOM     13  C   UNL     1     -16.881   6.230  19.552  0.00  0.00    +0.108 C 
ATOM     17  C   UNL     1     -16.017   7.978  18.035  0.00  0.00    +0.247 C 
ENDROOT
BRANCH  17  23
ATOM     23  C   UNL     1     -15.388   9.291  17.858  0.00  0.00    +0.037 A 
ATOM     28  C   UNL     1     -14.369   9.456  16.919  0.00  0.00    +0.014 A 
ATOM     29  C   UNL     1     -15.810  10.375  18.627  0.00  0.00    +0.014 A 
ATOM     30  C   UNL     1     -13.773  10.706  16.751  0.00  0.00    +0.019 A 
ATOM     31  C   UNL     1     -15.215  11.625  18.458  0.00  0.00    +0.019 A 
ATOM     32  C   UNL     1     -14.195  11.791  17.520  0.00  0.00    +0.052 A 
BRANCH  32  35
ATOM      8  N   UNL     1     -13.086  14.109  17.206  0.00  0.00    -0.191 NA
ATOM     35  C   UNL     1     -13.584  13.070  17.347  0.00  0.00    +0.099 C 
ENDBRANCH  32  35
ENDBRANCH  17  23
BRANCH   9  14
ATOM     14  C   UNL     1     -13.587   7.383  20.903  0.00  0.00    +0.061 C 
BRANCH  14  16
ATOM      7  N   UNL     1     -13.145   9.387  22.149  0.00  0.00    -0.287 NA
ATOM     16  C   UNL     1     -12.910   8.722  21.066  0.00  0.00    +0.044 C 
ATOM     18  C   UNL     1     -12.020   9.212  19.983  0.00  0.00    +0.003 A 
ATOM     20  C   UNL     1     -11.727  10.582  19.978  0.00  0.00    -0.033 A 
ATOM     21  C   UNL     1     -12.330  11.452  21.040  0.00  0.00    +0.059 C 
ATOM     22  C   UNL     1     -12.440  10.660  22.337  0.00  0.00    +0.146 C 
ATOM     24  C   UNL     1     -11.500   8.373  18.996  0.00  0.00    +0.059 A 
ATOM     25  C   UNL     1     -10.927  11.112  18.962  0.00  0.00    +0.053 A 
ATOM     26  C   UNL     1     -10.690   8.909  17.994  0.00  0.00    +0.162 A 
ATOM     27  C   UNL     1     -10.407  10.275  17.975  0.00  0.00    +0.162 A 
BRANCH  26   4
ATOM      4  O   UNL     1     -10.183   8.086  17.033  0.00  0.00    -0.491 OA
ATOM     33  C   UNL     1     -10.833   8.095  15.764  0.00  0.00    +0.277 C 
ENDBRANCH  26   4
BRANCH  27   5
ATOM      5  O   UNL     1      -9.623  10.805  16.994  0.00  0.00    -0.491 OA
ATOM     34  C   UNL     1     -10.204  11.823  16.180  0.00  0.00    +0.277 C 
ENDBRANCH  27   5
ENDBRANCH  14  16
ENDBRANCH   9  14
BRANCH  10  15
ATOM     15  C   UNL     1     -14.760   5.148  22.615  0.00  0.00    +0.124 C 
BRANCH  15  19
ATOM      3  O   UNL     1     -16.080   4.705  24.615  0.00  0.00    -0.251 OA
ATOM     19  C   UNL     1     -15.584   4.324  23.566  0.00  0.00    +0.305 C 
BRANCH  19   2
ATOM      2  O   UNL     1     -15.707   3.059  23.089  0.00  0.00    -0.481 OA
ATOM     36  H   UNL     1     -16.634   2.846  22.851  0.00  0.00    +0.295 HD
ENDBRANCH  19   2
ENDBRANCH  15  19
ENDBRANCH  10  15
TORSDOF 9
ENDMDL
MODEL 7
REMARK VINA RESULT:      -6.1      2.907      6.588
REMARK  Name = 51136599
REMARK  11 active torsions:
REMARK  status: ('A' for Active; 'I' for Inactive)
REMARK    1  A    between atoms: O_2  and  C_19
REMARK    2  A    between atoms: O_4  and  C_26
REMARK    3  A    between atoms: O_4  and  C_33
REMARK    4  A    between atoms: O_5  and  C_27
REMARK    5  A    between atoms: O_5  and  C_34
REMARK    6  A    between atoms: C_9  and  C_14
REMARK    7  A    between atoms: C_10  and  C_15
REMARK    8  A    between atoms: C_14  and  C_16
REMARK    9  A    between atoms: C_15  and  C_19
REMARK   10  A    between atoms: C_17  and  C_23
REMARK   11  A    between atoms: C_32  and  C_35
REMARK                            x       y       z     vdW  Elec       q    Type
REMARK                         _______ _______ _______ _____ _____    ______ ____
ROOT
ATOM      1  O   UNL     1      -8.580 -11.249  18.658  0.00  0.00    -0.270 OA
ATOM      6  N   UNL     1      -6.741 -10.197  17.667  0.00  0.00    -0.297 N 
ATOM      9  C   UNL     1      -5.207  -9.922  15.731  0.00  0.00    +0.016 C 
ATOM     10  C   UNL     1      -4.134 -10.718  16.518  0.00  0.00    +0.006 C 
ATOM     11  C   UNL     1      -4.775 -11.676  17.536  0.00  0.00    +0.023 C 
ATOM     12  C   UNL     1      -6.174  -9.233  16.713  0.00  0.00    +0.112 C 
ATOM     13  C   UNL     1      -5.754 -10.941  18.447  0.00  0.00    +0.108 C 
ATOM     17  C   UNL     1      -8.102 -10.441  17.864  0.00  0.00    +0.247 C 
ENDROOT
BRANCH  17  23
ATOM     23  C   UNL     1      -9.063  -9.675  17.063  0.00  0.00    +0.037 A 
ATOM     28  C   UNL     1      -9.635 -10.245  15.925  0.00  0.00    +0.014 A 
ATOM     29  C   UNL     1      -9.407  -8.377  17.441  0.00  0.00    +0.014 A 
ATOM     30  C   UNL     1     -10.550  -9.516  15.165  0.00  0.00    +0.019 A 
ATOM     31  C   UNL     1     -10.322  -7.649  16.682  0.00  0.00    +0.019 A 
ATOM     32  C   UNL     1     -10.894  -8.218  15.543  0.00  0.00    +0.052 A 
BRANCH  32  35
ATOM      8  N   UNL     1     -12.594  -6.868  14.132  0.00  0.00    -0.191 NA
ATOM     35  C   UNL     1     -11.832  -7.473  14.764  0.00  0.00    +0.099 C 
ENDBRANCH  32  35
ENDBRANCH  17  23
BRANCH   9  14
ATOM     14  C   UNL     1      -5.988 -10.765  14.716  0.00  0.00    +0.061 C 
BRANCH  14  16
ATOM      7  N   UNL     1      -4.385 -10.297  12.990  0.00  0.00    -0.287 NA
ATOM     16  C   UNL     1      -5.635 -10.334  13.313  0.00  0.00    +0.044 C 
ATOM     18  C   UNL     1      -6.732  -9.970  12.379  0.00  0.00    +0.003 A 
ATOM     20  C   UNL     1      -6.377  -9.221  11.250  0.00  0.00    -0.033 A 
ATOM     21  C   UNL     1      -4.940  -8.831  11.066  0.00  0.00    +0.059 C 
ATOM     22  C   UNL     1      -4.045  -9.938  11.609  0.00  0.00    +0.146 C 
ATOM     24  C   UNL     1      -8.063 -10.330  12.601  0.00  0.00    +0.059 A 
ATOM     25  C   UNL     1      -7.368  -8.813  10.354  0.00  0.00    +0.053 A 
ATOM     26  C   UNL     1      -9.043  -9.931  11.692  0.00  0.00    +0.162 A 
ATOM     27  C   UNL     1      -8.698  -9.172  10.573  0.00  0.00    +0.162 A 
BRANCH  26   4
ATOM      4  O   UNL     1     -10.341 -10.286  11.910  0.00  0.00    -0.491 OA
ATOM     33  C   UNL     1     -10.637 -11.682  11.919  0.00  0.00    +0.277 C 
ENDBRANCH  26   4
BRANCH  27   5
ATOM      5  O   UNL     1      -9.653  -8.772   9.687  0.00  0.00    -0.491 OA
ATOM     34  C   UNL     1      -9.228  -7.945   8.606  0.00  0.00    +0.277 C 
ENDBRANCH  27   5
ENDBRANCH  14  16
ENDBRANCH   9  14
BRANCH  10  15
ATOM     15  C   UNL     1      -3.158 -11.468  15.613  0.00  0.00    +0.124 C 
BRANCH  15  19
ATOM      3  O   UNL     1      -1.457 -10.039  14.609  0.00  0.00    -0.251 OA
ATOM     19  C   UNL     1      -1.833 -10.762  15.519  0.00  0.00    +0.305 C 
BRANCH  19   2
ATOM      2  O   UNL     1      -1.084 -11.047  16.615  0.00  0.00    -0.481 OA
ATOM     36  H   UNL     1      -1.620 -11.036  17.436  0.00  0.00    +0.295 HD
ENDBRANCH  19   2
ENDBRANCH  15  19
ENDBRANCH  10  15
TORSDOF 9
ENDMDL
MODEL 8
REMARK VINA RESULT:      -6.0      6.240     10.640
REMARK  Name = 51136599
REMARK  11 active torsions:
REMARK  status: ('A' for Active; 'I' for Inactive)
REMARK    1  A    between atoms: O_2  and  C_19
REMARK    2  A    between atoms: O_4  and  C_26
REMARK    3  A    between atoms: O_4  and  C_33
REMARK    4  A    between atoms: O_5  and  C_27
REMARK    5  A    between atoms: O_5  and  C_34
REMARK    6  A    between atoms: C_9  and  C_14
REMARK    7  A    between atoms: C_10  and  C_15
REMARK    8  A    between atoms: C_14  and  C_16
REMARK    9  A    between atoms: C_15  and  C_19
REMARK   10  A    between atoms: C_17  and  C_23
REMARK   11  A    between atoms: C_32  and  C_35
REMARK                            x       y       z     vdW  Elec       q    Type
REMARK                         _______ _______ _______ _____ _____    ______ ____
ROOT
ATOM      1  O   UNL     1     -15.609 -11.753  21.053  0.00  0.00    -0.270 OA
ATOM      6  N   UNL     1     -13.490 -10.769  20.938  0.00  0.00    -0.297 N 
ATOM      9  C   UNL     1     -11.575  -9.940  19.588  0.00  0.00    +0.016 C 
ATOM     10  C   UNL     1     -10.792 -11.218  19.985  0.00  0.00    +0.006 C 
ATOM     11  C   UNL     1     -11.741 -12.385  20.305  0.00  0.00    +0.023 C 
ATOM     12  C   UNL     1     -12.625  -9.612  20.666  0.00  0.00    +0.112 C 
ATOM     13  C   UNL     1     -12.782 -11.981  21.345  0.00  0.00    +0.108 C 
ATOM     17  C   UNL     1     -14.882 -10.786  20.831  0.00  0.00    +0.247 C 
ENDROOT
BRANCH  17  23
ATOM     23  C   UNL     1     -15.557  -9.550  20.420  0.00  0.00    +0.037 A 
ATOM     28  C   UNL     1     -15.900  -9.354  19.081  0.00  0.00    +0.014 A 
ATOM     29  C   UNL     1     -15.859  -8.572  21.367  0.00  0.00    +0.014 A 
ATOM     30  C   UNL     1     -16.544  -8.180  18.692  0.00  0.00    +0.019 A 
ATOM     31  C   UNL     1     -16.503  -7.398  20.978  0.00  0.00    +0.019 A 
ATOM     32  C   UNL     1     -16.846  -7.202  19.639  0.00  0.00    +0.052 A 
BRANCH  32  35
ATOM      8  N   UNL     1     -18.040  -5.022  18.914  0.00  0.00    -0.191 NA
ATOM     35  C   UNL     1     -17.506  -5.999  19.239  0.00  0.00    +0.099 C 
ENDBRANCH  32  35
ENDBRANCH  17  23
BRANCH   9  14
ATOM     14  C   UNL     1     -12.235 -10.018  18.207  0.00  0.00    +0.061 C 
BRANCH  14  16
ATOM      7  N   UNL     1     -10.541  -8.502  17.433  0.00  0.00    -0.287 NA
ATOM     16  C   UNL     1     -11.781  -8.857  17.355  0.00  0.00    +0.044 C 
ATOM     18  C   UNL     1     -12.772  -8.181  16.479  0.00  0.00    +0.003 A 
ATOM     20  C   UNL     1     -12.434  -6.904  16.013  0.00  0.00    -0.033 A 
ATOM     21  C   UNL     1     -11.123  -6.307  16.431  0.00  0.00    +0.059 C 
ATOM     22  C   UNL     1     -10.085  -7.415  16.560  0.00  0.00    +0.146 C 
ATOM     24  C   UNL     1     -13.995  -8.760  16.135  0.00  0.00    +0.059 A 
ATOM     25  C   UNL     1     -13.341  -6.198  15.218  0.00  0.00    +0.053 A 
ATOM     26  C   UNL     1     -14.887  -8.054  15.327  0.00  0.00    +0.162 A 
ATOM     27  C   UNL     1     -14.563  -6.775  14.872  0.00  0.00    +0.162 A 
BRANCH  26   4
ATOM      4  O   UNL     1     -16.078  -8.624  14.991  0.00  0.00    -0.491 OA
ATOM     33  C   UNL     1     -16.062  -9.588  13.940  0.00  0.00    +0.277 C 
ENDBRANCH  26   4
BRANCH  27   5
ATOM      5  O   UNL     1     -15.435  -6.078  14.091  0.00  0.00    -0.491 OA
ATOM     34  C   UNL     1     -14.909  -5.483  12.906  0.00  0.00    +0.277 C 
ENDBRANCH  27   5
ENDBRANCH  14  16
ENDBRANCH   9  14
BRANCH  10  15
ATOM     15  C   UNL     1      -9.757 -11.636  18.942  0.00  0.00    +0.124 C 
BRANCH  15  19
ATOM      3  O   UNL     1      -7.575 -11.520  20.022  0.00  0.00    -0.251 OA
ATOM     19  C   UNL     1      -8.399 -11.063  19.246  0.00  0.00    +0.305 C 
BRANCH  19   2
ATOM      2  O   UNL     1      -8.206  -9.932  18.519  0.00  0.00    -0.481 OA
ATOM     36  H   UNL     1      -9.035  -9.623  18.097  0.00  0.00    +0.295 HD
ENDBRANCH  19   2
ENDBRANCH  15  19
ENDBRANCH  10  15
TORSDOF 9
ENDMDL
MODEL 9
REMARK VINA RESULT:      -5.9      2.817      6.124
REMARK  Name = 51136599
REMARK  11 active torsions:
REMARK  status: ('A' for Active; 'I' for Inactive)
REMARK    1  A    between atoms: O_2  and  C_19
REMARK    2  A    between atoms: O_4  and  C_26
REMARK    3  A    between atoms: O_4  and  C_33
REMARK    4  A    between atoms: O_5  and  C_27
REMARK    5  A    between atoms: O_5  and  C_34
REMARK    6  A    between atoms: C_9  and  C_14
REMARK    7  A    between atoms: C_10  and  C_15
REMARK    8  A    between atoms: C_14  and  C_16
REMARK    9  A    between atoms: C_15  and  C_19
REMARK   10  A    between atoms: C_17  and  C_23
REMARK   11  A    between atoms: C_32  and  C_35
REMARK                            x       y       z     vdW  Elec       q    Type
REMARK                         _______ _______ _______ _____ _____    ______ ____
ROOT
ATOM      1  O   UNL     1      -2.218 -12.990  14.447  0.00  0.00    -0.270 OA
ATOM      6  N   UNL     1      -3.269 -11.260  13.275  0.00  0.00    -0.297 N 
ATOM      9  C   UNL     1      -5.237 -10.393  12.030  0.00  0.00    +0.016 C 
ATOM     10  C   UNL     1      -4.446 -10.598  10.712  0.00  0.00    +0.006 C 
ATOM     11  C   UNL     1      -3.390 -11.708  10.855  0.00  0.00    +0.023 C 
ATOM     12  C   UNL     1      -4.260 -10.177  13.201  0.00  0.00    +0.112 C 
ATOM     13  C   UNL     1      -2.485 -11.458  12.057  0.00  0.00    +0.108 C 
ATOM     17  C   UNL     1      -3.043 -12.080  14.382  0.00  0.00    +0.247 C 
ENDROOT
BRANCH  17  23
ATOM     23  C   UNL     1      -3.849 -11.852  15.586  0.00  0.00    +0.037 A 
ATOM     28  C   UNL     1      -4.011 -10.558  16.083  0.00  0.00    +0.014 A 
ATOM     29  C   UNL     1      -4.457 -12.928  16.233  0.00  0.00    +0.014 A 
ATOM     30  C   UNL     1      -4.780 -10.342  17.227  0.00  0.00    +0.019 A 
ATOM     31  C   UNL     1      -5.225 -12.712  17.376  0.00  0.00    +0.019 A 
ATOM     32  C   UNL     1      -5.387 -11.418  17.874  0.00  0.00    +0.052 A 
BRANCH  32  35
ATOM      8  N   UNL     1      -6.812 -11.014  19.997  0.00  0.00    -0.191 NA
ATOM     35  C   UNL     1      -6.174 -11.195  19.045  0.00  0.00    +0.099 C 
ENDBRANCH  32  35
ENDBRANCH  17  23
BRANCH   9  14
ATOM     14  C   UNL     1      -6.214 -11.530  12.353  0.00  0.00    +0.061 C 
BRANCH  14  16
ATOM      7  N   UNL     1      -7.666  -9.841  13.252  0.00  0.00    -0.287 NA
ATOM     16  C   UNL     1      -7.238 -11.056  13.356  0.00  0.00    +0.044 C 
ATOM     18  C   UNL     1      -7.698 -11.996  14.410  0.00  0.00    +0.003 A 
ATOM     20  C   UNL     1      -8.328 -11.434  15.527  0.00  0.00    -0.033 A 
ATOM     21  C   UNL     1      -8.484  -9.944  15.593  0.00  0.00    +0.059 C 
ATOM     22  C   UNL     1      -8.707  -9.399  14.187  0.00  0.00    +0.146 C 
ATOM     24  C   UNL     1      -7.508 -13.377  14.323  0.00  0.00    +0.059 A 
ATOM     25  C   UNL     1      -8.747 -12.262  16.572  0.00  0.00    +0.053 A 
ATOM     26  C   UNL     1      -7.945 -14.197  15.364  0.00  0.00    +0.162 A 
ATOM     27  C   UNL     1      -8.559 -13.642  16.487  0.00  0.00    +0.162 A 
BRANCH  26   4
ATOM      4  O   UNL     1      -7.760 -15.545  15.275  0.00  0.00    -0.491 OA
ATOM     33  C   UNL     1      -6.414 -16.015  15.269  0.00  0.00    +0.277 C 
ENDBRANCH  26   4
BRANCH  27   5
ATOM      5  O   UNL     1      -8.979 -14.438  17.511  0.00  0.00    -0.491 OA
ATOM     34  C   UNL     1      -8.992 -13.862  18.816  0.00  0.00    +0.277 C 
ENDBRANCH  27   5
ENDBRANCH  14  16
ENDBRANCH   9  14
BRANCH  10  15
ATOM     15  C   UNL     1      -5.346 -10.863   9.507  0.00  0.00    +0.124 C 
BRANCH  15  19
ATOM      3  O   UNL     1      -5.107 -10.294   7.148  0.00  0.00    -0.251 OA
ATOM     19  C   UNL     1      -4.959 -10.012   8.328  0.00  0.00    +0.305 C 
BRANCH  19   2
ATOM      2  O   UNL     1      -4.404  -8.852   8.762  0.00  0.00    -0.481 OA
ATOM     36  H   UNL     1      -3.914  -8.973   9.603  0.00  0.00    +0.295 HD
ENDBRANCH  19   2
ENDBRANCH  15  19
ENDBRANCH  10  15
TORSDOF 9
ENDMDL
MODEL 10
REMARK VINA RESULT:      -5.9     19.766     23.308
REMARK  Name = 51136599
REMARK  11 active torsions:
REMARK  status: ('A' for Active; 'I' for Inactive)
REMARK    1  A    between atoms: O_2  and  C_19
REMARK    2  A    between atoms: O_4  and  C_26
REMARK    3  A    between atoms: O_4  and  C_33
REMARK    4  A    between atoms: O_5  and  C_27
REMARK    5  A    between atoms: O_5  and  C_34
REMARK    6  A    between atoms: C_9  and  C_14
REMARK    7  A    between atoms: C_10  and  C_15
REMARK    8  A    between atoms: C_14  and  C_16
REMARK    9  A    between atoms: C_15  and  C_19
REMARK   10  A    between atoms: C_17  and  C_23
REMARK   11  A    between atoms: C_32  and  C_35
REMARK                            x       y       z     vdW  Elec       q    Type
REMARK                         _______ _______ _______ _____ _____    ______ ____
ROOT
ATOM      1  O   UNL     1       3.812 -13.627  36.537  0.00  0.00    -0.270 OA
ATOM      6  N   UNL     1       3.614 -11.341  36.081  0.00  0.00    -0.297 N 
ATOM      9  C   UNL     1       4.662  -9.172  35.471  0.00  0.00    +0.016 C 
ATOM     10  C   UNL     1       4.523  -8.732  36.952  0.00  0.00    +0.006 C 
ATOM     11  C   UNL     1       4.510  -9.943  37.901  0.00  0.00    +0.023 C 
ATOM     12  C   UNL     1       3.586 -10.219  35.131  0.00  0.00    +0.112 C 
ATOM     13  C   UNL     1       3.453 -10.961  37.483  0.00  0.00    +0.108 C 
ATOM     17  C   UNL     1       3.783 -12.686  35.745  0.00  0.00    +0.247 C 
ENDROOT
BRANCH  17  23
ATOM     23  C   UNL     1       3.941 -13.028  34.328  0.00  0.00    +0.037 A 
ATOM     28  C   UNL     1       5.216 -13.098  33.764  0.00  0.00    +0.014 A 
ATOM     29  C   UNL     1       2.817 -13.287  33.543  0.00  0.00    +0.014 A 
ATOM     30  C   UNL     1       5.365 -13.426  32.416  0.00  0.00    +0.019 A 
ATOM     31  C   UNL     1       2.966 -13.615  32.196  0.00  0.00    +0.019 A 
ATOM     32  C   UNL     1       4.241 -13.685  31.632  0.00  0.00    +0.052 A 
BRANCH  32  35
ATOM      8  N   UNL     1       4.520 -14.293  29.131  0.00  0.00    -0.191 NA
ATOM     35  C   UNL     1       4.395 -14.020  30.252  0.00  0.00    +0.099 C 
ENDBRANCH  32  35
ENDBRANCH  17  23
BRANCH   9  14
ATOM     14  C   UNL     1       6.055  -9.700  35.107  0.00  0.00    +0.061 C 
BRANCH  14  16
ATOM      7  N   UNL     1       5.938  -8.148  33.278  0.00  0.00    -0.287 NA
ATOM     16  C   UNL     1       6.416  -9.270  33.706  0.00  0.00    +0.044 C 
ATOM     18  C   UNL     1       7.291 -10.149  32.890  0.00  0.00    +0.003 A 
ATOM     20  C   UNL     1       7.292  -9.932  31.507  0.00  0.00    -0.033 A 
ATOM     21  C   UNL     1       6.414  -8.852  30.947  0.00  0.00    +0.059 C 
ATOM     22  C   UNL     1       6.339  -7.699  31.941  0.00  0.00    +0.146 C 
ATOM     24  C   UNL     1       8.074 -11.163  33.448  0.00  0.00    +0.059 A 
ATOM     25  C   UNL     1       8.063 -10.752  30.679  0.00  0.00    +0.053 A 
ATOM     26  C   UNL     1       8.853 -11.966  32.615  0.00  0.00    +0.162 A 
ATOM     27  C   UNL     1       8.846 -11.764  31.234  0.00  0.00    +0.162 A 
BRANCH  26   4
ATOM      4  O   UNL     1       9.617 -12.953  33.163  0.00  0.00    -0.491 OA
ATOM     33  C   UNL     1       8.928 -14.026  33.802  0.00  0.00    +0.277 C 
ENDBRANCH  26   4
BRANCH  27   5
ATOM      5  O   UNL     1       9.598 -12.553  30.416  0.00  0.00    -0.491 OA
ATOM     34  C   UNL     1       9.173 -12.669  29.059  0.00  0.00    +0.277 C 
ENDBRANCH  27   5
ENDBRANCH  14  16
ENDBRANCH   9  14
BRANCH  10  15
ATOM     15  C   UNL     1       5.586  -7.723  37.381  0.00  0.00    +0.124 C 
BRANCH  15  19
ATOM      3  O   UNL     1       5.487  -6.590  39.538  0.00  0.00    -0.251 OA
ATOM     19  C   UNL     1       5.055  -6.760  38.408  0.00  0.00    +0.305 C 
BRANCH  19   2
ATOM      2  O   UNL     1       3.995  -6.082  37.896  0.00  0.00    -0.481 OA
ATOM     36  H   UNL     1       3.261  -6.009  38.542  0.00  0.00    +0.295 HD
ENDBRANCH  19   2
ENDBRANCH  15  19
ENDBRANCH  10  15
TORSDOF 9
ENDMDL
