MODEL 1
REMARK VINA RESULT:      -6.4      0.000      0.000
REMARK  Name = 75536460
REMARK  9 active torsions:
REMARK  status: ('A' for Active; 'I' for Inactive)
REMARK    1  A    between atoms: O_2  and  C_10
REMARK    2  A    between atoms: N_4  and  C_9
REMARK    3  A    between atoms: N_4  and  C_17
REMARK    4  A    between atoms: N_4  and  C_18
REMARK    5  A    between atoms: N_5  and  C_15
REMARK    6  A    between atoms: C_8  and  C_16
REMARK    7  A    between atoms: C_11  and  C_15
REMARK    8  A    between atoms: C_17  and  C_19
REMARK    9  A    between atoms: C_18  and  C_20
REMARK                            x       y       z     vdW  Elec       q    Type
REMARK                         _______ _______ _______ _____ _____    ______ ____
ROOT
ATOM      4  N   UNL     1      13.824   8.025  20.419  0.00  0.00    -0.283 NA
ENDROOT
BRANCH   4   9
ATOM      1  O   UNL     1      11.838   7.575  17.405  0.00  0.00    -0.371 OA
ATOM      9  C   UNL     1      12.749   8.293  19.477  0.00  0.00    +0.114 C 
ATOM     10  C   UNL     1      13.118   9.297  18.401  0.00  0.00    +0.164 C 
ATOM     11  C   UNL     1      12.066   8.993  17.343  0.00  0.00    +0.165 C 
ATOM     14  C   UNL     1      12.377   7.079  18.643  0.00  0.00    +0.182 C 
BRANCH  10   2
ATOM      2  O   UNL     1      13.042  10.635  18.851  0.00  0.00    -0.388 OA
ATOM     30  H   UNL     1      13.218  11.222  18.096  0.00  0.00    +0.210 HD
ENDBRANCH  10   2
BRANCH  11  15
ATOM     15  C   UNL     1      12.493   9.383  15.940  0.00  0.00    +0.138 C 
BRANCH  15   5
ATOM      3  O   UNL     1      13.083  11.388  13.918  0.00  0.00    -0.276 OA
ATOM      5  N   UNL     1      13.531  10.373  15.966  0.00  0.00    -0.313 N 
ATOM     16  C   UNL     1      13.738  11.294  14.950  0.00  0.00    +0.216 C 
ATOM     29  H   UNL     1      14.134  10.405  16.784  0.00  0.00    +0.149 HD
BRANCH  16   8
ATOM      8  C   UNL     1      14.874  12.233  15.189  0.00  0.00    +0.075 C 
ATOM     12  C   UNL     1      15.725  12.028  16.398  0.00  0.00    +0.013 C 
ATOM     13  C   UNL     1      16.267  11.718  15.034  0.00  0.00    +0.013 C 
ENDBRANCH  16   8
ENDBRANCH  15   5
ENDBRANCH  11  15
ENDBRANCH   4   9
BRANCH   4  17
ATOM     17  C   UNL     1      13.350   8.155  21.800  0.00  0.00    +0.140 C 
BRANCH  17  19
ATOM      6  N   UNL     1      13.646  10.567  21.917  0.00  0.00    -0.259 NA
ATOM     19  C   UNL     1      12.797   9.527  22.078  0.00  0.00    +0.055 A 
ATOM     21  C   UNL     1      11.476   9.658  22.477  0.00  0.00    +0.024 A 
ATOM     23  C   UNL     1      10.996  10.938  22.726  0.00  0.00    +0.003 A 
ATOM     25  C   UNL     1      13.143  11.796  22.169  0.00  0.00    +0.111 A 
ATOM     27  C   UNL     1      11.838  12.034  22.571  0.00  0.00    +0.020 A 
ENDBRANCH  17  19
ENDBRANCH   4  17
BRANCH   4  18
ATOM     18  C   UNL     1      14.385   6.689  20.202  0.00  0.00    +0.140 C 
BRANCH  18  20
ATOM      7  N   UNL     1      16.443   7.410  21.281  0.00  0.00    -0.259 NA
ATOM     20  C   UNL     1      15.889   6.693  20.279  0.00  0.00    +0.055 A 
ATOM     22  C   UNL     1      16.617   5.979  19.341  0.00  0.00    +0.024 A 
ATOM     24  C   UNL     1      18.004   6.002  19.440  0.00  0.00    +0.003 A 
ATOM     26  C   UNL     1      17.793   7.410  21.345  0.00  0.00    +0.111 A 
ATOM     28  C   UNL     1      18.611   6.728  20.458  0.00  0.00    +0.020 A 
ENDBRANCH  18  20
ENDBRANCH   4  18
TORSDOF 9
ENDMDL
MODEL 2
REMARK VINA RESULT:      -6.2      1.753      2.489
REMARK  Name = 75536460
REMARK  9 active torsions:
REMARK  status: ('A' for Active; 'I' for Inactive)
REMARK    1  A    between atoms: O_2  and  C_10
REMARK    2  A    between atoms: N_4  and  C_9
REMARK    3  A    between atoms: N_4  and  C_17
REMARK    4  A    between atoms: N_4  and  C_18
REMARK    5  A    between atoms: N_5  and  C_15
REMARK    6  A    between atoms: C_8  and  C_16
REMARK    7  A    between atoms: C_11  and  C_15
REMARK    8  A    between atoms: C_17  and  C_19
REMARK    9  A    between atoms: C_18  and  C_20
REMARK                            x       y       z     vdW  Elec       q    Type
REMARK                         _______ _______ _______ _____ _____    ______ ____
ROOT
ATOM      4  N   UNL     1      14.363   7.656  19.462  0.00  0.00    -0.283 NA
ENDROOT
BRANCH   4   9
ATOM      1  O   UNL     1      13.782   8.447  15.960  0.00  0.00    -0.371 OA
ATOM      9  C   UNL     1      13.636   8.173  18.314  0.00  0.00    +0.114 C 
ATOM     10  C   UNL     1      13.942   9.627  18.004  0.00  0.00    +0.164 C 
ATOM     11  C   UNL     1      13.481   9.721  16.556  0.00  0.00    +0.165 C 
ATOM     14  C   UNL     1      14.029   7.498  17.012  0.00  0.00    +0.182 C 
BRANCH  10   2
ATOM      2  O   UNL     1      13.239  10.525  18.840  0.00  0.00    -0.388 OA
ATOM     30  H   UNL     1      12.836  10.017  19.565  0.00  0.00    +0.210 HD
ENDBRANCH  10   2
BRANCH  11  15
ATOM     15  C   UNL     1      14.170  10.827  15.777  0.00  0.00    +0.138 C 
BRANCH  15   5
ATOM      3  O   UNL     1      14.651  13.183  14.143  0.00  0.00    -0.276 OA
ATOM      5  N   UNL     1      13.278  11.432  14.830  0.00  0.00    -0.313 N 
ATOM     16  C   UNL     1      13.596  12.562  14.091  0.00  0.00    +0.216 C 
ATOM     29  H   UNL     1      12.372  10.994  14.687  0.00  0.00    +0.149 HD
BRANCH  16   8
ATOM      8  C   UNL     1      12.518  13.017  13.164  0.00  0.00    +0.075 C 
ATOM     12  C   UNL     1      12.447  12.411  11.802  0.00  0.00    +0.013 C 
ATOM     13  C   UNL     1      11.415  12.066  12.834  0.00  0.00    +0.013 C 
ENDBRANCH  16   8
ENDBRANCH  15   5
ENDBRANCH  11  15
ENDBRANCH   4   9
BRANCH   4  17
ATOM     17  C   UNL     1      13.476   6.879  20.333  0.00  0.00    +0.140 C 
BRANCH  17  19
ATOM      6  N   UNL     1      13.125   8.957  21.548  0.00  0.00    -0.259 NA
ATOM     19  C   UNL     1      12.603   7.765  21.181  0.00  0.00    +0.055 A 
ATOM     21  C   UNL     1      11.338   7.328  21.539  0.00  0.00    +0.024 A 
ATOM     23  C   UNL     1      10.557   8.170  22.322  0.00  0.00    +0.003 A 
ATOM     25  C   UNL     1      12.336   9.748  22.309  0.00  0.00    +0.111 A 
ATOM     27  C   UNL     1      11.058   9.405  22.719  0.00  0.00    +0.020 A 
ENDBRANCH  17  19
ENDBRANCH   4  17
BRANCH   4  18
ATOM     18  C   UNL     1      15.496   6.832  19.033  0.00  0.00    +0.140 C 
BRANCH  18  20
ATOM      7  N   UNL     1      17.711   6.168  19.786  0.00  0.00    -0.259 NA
ATOM     20  C   UNL     1      16.722   7.084  19.869  0.00  0.00    +0.055 A 
ATOM     22  C   UNL     1      16.778   8.217  20.665  0.00  0.00    +0.024 A 
ATOM     24  C   UNL     1      17.925   8.423  21.424  0.00  0.00    +0.003 A 
ATOM     26  C   UNL     1      18.810   6.401  20.538  0.00  0.00    +0.111 A 
ATOM     28  C   UNL     1      18.965   7.502  21.365  0.00  0.00    +0.020 A 
ENDBRANCH  18  20
ENDBRANCH   4  18
TORSDOF 9
ENDMDL
MODEL 3
REMARK VINA RESULT:      -6.0      2.799      6.404
REMARK  Name = 75536460
REMARK  9 active torsions:
REMARK  status: ('A' for Active; 'I' for Inactive)
REMARK    1  A    between atoms: O_2  and  C_10
REMARK    2  A    between atoms: N_4  and  C_9
REMARK    3  A    between atoms: N_4  and  C_17
REMARK    4  A    between atoms: N_4  and  C_18
REMARK    5  A    between atoms: N_5  and  C_15
REMARK    6  A    between atoms: C_8  and  C_16
REMARK    7  A    between atoms: C_11  and  C_15
REMARK    8  A    between atoms: C_17  and  C_19
REMARK    9  A    between atoms: C_18  and  C_20
REMARK                            x       y       z     vdW  Elec       q    Type
REMARK                         _______ _______ _______ _____ _____    ______ ____
ROOT
ATOM      4  N   UNL     1      11.736  10.727  22.199  0.00  0.00    -0.283 NA
ENDROOT
BRANCH   4   9
ATOM      1  O   UNL     1      10.751   7.372  21.197  0.00  0.00    -0.371 OA
ATOM      9  C   UNL     1      11.355   9.667  21.280  0.00  0.00    +0.114 C 
ATOM     10  C   UNL     1      12.531   8.866  20.753  0.00  0.00    +0.164 C 
ATOM     11  C   UNL     1      11.832   7.599  20.277  0.00  0.00    +0.165 C 
ATOM     14  C   UNL     1      10.522   8.582  21.940  0.00  0.00    +0.182 C 
BRANCH  10   2
ATOM      2  O   UNL     1      13.211   9.520  19.700  0.00  0.00    -0.388 OA
ATOM     30  H   UNL     1      14.043   9.880  20.050  0.00  0.00    +0.210 HD
ENDBRANCH  10   2
BRANCH  11  15
ATOM     15  C   UNL     1      12.744   6.385  20.247  0.00  0.00    +0.138 C 
BRANCH  15   5
ATOM      3  O   UNL     1      15.462   6.220  19.228  0.00  0.00    -0.276 OA
ATOM      5  N   UNL     1      13.963   6.629  20.963  0.00  0.00    -0.313 N 
ATOM     16  C   UNL     1      15.221   6.525  20.390  0.00  0.00    +0.216 C 
ATOM     29  H   UNL     1      13.891   6.908  21.938  0.00  0.00    +0.149 HD
BRANCH  16   8
ATOM      8  C   UNL     1      16.350   6.827  21.320  0.00  0.00    +0.075 C 
ATOM     12  C   UNL     1      17.717   7.001  20.748  0.00  0.00    +0.013 C 
ATOM     13  C   UNL     1      16.965   8.186  21.276  0.00  0.00    +0.013 C 
ENDBRANCH  16   8
ENDBRANCH  15   5
ENDBRANCH  11  15
ENDBRANCH   4   9
BRANCH   4  17
ATOM     17  C   UNL     1      11.469  12.044  21.615  0.00  0.00    +0.140 C 
BRANCH  17  19
ATOM      6  N   UNL     1      12.881  12.531  19.695  0.00  0.00    -0.259 NA
ATOM     19  C   UNL     1      12.710  12.662  21.030  0.00  0.00    +0.055 A 
ATOM     21  C   UNL     1      13.599  13.319  21.865  0.00  0.00    +0.024 A 
ATOM     23  C   UNL     1      14.736  13.879  21.293  0.00  0.00    +0.003 A 
ATOM     25  C   UNL     1      13.998  13.088  19.176  0.00  0.00    +0.111 A 
ATOM     27  C   UNL     1      14.947  13.766  19.924  0.00  0.00    +0.020 A 
ENDBRANCH  17  19
ENDBRANCH   4  17
BRANCH   4  18
ATOM     18  C   UNL     1      11.028  10.589  23.476  0.00  0.00    +0.140 C 
BRANCH  18  20
ATOM      7  N   UNL     1      10.293  12.589  24.648  0.00  0.00    -0.259 NA
ATOM     20  C   UNL     1      11.314  11.740  24.403  0.00  0.00    +0.055 A 
ATOM     22  C   UNL     1      12.581  11.871  24.949  0.00  0.00    +0.024 A 
ATOM     24  C   UNL     1      12.812  12.944  25.804  0.00  0.00    +0.003 A 
ATOM     26  C   UNL     1      10.555  13.619  25.482  0.00  0.00    +0.111 A 
ATOM     28  C   UNL     1      11.786  13.839  26.080  0.00  0.00    +0.020 A 
ENDBRANCH  18  20
ENDBRANCH   4  18
TORSDOF 9
ENDMDL
MODEL 4
REMARK VINA RESULT:      -5.9      0.818      4.655
REMARK  Name = 75536460
REMARK  9 active torsions:
REMARK  status: ('A' for Active; 'I' for Inactive)
REMARK    1  A    between atoms: O_2  and  C_10
REMARK    2  A    between atoms: N_4  and  C_9
REMARK    3  A    between atoms: N_4  and  C_17
REMARK    4  A    between atoms: N_4  and  C_18
REMARK    5  A    between atoms: N_5  and  C_15
REMARK    6  A    between atoms: C_8  and  C_16
REMARK    7  A    between atoms: C_11  and  C_15
REMARK    8  A    between atoms: C_17  and  C_19
REMARK    9  A    between atoms: C_18  and  C_20
REMARK                            x       y       z     vdW  Elec       q    Type
REMARK                         _______ _______ _______ _____ _____    ______ ____
ROOT
ATOM      4  N   UNL     1      14.040   7.590  20.280  0.00  0.00    -0.283 NA
ENDROOT
BRANCH   4   9
ATOM      1  O   UNL     1      11.835   7.581  17.387  0.00  0.00    -0.371 OA
ATOM      9  C   UNL     1      12.936   8.030  19.443  0.00  0.00    +0.114 C 
ATOM     10  C   UNL     1      13.324   9.094  18.432  0.00  0.00    +0.164 C 
ATOM     11  C   UNL     1      12.183   8.976  17.430  0.00  0.00    +0.165 C 
ATOM     14  C   UNL     1      12.405   6.932  18.537  0.00  0.00    +0.182 C 
BRANCH  10   2
ATOM      2  O   UNL     1      13.396  10.387  18.998  0.00  0.00    -0.388 OA
ATOM     30  H   UNL     1      14.232  10.460  19.489  0.00  0.00    +0.210 HD
ENDBRANCH  10   2
BRANCH  11  15
ATOM     15  C   UNL     1      12.554   9.455  16.038  0.00  0.00    +0.138 C 
BRANCH  15   5
ATOM      3  O   UNL     1      13.380  11.386  14.027  0.00  0.00    -0.276 OA
ATOM      5  N   UNL     1      13.702  10.314  16.070  0.00  0.00    -0.313 N 
ATOM     16  C   UNL     1      14.018  11.208  15.058  0.00  0.00    +0.216 C 
ATOM     29  H   UNL     1      14.304  10.268  16.888  0.00  0.00    +0.149 HD
BRANCH  16   8
ATOM      8  C   UNL     1      15.258  12.004  15.302  0.00  0.00    +0.075 C 
ATOM     12  C   UNL     1      15.143  13.293  16.046  0.00  0.00    +0.013 C 
ATOM     13  C   UNL     1      15.778  12.101  16.698  0.00  0.00    +0.013 C 
ENDBRANCH  16   8
ENDBRANCH  15   5
ENDBRANCH  11  15
ENDBRANCH   4   9
BRANCH   4  17
ATOM     17  C   UNL     1      15.220   8.433  20.070  0.00  0.00    +0.140 C 
BRANCH  17  19
ATOM      6  N   UNL     1      16.617   6.580  19.339  0.00  0.00    -0.259 NA
ATOM     19  C   UNL     1      16.499   7.644  20.165  0.00  0.00    +0.055 A 
ATOM     21  C   UNL     1      17.471   8.034  21.071  0.00  0.00    +0.024 A 
ATOM     23  C   UNL     1      18.640   7.284  21.134  0.00  0.00    +0.003 A 
ATOM     25  C   UNL     1      17.767   5.875  19.429  0.00  0.00    +0.111 A 
ATOM     27  C   UNL     1      18.799   6.183  20.300  0.00  0.00    +0.020 A 
ENDBRANCH  17  19
ENDBRANCH   4  17
BRANCH   4  18
ATOM     18  C   UNL     1      13.658   7.601  21.695  0.00  0.00    +0.140 C 
BRANCH  18  20
ATOM      7  N   UNL     1      13.396   9.985  22.095  0.00  0.00    -0.259 NA
ATOM     20  C   UNL     1      12.787   8.782  22.032  0.00  0.00    +0.055 A 
ATOM     22  C   UNL     1      11.434   8.584  22.256  0.00  0.00    +0.024 A 
ATOM     24  C   UNL     1      10.656   9.695  22.563  0.00  0.00    +0.003 A 
ATOM     26  C   UNL     1      12.609  11.042  22.397  0.00  0.00    +0.111 A 
ATOM     28  C   UNL     1      11.247  10.951  22.638  0.00  0.00    +0.020 A 
ENDBRANCH  18  20
ENDBRANCH   4  18
TORSDOF 9
ENDMDL
MODEL 5
REMARK VINA RESULT:      -5.8     26.344     28.672
REMARK  Name = 75536460
REMARK  9 active torsions:
REMARK  status: ('A' for Active; 'I' for Inactive)
REMARK    1  A    between atoms: O_2  and  C_10
REMARK    2  A    between atoms: N_4  and  C_9
REMARK    3  A    between atoms: N_4  and  C_17
REMARK    4  A    between atoms: N_4  and  C_18
REMARK    5  A    between atoms: N_5  and  C_15
REMARK    6  A    between atoms: C_8  and  C_16
REMARK    7  A    between atoms: C_11  and  C_15
REMARK    8  A    between atoms: C_17  and  C_19
REMARK    9  A    between atoms: C_18  and  C_20
REMARK                            x       y       z     vdW  Elec       q    Type
REMARK                         _______ _______ _______ _____ _____    ______ ____
ROOT
ATOM      4  N   UNL     1      -4.656 -11.434  16.720  0.00  0.00    -0.283 NA
ENDROOT
BRANCH   4   9
ATOM      1  O   UNL     1      -1.731 -10.657  14.702  0.00  0.00    -0.371 OA
ATOM      9  C   UNL     1      -3.323 -11.627  16.174  0.00  0.00    +0.114 C 
ATOM     10  C   UNL     1      -3.304 -12.416  14.877  0.00  0.00    +0.164 C 
ATOM     11  C   UNL     1      -1.942 -12.027  14.317  0.00  0.00    +0.165 C 
ATOM     14  C   UNL     1      -2.665 -10.327  15.745  0.00  0.00    +0.182 C 
BRANCH  10   2
ATOM      2  O   UNL     1      -3.409 -13.811  15.084  0.00  0.00    -0.388 OA
ATOM     30  H   UNL     1      -2.853 -14.261  14.425  0.00  0.00    +0.210 HD
ENDBRANCH  10   2
BRANCH  11  15
ATOM     15  C   UNL     1      -1.855 -12.155  12.807  0.00  0.00    +0.138 C 
BRANCH  15   5
ATOM      3  O   UNL     1      -3.443 -11.770  10.402  0.00  0.00    -0.276 OA
ATOM      5  N   UNL     1      -2.173 -10.916  12.159  0.00  0.00    -0.313 N 
ATOM     16  C   UNL     1      -2.942 -10.829  11.008  0.00  0.00    +0.216 C 
ATOM     29  H   UNL     1      -1.825 -10.058  12.580  0.00  0.00    +0.149 HD
BRANCH  16   8
ATOM      8  C   UNL     1      -3.149  -9.437  10.507  0.00  0.00    +0.075 C 
ATOM     12  C   UNL     1      -3.965  -9.238   9.273  0.00  0.00    +0.013 C 
ATOM     13  C   UNL     1      -4.513  -8.839  10.611  0.00  0.00    +0.013 C 
ENDBRANCH  16   8
ENDBRANCH  15   5
ENDBRANCH  11  15
ENDBRANCH   4   9
BRANCH   4  17
ATOM     17  C   UNL     1      -4.738 -11.948  18.090  0.00  0.00    +0.140 C 
BRANCH  17  19
ATOM      6  N   UNL     1      -6.648 -13.345  17.525  0.00  0.00    -0.259 NA
ATOM     19  C   UNL     1      -6.110 -12.476  18.411  0.00  0.00    +0.055 A 
ATOM     21  C   UNL     1      -6.743 -12.059  19.571  0.00  0.00    +0.024 A 
ATOM     23  C   UNL     1      -8.010 -12.565  19.838  0.00  0.00    +0.003 A 
ATOM     25  C   UNL     1      -7.880 -13.816  17.820  0.00  0.00    +0.111 A 
ATOM     27  C   UNL     1      -8.597 -13.461  18.952  0.00  0.00    +0.020 A 
ENDBRANCH  17  19
ENDBRANCH   4  17
BRANCH   4  18
ATOM     18  C   UNL     1      -5.031 -10.017  16.690  0.00  0.00    +0.140 C 
BRANCH  18  20
ATOM      7  N   UNL     1      -6.593 -10.125  14.829  0.00  0.00    -0.259 NA
ATOM     20  C   UNL     1      -6.414  -9.814  16.132  0.00  0.00    +0.055 A 
ATOM     22  C   UNL     1      -7.415  -9.330  16.959  0.00  0.00    +0.024 A 
ATOM     24  C   UNL     1      -8.682  -9.155  16.413  0.00  0.00    +0.003 A 
ATOM     26  C   UNL     1      -7.837  -9.942  14.334  0.00  0.00    +0.111 A 
ATOM     28  C   UNL     1      -8.906  -9.464  15.076  0.00  0.00    +0.020 A 
ENDBRANCH  18  20
ENDBRANCH   4  18
TORSDOF 9
ENDMDL
MODEL 6
REMARK VINA RESULT:      -5.8     12.575     15.745
REMARK  Name = 75536460
REMARK  9 active torsions:
REMARK  status: ('A' for Active; 'I' for Inactive)
REMARK    1  A    between atoms: O_2  and  C_10
REMARK    2  A    between atoms: N_4  and  C_9
REMARK    3  A    between atoms: N_4  and  C_17
REMARK    4  A    between atoms: N_4  and  C_18
REMARK    5  A    between atoms: N_5  and  C_15
REMARK    6  A    between atoms: C_8  and  C_16
REMARK    7  A    between atoms: C_11  and  C_15
REMARK    8  A    between atoms: C_17  and  C_19
REMARK    9  A    between atoms: C_18  and  C_20
REMARK                            x       y       z     vdW  Elec       q    Type
REMARK                         _______ _______ _______ _____ _____    ______ ____
ROOT
ATOM      4  N   UNL     1      10.809   7.479   5.693  0.00  0.00    -0.283 NA
ENDROOT
BRANCH   4   9
ATOM      1  O   UNL     1       9.271   6.934   2.442  0.00  0.00    -0.371 OA
ATOM      9  C   UNL     1      10.718   7.488   4.242  0.00  0.00    +0.114 C 
ATOM     10  C   UNL     1      11.205   6.205   3.593  0.00  0.00    +0.164 C 
ATOM     11  C   UNL     1      10.543   6.299   2.225  0.00  0.00    +0.165 C 
ATOM     14  C   UNL     1       9.286   7.555   3.739  0.00  0.00    +0.182 C 
BRANCH  10   2
ATOM      2  O   UNL     1      12.615   6.144   3.493  0.00  0.00    -0.388 OA
ATOM     30  H   UNL     1      12.985   6.949   3.892  0.00  0.00    +0.210 HD
ENDBRANCH  10   2
BRANCH  11  15
ATOM     15  C   UNL     1      10.336   4.948   1.564  0.00  0.00    +0.138 C 
BRANCH  15   5
ATOM      3  O   UNL     1      12.119   4.841  -0.731  0.00  0.00    -0.276 OA
ATOM      5  N   UNL     1      11.571   4.228   1.449  0.00  0.00    -0.313 N 
ATOM     16  C   UNL     1      12.360   4.236   0.308  0.00  0.00    +0.216 C 
ATOM     29  H   UNL     1      11.886   3.698   2.257  0.00  0.00    +0.149 HD
BRANCH  16   8
ATOM      8  C   UNL     1      13.604   3.418   0.411  0.00  0.00    +0.075 C 
ATOM     12  C   UNL     1      14.922   4.117   0.371  0.00  0.00    +0.013 C 
ATOM     13  C   UNL     1      14.424   3.523   1.655  0.00  0.00    +0.013 C 
ENDBRANCH  16   8
ENDBRANCH  15   5
ENDBRANCH  11  15
ENDBRANCH   4   9
BRANCH   4  17
ATOM     17  C   UNL     1      11.462   8.697   6.181  0.00  0.00    +0.140 C 
BRANCH  17  19
ATOM      6  N   UNL     1      13.569   9.623   5.394  0.00  0.00    -0.259 NA
ATOM     19  C   UNL     1      12.960   8.618   6.062  0.00  0.00    +0.055 A 
ATOM     21  C   UNL     1      13.630   7.545   6.628  0.00  0.00    +0.024 A 
ATOM     23  C   UNL     1      15.013   7.501   6.501  0.00  0.00    +0.003 A 
ATOM     25  C   UNL     1      14.914   9.546   5.291  0.00  0.00    +0.111 A 
ATOM     27  C   UNL     1      15.676   8.517   5.821  0.00  0.00    +0.020 A 
ENDBRANCH  17  19
ENDBRANCH   4  17
BRANCH   4  18
ATOM     18  C   UNL     1       9.480   7.343   6.297  0.00  0.00    +0.140 C 
BRANCH  18  20
ATOM      7  N   UNL     1       8.969   6.607   8.559  0.00  0.00    -0.259 NA
ATOM     20  C   UNL     1       9.449   6.261   7.344  0.00  0.00    +0.055 A 
ATOM     22  C   UNL     1       9.901   4.992   7.021  0.00  0.00    +0.024 A 
ATOM     24  C   UNL     1       9.857   4.014   8.010  0.00  0.00    +0.003 A 
ATOM     26  C   UNL     1       8.942   5.632   9.494  0.00  0.00    +0.111 A 
ATOM     28  C   UNL     1       9.370   4.332   9.272  0.00  0.00    +0.020 A 
ENDBRANCH  18  20
ENDBRANCH   4  18
TORSDOF 9
ENDMDL
MODEL 7
REMARK VINA RESULT:      -5.8     26.954     29.543
REMARK  Name = 75536460
REMARK  9 active torsions:
REMARK  status: ('A' for Active; 'I' for Inactive)
REMARK    1  A    between atoms: O_2  and  C_10
REMARK    2  A    between atoms: N_4  and  C_9
REMARK    3  A    between atoms: N_4  and  C_17
REMARK    4  A    between atoms: N_4  and  C_18
REMARK    5  A    between atoms: N_5  and  C_15
REMARK    6  A    between atoms: C_8  and  C_16
REMARK    7  A    between atoms: C_11  and  C_15
REMARK    8  A    between atoms: C_17  and  C_19
REMARK    9  A    between atoms: C_18  and  C_20
REMARK                            x       y       z     vdW  Elec       q    Type
REMARK                         _______ _______ _______ _____ _____    ______ ____
ROOT
ATOM      4  N   UNL     1      -7.746 -11.000  17.984  0.00  0.00    -0.283 NA
ENDROOT
BRANCH   4   9
ATOM      1  O   UNL     1      -4.218 -11.732  18.477  0.00  0.00    -0.371 OA
ATOM      9  C   UNL     1      -6.485 -11.691  17.771  0.00  0.00    +0.114 C 
ATOM     10  C   UNL     1      -5.620 -11.063  16.694  0.00  0.00    +0.164 C 
ATOM     11  C   UNL     1      -4.254 -11.636  17.043  0.00  0.00    +0.165 C 
ATOM     14  C   UNL     1      -5.562 -11.622  18.976  0.00  0.00    +0.182 C 
BRANCH  10   2
ATOM      2  O   UNL     1      -6.025 -11.423  15.388  0.00  0.00    -0.388 OA
ATOM     30  H   UNL     1      -6.038 -10.620  14.839  0.00  0.00    +0.210 HD
ENDBRANCH  10   2
BRANCH  11  15
ATOM     15  C   UNL     1      -3.099 -10.778  16.557  0.00  0.00    +0.138 C 
BRANCH  15   5
ATOM      3  O   UNL     1      -1.747 -11.911  14.247  0.00  0.00    -0.276 OA
ATOM      5  N   UNL     1      -3.264 -10.411  15.181  0.00  0.00    -0.313 N 
ATOM     16  C   UNL     1      -2.572 -11.011  14.140  0.00  0.00    +0.216 C 
ATOM     29  H   UNL     1      -3.938  -9.682  14.963  0.00  0.00    +0.149 HD
BRANCH  16   8
ATOM      8  C   UNL     1      -2.903 -10.473  12.787  0.00  0.00    +0.075 C 
ATOM     12  C   UNL     1      -1.787 -10.217  11.829  0.00  0.00    +0.013 C 
ATOM     13  C   UNL     1      -2.724 -11.365  11.603  0.00  0.00    +0.013 C 
ENDBRANCH  16   8
ENDBRANCH  15   5
ENDBRANCH  11  15
ENDBRANCH   4   9
BRANCH   4  17
ATOM     17  C   UNL     1      -8.262 -11.260  19.330  0.00  0.00    +0.140 C 
BRANCH  17  19
ATOM      6  N   UNL     1     -10.371 -12.246  18.623  0.00  0.00    -0.259 NA
ATOM     19  C   UNL     1      -9.767 -11.288  19.361  0.00  0.00    +0.055 A 
ATOM     21  C   UNL     1     -10.447 -10.352  20.124  0.00  0.00    +0.024 A 
ATOM     23  C   UNL     1     -11.836 -10.404  20.130  0.00  0.00    +0.003 A 
ATOM     25  C   UNL     1     -11.722 -12.265  18.654  0.00  0.00    +0.111 A 
ATOM     27  C   UNL     1     -12.494 -11.376  19.384  0.00  0.00    +0.020 A 
ENDBRANCH  17  19
ENDBRANCH   4  17
BRANCH   4  18
ATOM     18  C   UNL     1      -7.593  -9.558  17.773  0.00  0.00    +0.140 C 
BRANCH  18  20
ATOM      7  N   UNL     1      -8.633  -9.467  15.576  0.00  0.00    -0.259 NA
ATOM     20  C   UNL     1      -8.647  -9.010  16.848  0.00  0.00    +0.055 A 
ATOM     22  C   UNL     1      -9.560  -8.087  17.331  0.00  0.00    +0.024 A 
ATOM     24  C   UNL     1     -10.522  -7.602  16.452  0.00  0.00    +0.003 A 
ATOM     26  C   UNL     1      -9.583  -8.973  14.751  0.00  0.00    +0.111 A 
ATOM     28  C   UNL     1     -10.541  -8.048  15.135  0.00  0.00    +0.020 A 
ENDBRANCH  18  20
ENDBRANCH   4  18
TORSDOF 9
ENDMDL
MODEL 8
REMARK VINA RESULT:      -5.8     26.728     29.332
REMARK  Name = 75536460
REMARK  9 active torsions:
REMARK  status: ('A' for Active; 'I' for Inactive)
REMARK    1  A    between atoms: O_2  and  C_10
REMARK    2  A    between atoms: N_4  and  C_9
REMARK    3  A    between atoms: N_4  and  C_17
REMARK    4  A    between atoms: N_4  and  C_18
REMARK    5  A    between atoms: N_5  and  C_15
REMARK    6  A    between atoms: C_8  and  C_16
REMARK    7  A    between atoms: C_11  and  C_15
REMARK    8  A    between atoms: C_17  and  C_19
REMARK    9  A    between atoms: C_18  and  C_20
REMARK                            x       y       z     vdW  Elec       q    Type
REMARK                         _______ _______ _______ _____ _____    ______ ____
ROOT
ATOM      4  N   UNL     1      -5.875 -11.285  17.045  0.00  0.00    -0.283 NA
ENDROOT
BRANCH   4   9
ATOM      1  O   UNL     1      -9.006 -12.577  18.372  0.00  0.00    -0.371 OA
ATOM      9  C   UNL     1      -6.786 -11.792  18.058  0.00  0.00    +0.114 C 
ATOM     10  C   UNL     1      -7.601 -10.710  18.742  0.00  0.00    +0.164 C 
ATOM     11  C   UNL     1      -8.748 -11.527  19.320  0.00  0.00    +0.165 C 
ATOM     14  C   UNL     1      -7.881 -12.674  17.481  0.00  0.00    +0.182 C 
BRANCH  10   2
ATOM      2  O   UNL     1      -6.875 -10.032  19.749  0.00  0.00    -0.388 OA
ATOM     30  H   UNL     1      -6.289 -10.673  20.187  0.00  0.00    +0.210 HD
ENDBRANCH  10   2
BRANCH  11  15
ATOM     15  C   UNL     1     -10.011 -10.716  19.544  0.00  0.00    +0.138 C 
BRANCH  15   5
ATOM      3  O   UNL     1     -11.193  -9.844  17.035  0.00  0.00    -0.276 OA
ATOM      5  N   UNL     1      -9.915  -9.421  18.936  0.00  0.00    -0.313 N 
ATOM     16  C   UNL     1     -10.516  -9.094  17.729  0.00  0.00    +0.216 C 
ATOM     29  H   UNL     1      -9.388  -8.705  19.429  0.00  0.00    +0.149 HD
BRANCH  16   8
ATOM      8  C   UNL     1     -10.285  -7.688  17.285  0.00  0.00    +0.075 C 
ATOM     12  C   UNL     1     -10.142  -7.416  15.824  0.00  0.00    +0.013 C 
ATOM     13  C   UNL     1     -11.379  -6.984  16.553  0.00  0.00    +0.013 C 
ENDBRANCH  16   8
ENDBRANCH  15   5
ENDBRANCH  11  15
ENDBRANCH   4   9
BRANCH   4  17
ATOM     17  C   UNL     1      -6.271  -9.942  16.614  0.00  0.00    +0.140 C 
BRANCH  17  19
ATOM      6  N   UNL     1      -5.752  -9.798  14.241  0.00  0.00    -0.259 NA
ATOM     19  C   UNL     1      -6.720  -9.922  15.177  0.00  0.00    +0.055 A 
ATOM     21  C   UNL     1      -8.071 -10.029  14.887  0.00  0.00    +0.024 A 
ATOM     23  C   UNL     1      -8.452 -10.007  13.550  0.00  0.00    +0.003 A 
ATOM     25  C   UNL     1      -6.161  -9.781  12.953  0.00  0.00    +0.111 A 
ATOM     27  C   UNL     1      -7.485  -9.882  12.558  0.00  0.00    +0.020 A 
ENDBRANCH  17  19
ENDBRANCH   4  17
BRANCH   4  18
ATOM     18  C   UNL     1      -4.497 -11.268  17.545  0.00  0.00    +0.140 C 
BRANCH  18  20
ATOM      7  N   UNL     1      -3.792 -12.419  15.522  0.00  0.00    -0.259 NA
ATOM     20  C   UNL     1      -3.496 -11.472  16.439  0.00  0.00    +0.055 A 
ATOM     22  C   UNL     1      -2.347 -10.698  16.415  0.00  0.00    +0.024 A 
ATOM     24  C   UNL     1      -1.443 -10.910  15.379  0.00  0.00    +0.003 A 
ATOM     26  C   UNL     1      -2.890 -12.597  14.531  0.00  0.00    +0.111 A 
ATOM     28  C   UNL     1      -1.712 -11.875  14.416  0.00  0.00    +0.020 A 
ENDBRANCH  18  20
ENDBRANCH   4  18
TORSDOF 9
ENDMDL
MODEL 9
REMARK VINA RESULT:      -5.7     26.365     28.713
REMARK  Name = 75536460
REMARK  9 active torsions:
REMARK  status: ('A' for Active; 'I' for Inactive)
REMARK    1  A    between atoms: O_2  and  C_10
REMARK    2  A    between atoms: N_4  and  C_9
REMARK    3  A    between atoms: N_4  and  C_17
REMARK    4  A    between atoms: N_4  and  C_18
REMARK    5  A    between atoms: N_5  and  C_15
REMARK    6  A    between atoms: C_8  and  C_16
REMARK    7  A    between atoms: C_11  and  C_15
REMARK    8  A    between atoms: C_17  and  C_19
REMARK    9  A    between atoms: C_18  and  C_20
REMARK                            x       y       z     vdW  Elec       q    Type
REMARK                         _______ _______ _______ _____ _____    ______ ____
ROOT
ATOM      4  N   UNL     1      -2.499 -11.356  13.094  0.00  0.00    -0.283 NA
ENDROOT
BRANCH   4   9
ATOM      1  O   UNL     1      -1.939 -10.929  16.663  0.00  0.00    -0.371 OA
ATOM      9  C   UNL     1      -2.512 -10.665  14.374  0.00  0.00    +0.114 C 
ATOM     10  C   UNL     1      -3.779 -10.893  15.177  0.00  0.00    +0.164 C 
ATOM     11  C   UNL     1      -3.312 -10.512  16.576  0.00  0.00    +0.165 C 
ATOM     14  C   UNL     1      -1.451 -11.176  15.333  0.00  0.00    +0.182 C 
BRANCH  10   2
ATOM      2  O   UNL     1      -4.856 -10.086  14.743  0.00  0.00    -0.388 OA
ATOM     30  H   UNL     1      -5.148  -9.538  15.491  0.00  0.00    +0.210 HD
ENDBRANCH  10   2
BRANCH  11  15
ATOM     15  C   UNL     1      -4.120 -11.172  17.679  0.00  0.00    +0.138 C 
BRANCH  15   5
ATOM      3  O   UNL     1      -6.607 -12.644  17.364  0.00  0.00    -0.276 OA
ATOM      5  N   UNL     1      -5.455 -10.652  17.731  0.00  0.00    -0.313 N 
ATOM     16  C   UNL     1      -6.589 -11.436  17.568  0.00  0.00    +0.216 C 
ATOM     29  H   UNL     1      -5.570  -9.659  17.911  0.00  0.00    +0.149 HD
BRANCH  16   8
ATOM      8  C   UNL     1      -7.876 -10.685  17.662  0.00  0.00    +0.075 C 
ATOM     12  C   UNL     1      -7.880  -9.232  17.321  0.00  0.00    +0.013 C 
ATOM     13  C   UNL     1      -8.525 -10.224  16.399  0.00  0.00    +0.013 C 
ENDBRANCH  16   8
ENDBRANCH  15   5
ENDBRANCH  11  15
ENDBRANCH   4   9
BRANCH   4  17
ATOM     17  C   UNL     1      -2.104 -10.446  12.015  0.00  0.00    +0.140 C 
BRANCH  17  19
ATOM      6  N   UNL     1      -4.500 -10.437  11.593  0.00  0.00    -0.259 NA
ATOM     19  C   UNL     1      -3.282 -10.011  11.186  0.00  0.00    +0.055 A 
ATOM     21  C   UNL     1      -3.071  -9.215  10.072  0.00  0.00    +0.024 A 
ATOM     23  C   UNL     1      -4.180  -8.831   9.328  0.00  0.00    +0.003 A 
ATOM     25  C   UNL     1      -5.554 -10.043  10.844  0.00  0.00    +0.111 A 
ATOM     27  C   UNL     1      -5.449  -9.248   9.714  0.00  0.00    +0.020 A 
ENDBRANCH  17  19
ENDBRANCH   4  17
BRANCH   4  18
ATOM     18  C   UNL     1      -1.599 -12.511  13.135  0.00  0.00    +0.140 C 
BRANCH  18  20
ATOM      7  N   UNL     1      -2.899 -14.003  11.721  0.00  0.00    -0.259 NA
ATOM     20  C   UNL     1      -2.339 -13.807  12.935  0.00  0.00    +0.055 A 
ATOM     22  C   UNL     1      -2.408 -14.716  13.978  0.00  0.00    +0.024 A 
ATOM     24  C   UNL     1      -3.098 -15.904  13.760  0.00  0.00    +0.003 A 
ATOM     26  C   UNL     1      -3.561 -15.168  11.547  0.00  0.00    +0.111 A 
ATOM     28  C   UNL     1      -3.688 -16.142  12.525  0.00  0.00    +0.020 A 
ENDBRANCH  18  20
ENDBRANCH   4  18
TORSDOF 9
ENDMDL
MODEL 10
REMARK VINA RESULT:      -5.7     26.559     29.042
REMARK  Name = 75536460
REMARK  9 active torsions:
REMARK  status: ('A' for Active; 'I' for Inactive)
REMARK    1  A    between atoms: O_2  and  C_10
REMARK    2  A    between atoms: N_4  and  C_9
REMARK    3  A    between atoms: N_4  and  C_17
REMARK    4  A    between atoms: N_4  and  C_18
REMARK    5  A    between atoms: N_5  and  C_15
REMARK    6  A    between atoms: C_8  and  C_16
REMARK    7  A    between atoms: C_11  and  C_15
REMARK    8  A    between atoms: C_17  and  C_19
REMARK    9  A    between atoms: C_18  and  C_20
REMARK                            x       y       z     vdW  Elec       q    Type
REMARK                         _______ _______ _______ _____ _____    ______ ____
ROOT
ATOM      4  N   UNL     1      -7.615 -11.326  15.179  0.00  0.00    -0.283 NA
ENDROOT
BRANCH   4   9
ATOM      1  O   UNL     1      -5.169 -12.291  12.665  0.00  0.00    -0.371 OA
ATOM      9  C   UNL     1      -7.017 -11.391  13.855  0.00  0.00    +0.114 C 
ATOM     10  C   UNL     1      -6.017 -10.282  13.582  0.00  0.00    +0.164 C 
ATOM     11  C   UNL     1      -5.230 -10.875  12.421  0.00  0.00    +0.165 C 
ATOM     14  C   UNL     1      -6.157 -12.628  13.654  0.00  0.00    +0.182 C 
BRANCH  10   2
ATOM      2  O   UNL     1      -6.637  -9.061  13.230  0.00  0.00    -0.388 OA
ATOM     30  H   UNL     1      -6.787  -8.548  14.043  0.00  0.00    +0.210 HD
ENDBRANCH  10   2
BRANCH  11  15
ATOM     15  C   UNL     1      -3.825 -10.314  12.298  0.00  0.00    +0.138 C 
BRANCH  15   5
ATOM      3  O   UNL     1      -1.702 -12.208  12.897  0.00  0.00    -0.276 OA
ATOM      5  N   UNL     1      -3.098 -10.453  13.527  0.00  0.00    -0.313 N 
ATOM     16  C   UNL     1      -2.096 -11.392  13.722  0.00  0.00    +0.216 C 
ATOM     29  H   UNL     1      -3.326  -9.816  14.286  0.00  0.00    +0.149 HD
BRANCH  16   8
ATOM      8  C   UNL     1      -1.472 -11.356  15.078  0.00  0.00    +0.075 C 
ATOM     12  C   UNL     1      -1.018 -10.042  15.619  0.00  0.00    +0.013 C 
ATOM     13  C   UNL     1      -2.230 -10.714  16.193  0.00  0.00    +0.013 C 
ENDBRANCH  16   8
ENDBRANCH  15   5
ENDBRANCH  11  15
ENDBRANCH   4   9
BRANCH   4  17
ATOM     17  C   UNL     1      -9.077 -11.315  15.089  0.00  0.00    +0.140 C 
BRANCH  17  19
ATOM      6  N   UNL     1     -11.011 -10.238  16.100  0.00  0.00    -0.259 NA
ATOM     19  C   UNL     1      -9.680 -10.178  15.870  0.00  0.00    +0.055 A 
ATOM     21  C   UNL     1      -8.863  -9.146  16.305  0.00  0.00    +0.024 A 
ATOM     23  C   UNL     1      -9.450  -8.111  17.024  0.00  0.00    +0.003 A 
ATOM     25  C   UNL     1     -11.545  -9.214  16.801  0.00  0.00    +0.111 A 
ATOM     27  C   UNL     1     -10.816  -8.137  17.281  0.00  0.00    +0.020 A 
ENDBRANCH  17  19
ENDBRANCH   4  17
BRANCH   4  18
ATOM     18  C   UNL     1      -7.169 -12.449  16.008  0.00  0.00    +0.140 C 
BRANCH  18  20
ATOM      7  N   UNL     1      -7.415 -12.525  18.426  0.00  0.00    -0.259 NA
ATOM     20  C   UNL     1      -6.741 -12.000  17.380  0.00  0.00    +0.055 A 
ATOM     22  C   UNL     1      -5.703 -11.091  17.501  0.00  0.00    +0.024 A 
ATOM     24  C   UNL     1      -5.330 -10.697  18.782  0.00  0.00    +0.003 A 
ATOM     26  C   UNL     1      -7.026 -12.118  19.655  0.00  0.00    +0.111 A 
ATOM     28  C   UNL     1      -6.000 -11.215  19.885  0.00  0.00    +0.020 A 
ENDBRANCH  18  20
ENDBRANCH   4  18
TORSDOF 9
ENDMDL
