MODEL 1
REMARK VINA RESULT:      -6.1      0.000      0.000
REMARK  Name = 71693102
REMARK  12 active torsions:
REMARK  status: ('A' for Active; 'I' for Inactive)
REMARK    1  A    between atoms: O_2  and  C_29
REMARK    2  A    between atoms: N_4  and  C_15
REMARK    3  A    between atoms: C_8  and  C_12
REMARK    4  A    between atoms: C_9  and  C_15
REMARK    5  A    between atoms: C_11  and  C_16
REMARK    6  A    between atoms: C_12  and  C_17
REMARK    7  A    between atoms: C_12  and  C_18
REMARK    8  A    between atoms: C_13  and  C_19
REMARK    9  A    between atoms: C_16  and  C_20
REMARK   10  A    between atoms: C_21  and  C_24
REMARK   11  A    between atoms: C_24  and  C_26
REMARK   12  A    between atoms: C_26  and  C_29
REMARK                            x       y       z     vdW  Elec       q    Type
REMARK                         _______ _______ _______ _____ _____    ______ ____
ROOT
ATOM      8  C   UNL     1       8.982   8.157   5.314  0.00  0.00    +0.000 C 
ATOM      9  C   UNL     1       8.656   7.593   6.719  0.00  0.00    +0.032 C 
ATOM     10  C   UNL     1       8.693   7.104   4.233  0.00  0.00    +0.012 C 
ATOM     11  C   UNL     1       9.510   5.815   4.443  0.00  0.00    +0.022 C 
ATOM     13  C   UNL     1       9.455   5.342   5.882  0.00  0.00    -0.073 C 
ATOM     14  C   UNL     1       9.057   6.146   6.884  0.00  0.00    -0.022 C 
ATOM     19  C   UNL     1       9.823   3.907   6.137  0.00  0.00    +0.039 C 
ENDROOT
BRANCH   8  12
ATOM     12  C   UNL     1       8.192   9.435   5.016  0.00  0.00    -0.013 C 
ATOM     17  C   UNL     1       9.140  10.575   4.655  0.00  0.00    +0.007 C 
ATOM     18  C   UNL     1       7.187   9.191   3.895  0.00  0.00    +0.007 C 
ENDBRANCH   8  12
BRANCH   9  15
ATOM     15  C   UNL     1       9.315   8.434   7.819  0.00  0.00    +0.112 C 
BRANCH  15   4
ATOM      1  O   UNL     1      10.853  10.878   7.644  0.00  0.00    -0.276 OA
ATOM      4  N   UNL     1      10.720   8.556   7.591  0.00  0.00    -0.315 N 
ATOM     21  C   UNL     1      11.389   9.779   7.520  0.00  0.00    +0.214 C 
ATOM     30  H   UNL     1      11.271   7.704   7.531  0.00  0.00    +0.149 HD
BRANCH  21  24
ATOM     24  C   UNL     1      12.876   9.604   7.267  0.00  0.00    +0.107 C 
BRANCH  24  26
ATOM     26  C   UNL     1      13.162   8.663   6.102  0.00  0.00    +0.129 C 
BRANCH  26  29
ATOM      3  O   UNL     1      15.110   7.302   6.629  0.00  0.00    -0.251 OA
ATOM     29  C   UNL     1      13.895   7.418   6.546  0.00  0.00    +0.305 C 
BRANCH  29   2
ATOM      2  O   UNL     1      13.031   6.415   6.851  0.00  0.00    -0.481 OA
ATOM     32  H   UNL     1      12.358   6.288   6.150  0.00  0.00    +0.295 HD
ENDBRANCH  29   2
ENDBRANCH  26  29
ENDBRANCH  24  26
ENDBRANCH  21  24
ENDBRANCH  15   4
ENDBRANCH   9  15
BRANCH  11  16
ATOM     16  C   UNL     1      10.960   5.998   3.981  0.00  0.00    +0.082 C 
BRANCH  16  20
ATOM      5  N   UNL     1      12.402   4.686   2.414  0.00  0.00    -0.341 N 
ATOM      6  N   UNL     1      10.374   5.214   1.660  0.00  0.00    -0.213 NA
ATOM      7  N   UNL     1      10.582   4.158  -0.516  0.00  0.00    -0.234 NA
ATOM     20  C   UNL     1      11.209   5.308   2.671  0.00  0.00    +0.110 A 
ATOM     22  C   UNL     1      12.328   4.157   1.154  0.00  0.00    +0.085 A 
ATOM     23  C   UNL     1      11.057   4.499   0.708  0.00  0.00    +0.178 A 
ATOM     25  C   UNL     1      13.213   3.427   0.367  0.00  0.00    +0.031 A 
ATOM     27  C   UNL     1      12.740   3.069  -0.893  0.00  0.00    +0.022 A 
ATOM     28  C   UNL     1      11.456   3.449  -1.270  0.00  0.00    +0.113 A 
ATOM     31  H   UNL     1      13.194   4.629   3.040  0.00  0.00    +0.167 HD
ENDBRANCH  16  20
ENDBRANCH  11  16
TORSDOF 9
ENDMDL
MODEL 2
REMARK VINA RESULT:      -6.0      2.601      3.571
REMARK  Name = 71693102
REMARK  12 active torsions:
REMARK  status: ('A' for Active; 'I' for Inactive)
REMARK    1  A    between atoms: O_2  and  C_29
REMARK    2  A    between atoms: N_4  and  C_15
REMARK    3  A    between atoms: C_8  and  C_12
REMARK    4  A    between atoms: C_9  and  C_15
REMARK    5  A    between atoms: C_11  and  C_16
REMARK    6  A    between atoms: C_12  and  C_17
REMARK    7  A    between atoms: C_12  and  C_18
REMARK    8  A    between atoms: C_13  and  C_19
REMARK    9  A    between atoms: C_16  and  C_20
REMARK   10  A    between atoms: C_21  and  C_24
REMARK   11  A    between atoms: C_24  and  C_26
REMARK   12  A    between atoms: C_26  and  C_29
REMARK                            x       y       z     vdW  Elec       q    Type
REMARK                         _______ _______ _______ _____ _____    ______ ____
ROOT
ATOM      8  C   UNL     1       8.938   8.208   3.918  0.00  0.00    +0.000 C 
ATOM      9  C   UNL     1       8.225   7.164   4.814  0.00  0.00    +0.032 C 
ATOM     10  C   UNL     1       9.461   7.545   2.635  0.00  0.00    +0.012 C 
ATOM     11  C   UNL     1      10.448   6.402   2.930  0.00  0.00    +0.022 C 
ATOM     13  C   UNL     1       9.927   5.472   4.008  0.00  0.00    -0.073 C 
ATOM     14  C   UNL     1       8.923   5.825   4.832  0.00  0.00    -0.022 C 
ATOM     19  C   UNL     1      10.554   4.109   4.088  0.00  0.00    +0.039 C 
ENDROOT
BRANCH   8  12
ATOM     12  C   UNL     1       8.013   9.376   3.560  0.00  0.00    -0.013 C 
ATOM     17  C   UNL     1       8.691  10.706   3.872  0.00  0.00    +0.007 C 
ATOM     18  C   UNL     1       7.612   9.305   2.090  0.00  0.00    +0.007 C 
ENDBRANCH   8  12
BRANCH   9  15
ATOM     15  C   UNL     1       8.073   7.680   6.250  0.00  0.00    +0.112 C 
BRANCH  15   4
ATOM      1  O   UNL     1      10.851   7.819   7.045  0.00  0.00    -0.276 OA
ATOM      4  N   UNL     1       8.752   6.824   7.171  0.00  0.00    -0.315 N 
ATOM     21  C   UNL     1      10.102   6.959   7.502  0.00  0.00    +0.214 C 
ATOM     30  H   UNL     1       8.209   6.111   7.651  0.00  0.00    +0.149 HD
BRANCH  21  24
ATOM     24  C   UNL     1      10.552   5.911   8.503  0.00  0.00    +0.107 C 
BRANCH  24  26
ATOM     26  C   UNL     1       9.508   4.820   8.714  0.00  0.00    +0.129 C 
BRANCH  26  29
ATOM      3  O   UNL     1       8.086   4.487  10.661  0.00  0.00    -0.251 OA
ATOM     29  C   UNL     1       9.204   4.604  10.179  0.00  0.00    +0.305 C 
BRANCH  29   2
ATOM      2  O   UNL     1      10.341   4.552  10.921  0.00  0.00    -0.481 OA
ATOM     32  H   UNL     1      11.135   4.412  10.363  0.00  0.00    +0.295 HD
ENDBRANCH  29   2
ENDBRANCH  26  29
ENDBRANCH  24  26
ENDBRANCH  21  24
ENDBRANCH  15   4
ENDBRANCH   9  15
BRANCH  11  16
ATOM     16  C   UNL     1      11.832   6.948   3.300  0.00  0.00    +0.082 C 
BRANCH  16  20
ATOM      5  N   UNL     1      13.305   5.105   2.468  0.00  0.00    -0.341 N 
ATOM      6  N   UNL     1      13.536   7.072   1.448  0.00  0.00    -0.213 NA
ATOM      7  N   UNL     1      15.266   6.396  -0.114  0.00  0.00    -0.234 NA
ATOM     20  C   UNL     1      12.896   6.409   2.387  0.00  0.00    +0.110 A 
ATOM     22  C   UNL     1      14.274   4.917   1.518  0.00  0.00    +0.085 A 
ATOM     23  C   UNL     1      14.397   6.156   0.899  0.00  0.00    +0.178 A 
ATOM     25  C   UNL     1      15.041   3.823   1.136  0.00  0.00    +0.031 A 
ATOM     27  C   UNL     1      15.939   4.053   0.097  0.00  0.00    +0.022 A 
ATOM     28  C   UNL     1      16.007   5.320  -0.474  0.00  0.00    +0.113 A 
ATOM     31  H   UNL     1      12.958   4.408   3.113  0.00  0.00    +0.167 HD
ENDBRANCH  16  20
ENDBRANCH  11  16
TORSDOF 9
ENDMDL
MODEL 3
REMARK VINA RESULT:      -5.8     25.014     27.218
REMARK  Name = 71693102
REMARK  12 active torsions:
REMARK  status: ('A' for Active; 'I' for Inactive)
REMARK    1  A    between atoms: O_2  and  C_29
REMARK    2  A    between atoms: N_4  and  C_15
REMARK    3  A    between atoms: C_8  and  C_12
REMARK    4  A    between atoms: C_9  and  C_15
REMARK    5  A    between atoms: C_11  and  C_16
REMARK    6  A    between atoms: C_12  and  C_17
REMARK    7  A    between atoms: C_12  and  C_18
REMARK    8  A    between atoms: C_13  and  C_19
REMARK    9  A    between atoms: C_16  and  C_20
REMARK   10  A    between atoms: C_21  and  C_24
REMARK   11  A    between atoms: C_24  and  C_26
REMARK   12  A    between atoms: C_26  and  C_29
REMARK                            x       y       z     vdW  Elec       q    Type
REMARK                         _______ _______ _______ _____ _____    ______ ____
ROOT
ATOM      8  C   UNL     1      -9.333  -9.292  16.536  0.00  0.00    +0.000 C 
ATOM      9  C   UNL     1      -9.737 -10.643  17.177  0.00  0.00    +0.032 C 
ATOM     10  C   UNL     1      -9.147  -9.451  15.020  0.00  0.00    +0.012 C 
ATOM     11  C   UNL     1      -8.071 -10.496  14.672  0.00  0.00    +0.022 C 
ATOM     13  C   UNL     1      -8.247 -11.772  15.470  0.00  0.00    -0.073 C 
ATOM     14  C   UNL     1      -9.006 -11.823  16.579  0.00  0.00    -0.022 C 
ATOM     19  C   UNL     1      -7.566 -13.003  14.939  0.00  0.00    +0.039 C 
ENDROOT
BRANCH   8  12
ATOM     12  C   UNL     1     -10.367  -8.197  16.820  0.00  0.00    -0.013 C 
ATOM     17  C   UNL     1     -10.134  -6.996  15.907  0.00  0.00    +0.007 C 
ATOM     18  C   UNL     1     -11.781  -8.742  16.646  0.00  0.00    +0.007 C 
ENDBRANCH   8  12
BRANCH   9  15
ATOM     15  C   UNL     1      -9.520 -10.623  18.694  0.00  0.00    +0.112 C 
BRANCH  15   4
ATOM      1  O   UNL     1      -7.689 -12.350  20.120  0.00  0.00    -0.276 OA
ATOM      4  N   UNL     1      -8.151 -10.360  19.007  0.00  0.00    -0.315 N 
ATOM     21  C   UNL     1      -7.331 -11.251  19.703  0.00  0.00    +0.214 C 
ATOM     30  H   UNL     1      -7.736  -9.500  18.657  0.00  0.00    +0.149 HD
BRANCH  21  24
ATOM     24  C   UNL     1      -5.927 -10.707  19.893  0.00  0.00    +0.107 C 
BRANCH  24  26
ATOM     26  C   UNL     1      -5.036 -10.956  18.681  0.00  0.00    +0.129 C 
BRANCH  26  29
ATOM      3  O   UNL     1      -4.655 -13.337  18.348  0.00  0.00    -0.251 OA
ATOM     29  C   UNL     1      -4.280 -12.260  18.792  0.00  0.00    +0.305 C 
BRANCH  29   2
ATOM      2  O   UNL     1      -3.107 -12.100  19.459  0.00  0.00    -0.481 OA
ATOM     32  H   UNL     1      -2.565 -12.916  19.444  0.00  0.00    +0.295 HD
ENDBRANCH  29   2
ENDBRANCH  26  29
ENDBRANCH  24  26
ENDBRANCH  21  24
ENDBRANCH  15   4
ENDBRANCH   9  15
BRANCH  11  16
ATOM     16  C   UNL     1      -6.662  -9.922  14.859  0.00  0.00    +0.082 C 
BRANCH  16  20
ATOM      5  N   UNL     1      -6.418  -8.931  12.575  0.00  0.00    -0.341 N 
ATOM      6  N   UNL     1      -4.854 -10.402  13.171  0.00  0.00    -0.213 NA
ATOM      7  N   UNL     1      -3.563 -10.310  11.117  0.00  0.00    -0.234 NA
ATOM     20  C   UNL     1      -5.950  -9.777  13.545  0.00  0.00    +0.110 A 
ATOM     22  C   UNL     1      -5.566  -9.017  11.507  0.00  0.00    +0.085 A 
ATOM     23  C   UNL     1      -4.604  -9.938  11.904  0.00  0.00    +0.178 A 
ATOM     25  C   UNL     1      -5.529  -8.403  10.260  0.00  0.00    +0.031 A 
ATOM     27  C   UNL     1      -4.466  -8.775   9.440  0.00  0.00    +0.022 A 
ATOM     28  C   UNL     1      -3.541  -9.704   9.906  0.00  0.00    +0.113 A 
ATOM     31  H   UNL     1      -7.243  -8.350  12.636  0.00  0.00    +0.167 HD
ENDBRANCH  16  20
ENDBRANCH  11  16
TORSDOF 9
ENDMDL
MODEL 4
REMARK VINA RESULT:      -5.7     22.763     25.277
REMARK  Name = 71693102
REMARK  12 active torsions:
REMARK  status: ('A' for Active; 'I' for Inactive)
REMARK    1  A    between atoms: O_2  and  C_29
REMARK    2  A    between atoms: N_4  and  C_15
REMARK    3  A    between atoms: C_8  and  C_12
REMARK    4  A    between atoms: C_9  and  C_15
REMARK    5  A    between atoms: C_11  and  C_16
REMARK    6  A    between atoms: C_12  and  C_17
REMARK    7  A    between atoms: C_12  and  C_18
REMARK    8  A    between atoms: C_13  and  C_19
REMARK    9  A    between atoms: C_16  and  C_20
REMARK   10  A    between atoms: C_21  and  C_24
REMARK   11  A    between atoms: C_24  and  C_26
REMARK   12  A    between atoms: C_26  and  C_29
REMARK                            x       y       z     vdW  Elec       q    Type
REMARK                         _______ _______ _______ _____ _____    ______ ____
ROOT
ATOM      8  C   UNL     1      -3.381 -11.931  12.700  0.00  0.00    +0.000 C 
ATOM      9  C   UNL     1      -2.177 -10.967  12.556  0.00  0.00    +0.032 C 
ATOM     10  C   UNL     1      -3.942 -12.298  11.318  0.00  0.00    +0.012 C 
ATOM     11  C   UNL     1      -4.401 -11.060  10.527  0.00  0.00    +0.022 C 
ATOM     13  C   UNL     1      -3.366  -9.952  10.565  0.00  0.00    -0.073 C 
ATOM     14  C   UNL     1      -2.372  -9.935  11.471  0.00  0.00    -0.022 C 
ATOM     19  C   UNL     1      -3.474  -8.889   9.509  0.00  0.00    +0.039 C 
ENDROOT
BRANCH   8  12
ATOM     12  C   UNL     1      -3.002 -13.204  13.462  0.00  0.00    -0.013 C 
ATOM     17  C   UNL     1      -4.213 -13.759  14.207  0.00  0.00    +0.007 C 
ATOM     18  C   UNL     1      -2.431 -14.246  12.506  0.00  0.00    +0.007 C 
ENDBRANCH   8  12
BRANCH   9  15
ATOM     15  C   UNL     1      -1.872 -10.261  13.883  0.00  0.00    +0.112 C 
BRANCH  15   4
ATOM      1  O   UNL     1      -1.812 -10.903  16.703  0.00  0.00    -0.276 OA
ATOM      4  N   UNL     1      -2.986 -10.349  14.773  0.00  0.00    -0.315 N 
ATOM     21  C   UNL     1      -2.871 -10.666  16.127  0.00  0.00    +0.214 C 
ATOM     30  H   UNL     1      -3.907 -10.116  14.411  0.00  0.00    +0.149 HD
BRANCH  21  24
ATOM     24  C   UNL     1      -4.219 -10.690  16.825  0.00  0.00    +0.107 C 
BRANCH  24  26
ATOM     26  C   UNL     1      -4.460 -11.991  17.584  0.00  0.00    +0.129 C 
BRANCH  26  29
ATOM      3  O   UNL     1      -5.062 -11.524  19.895  0.00  0.00    -0.251 OA
ATOM     29  C   UNL     1      -4.217 -11.834  19.067  0.00  0.00    +0.305 C 
BRANCH  29   2
ATOM      2  O   UNL     1      -2.920 -12.082  19.388  0.00  0.00    -0.481 OA
ATOM     32  H   UNL     1      -2.713 -11.808  20.306  0.00  0.00    +0.295 HD
ENDBRANCH  29   2
ENDBRANCH  26  29
ENDBRANCH  24  26
ENDBRANCH  21  24
ENDBRANCH  15   4
ENDBRANCH   9  15
BRANCH  11  16
ATOM     16  C   UNL     1      -5.760 -10.558  11.027  0.00  0.00    +0.082 C 
BRANCH  16  20
ATOM      5  N   UNL     1      -7.039  -8.646  10.042  0.00  0.00    -0.341 N 
ATOM      6  N   UNL     1      -6.858 -10.459   8.761  0.00  0.00    -0.213 NA
ATOM      7  N   UNL     1      -8.108  -9.608   6.862  0.00  0.00    -0.234 NA
ATOM     20  C   UNL     1      -6.549  -9.919   9.920  0.00  0.00    +0.110 A 
ATOM     22  C   UNL     1      -7.707  -8.349   8.884  0.00  0.00    +0.085 A 
ATOM     23  C   UNL     1      -7.578  -9.492   8.105  0.00  0.00    +0.178 A 
ATOM     25  C   UNL     1      -8.395  -7.226   8.437  0.00  0.00    +0.031 A 
ATOM     27  C   UNL     1      -8.946  -7.329   7.162  0.00  0.00    +0.022 A 
ATOM     28  C   UNL     1      -8.776  -8.508   6.441  0.00  0.00    +0.113 A 
ATOM     31  H   UNL     1      -6.930  -8.038  10.842  0.00  0.00    +0.167 HD
ENDBRANCH  16  20
ENDBRANCH  11  16
TORSDOF 9
ENDMDL
MODEL 5
REMARK VINA RESULT:      -5.7     22.846     25.316
REMARK  Name = 71693102
REMARK  12 active torsions:
REMARK  status: ('A' for Active; 'I' for Inactive)
REMARK    1  A    between atoms: O_2  and  C_29
REMARK    2  A    between atoms: N_4  and  C_15
REMARK    3  A    between atoms: C_8  and  C_12
REMARK    4  A    between atoms: C_9  and  C_15
REMARK    5  A    between atoms: C_11  and  C_16
REMARK    6  A    between atoms: C_12  and  C_17
REMARK    7  A    between atoms: C_12  and  C_18
REMARK    8  A    between atoms: C_13  and  C_19
REMARK    9  A    between atoms: C_16  and  C_20
REMARK   10  A    between atoms: C_21  and  C_24
REMARK   11  A    between atoms: C_24  and  C_26
REMARK   12  A    between atoms: C_26  and  C_29
REMARK                            x       y       z     vdW  Elec       q    Type
REMARK                         _______ _______ _______ _____ _____    ______ ____
ROOT
ATOM      8  C   UNL     1      -2.991 -12.279  13.747  0.00  0.00    +0.000 C 
ATOM      9  C   UNL     1      -1.816 -11.352  14.150  0.00  0.00    +0.032 C 
ATOM     10  C   UNL     1      -2.934 -12.595  12.245  0.00  0.00    +0.012 C 
ATOM     11  C   UNL     1      -2.998 -11.323  11.379  0.00  0.00    +0.022 C 
ATOM     13  C   UNL     1      -2.050 -10.252  11.882  0.00  0.00    -0.073 C 
ATOM     14  C   UNL     1      -1.521 -10.289  13.118  0.00  0.00    -0.022 C 
ATOM     19  C   UNL     1      -1.688  -9.161  10.914  0.00  0.00    +0.039 C 
ENDROOT
BRANCH   8  12
ATOM     12  C   UNL     1      -2.988 -13.582  14.552  0.00  0.00    -0.013 C 
ATOM     17  C   UNL     1      -4.412 -13.969  14.942  0.00  0.00    +0.007 C 
ATOM     18  C   UNL     1      -2.323 -14.699  13.755  0.00  0.00    +0.007 C 
ENDBRANCH   8  12
BRANCH   9  15
ATOM     15  C   UNL     1      -2.075 -10.689  15.507  0.00  0.00    +0.112 C 
BRANCH  15   4
ATOM      1  O   UNL     1      -3.843 -11.331  17.706  0.00  0.00    -0.276 OA
ATOM      4  N   UNL     1      -3.452 -10.330  15.642  0.00  0.00    -0.315 N 
ATOM     21  C   UNL     1      -4.239 -10.681  16.741  0.00  0.00    +0.214 C 
ATOM     30  H   UNL     1      -3.866  -9.741  14.924  0.00  0.00    +0.149 HD
BRANCH  21  24
ATOM     24  C   UNL     1      -5.661 -10.167  16.613  0.00  0.00    +0.107 C 
BRANCH  24  26
ATOM     26  C   UNL     1      -6.657 -11.001  17.412  0.00  0.00    +0.129 C 
BRANCH  26  29
ATOM      3  O   UNL     1      -6.713 -10.530  19.799  0.00  0.00    -0.251 OA
ATOM     29  C   UNL     1      -7.110 -10.291  18.667  0.00  0.00    +0.305 C 
BRANCH  29   2
ATOM      2  O   UNL     1      -8.033  -9.333  18.391  0.00  0.00    -0.481 OA
ATOM     32  H   UNL     1      -7.742  -8.746  17.663  0.00  0.00    +0.295 HD
ENDBRANCH  29   2
ENDBRANCH  26  29
ENDBRANCH  24  26
ENDBRANCH  21  24
ENDBRANCH  15   4
ENDBRANCH   9  15
BRANCH  11  16
ATOM     16  C   UNL     1      -4.431 -10.788  11.288  0.00  0.00    +0.082 C 
BRANCH  16  20
ATOM      5  N   UNL     1      -4.364 -11.452   8.877  0.00  0.00    -0.341 N 
ATOM      6  N   UNL     1      -5.747  -9.783   9.389  0.00  0.00    -0.213 NA
ATOM      7  N   UNL     1      -6.586  -9.393   7.144  0.00  0.00    -0.234 NA
ATOM     20  C   UNL     1      -4.872 -10.645   9.859  0.00  0.00    +0.110 A 
ATOM     22  C   UNL     1      -4.952 -11.084   7.696  0.00  0.00    +0.085 A 
ATOM     23  C   UNL     1      -5.807 -10.045   8.043  0.00  0.00    +0.178 A 
ATOM     25  C   UNL     1      -4.835 -11.536   6.386  0.00  0.00    +0.031 A 
ATOM     27  C   UNL     1      -5.629 -10.876   5.451  0.00  0.00    +0.022 A 
ATOM     28  C   UNL     1      -6.461  -9.844   5.874  0.00  0.00    +0.113 A 
ATOM     31  H   UNL     1      -3.679 -12.185   9.000  0.00  0.00    +0.167 HD
ENDBRANCH  16  20
ENDBRANCH  11  16
TORSDOF 9
ENDMDL
MODEL 6
REMARK VINA RESULT:      -5.7     29.058     32.027
REMARK  Name = 71693102
REMARK  12 active torsions:
REMARK  status: ('A' for Active; 'I' for Inactive)
REMARK    1  A    between atoms: O_2  and  C_29
REMARK    2  A    between atoms: N_4  and  C_15
REMARK    3  A    between atoms: C_8  and  C_12
REMARK    4  A    between atoms: C_9  and  C_15
REMARK    5  A    between atoms: C_11  and  C_16
REMARK    6  A    between atoms: C_12  and  C_17
REMARK    7  A    between atoms: C_12  and  C_18
REMARK    8  A    between atoms: C_13  and  C_19
REMARK    9  A    between atoms: C_16  and  C_20
REMARK   10  A    between atoms: C_21  and  C_24
REMARK   11  A    between atoms: C_24  and  C_26
REMARK   12  A    between atoms: C_26  and  C_29
REMARK                            x       y       z     vdW  Elec       q    Type
REMARK                         _______ _______ _______ _____ _____    ______ ____
ROOT
ATOM      8  C   UNL     1     -13.261   7.968  21.153  0.00  0.00    +0.000 C 
ATOM      9  C   UNL     1     -13.967   9.265  21.622  0.00  0.00    +0.032 C 
ATOM     10  C   UNL     1     -14.294   6.863  20.885  0.00  0.00    +0.012 C 
ATOM     11  C   UNL     1     -15.135   6.536  22.133  0.00  0.00    +0.022 C 
ATOM     13  C   UNL     1     -15.648   7.791  22.810  0.00  0.00    -0.073 C 
ATOM     14  C   UNL     1     -15.122   9.004  22.559  0.00  0.00    -0.022 C 
ATOM     19  C   UNL     1     -16.810   7.628  23.749  0.00  0.00    +0.039 C 
ENDROOT
BRANCH   8  12
ATOM     12  C   UNL     1     -12.415   8.203  19.898  0.00  0.00    -0.013 C 
ATOM     17  C   UNL     1     -11.466   7.030  19.669  0.00  0.00    +0.007 C 
ATOM     18  C   UNL     1     -13.312   8.418  18.684  0.00  0.00    +0.007 C 
ENDBRANCH   8  12
BRANCH   9  15
ATOM     15  C   UNL     1     -12.974  10.224  22.289  0.00  0.00    +0.112 C 
BRANCH  15   4
ATOM      1  O   UNL     1     -11.339  11.577  24.255  0.00  0.00    -0.276 OA
ATOM      4  N   UNL     1     -13.171  10.254  23.704  0.00  0.00    -0.315 N 
ATOM     21  C   UNL     1     -12.331  10.934  24.588  0.00  0.00    +0.214 C 
ATOM     30  H   UNL     1     -13.998   9.799  24.082  0.00  0.00    +0.149 HD
BRANCH  21  24
ATOM     24  C   UNL     1     -12.782  10.790  26.030  0.00  0.00    +0.107 C 
BRANCH  24  26
ATOM     26  C   UNL     1     -11.719  11.251  27.022  0.00  0.00    +0.129 C 
BRANCH  26  29
ATOM      3  O   UNL     1     -11.489   9.883  29.022  0.00  0.00    -0.251 OA
ATOM     29  C   UNL     1     -11.191  10.108  27.857  0.00  0.00    +0.305 C 
BRANCH  29   2
ATOM      2  O   UNL     1     -10.323   9.336  27.152  0.00  0.00    -0.481 OA
ATOM     32  H   UNL     1     -10.703   9.050  26.295  0.00  0.00    +0.295 HD
ENDBRANCH  29   2
ENDBRANCH  26  29
ENDBRANCH  24  26
ENDBRANCH  21  24
ENDBRANCH  15   4
ENDBRANCH   9  15
BRANCH  11  16
ATOM     16  C   UNL     1     -14.348   5.664  23.117  0.00  0.00    +0.082 C 
BRANCH  16  20
ATOM      5  N   UNL     1     -15.228   4.194  24.940  0.00  0.00    -0.341 N 
ATOM      6  N   UNL     1     -15.908   3.700  22.877  0.00  0.00    -0.213 NA
ATOM      7  N   UNL     1     -17.297   1.799  23.470  0.00  0.00    -0.234 NA
ATOM     20  C   UNL     1     -15.174   4.510  23.609  0.00  0.00    +0.110 A 
ATOM     22  C   UNL     1     -16.052   3.109  25.073  0.00  0.00    +0.085 A 
ATOM     23  C   UNL     1     -16.460   2.822  23.776  0.00  0.00    +0.178 A 
ATOM     25  C   UNL     1     -16.480   2.358  26.163  0.00  0.00    +0.031 A 
ATOM     27  C   UNL     1     -17.339   1.304  25.865  0.00  0.00    +0.022 A 
ATOM     28  C   UNL     1     -17.704   1.079  24.541  0.00  0.00    +0.113 A 
ATOM     31  H   UNL     1     -14.746   4.674  25.689  0.00  0.00    +0.167 HD
ENDBRANCH  16  20
ENDBRANCH  11  16
TORSDOF 9
ENDMDL
MODEL 7
REMARK VINA RESULT:      -5.6     26.548     29.633
REMARK  Name = 71693102
REMARK  12 active torsions:
REMARK  status: ('A' for Active; 'I' for Inactive)
REMARK    1  A    between atoms: O_2  and  C_29
REMARK    2  A    between atoms: N_4  and  C_15
REMARK    3  A    between atoms: C_8  and  C_12
REMARK    4  A    between atoms: C_9  and  C_15
REMARK    5  A    between atoms: C_11  and  C_16
REMARK    6  A    between atoms: C_12  and  C_17
REMARK    7  A    between atoms: C_12  and  C_18
REMARK    8  A    between atoms: C_13  and  C_19
REMARK    9  A    between atoms: C_16  and  C_20
REMARK   10  A    between atoms: C_21  and  C_24
REMARK   11  A    between atoms: C_24  and  C_26
REMARK   12  A    between atoms: C_26  and  C_29
REMARK                            x       y       z     vdW  Elec       q    Type
REMARK                         _______ _______ _______ _____ _____    ______ ____
ROOT
ATOM      8  C   UNL     1     -12.909  10.478  21.243  0.00  0.00    +0.000 C 
ATOM      9  C   UNL     1     -11.670  10.595  20.320  0.00  0.00    +0.032 C 
ATOM     10  C   UNL     1     -12.857   9.170  22.047  0.00  0.00    +0.012 C 
ATOM     11  C   UNL     1     -12.808   7.929  21.137  0.00  0.00    +0.022 C 
ATOM     13  C   UNL     1     -11.786   8.083  20.029  0.00  0.00    -0.073 C 
ATOM     14  C   UNL     1     -11.278   9.281  19.687  0.00  0.00    -0.022 C 
ATOM     19  C   UNL     1     -11.325   6.822  19.353  0.00  0.00    +0.039 C 
ENDROOT
BRANCH   8  12
ATOM     12  C   UNL     1     -13.021  11.670  22.198  0.00  0.00    -0.013 C 
ATOM     17  C   UNL     1     -14.479  11.913  22.578  0.00  0.00    +0.007 C 
ATOM     18  C   UNL     1     -12.170  11.437  23.442  0.00  0.00    +0.007 C 
ENDBRANCH   8  12
BRANCH   9  15
ATOM     15  C   UNL     1     -11.895  11.643  19.224  0.00  0.00    +0.112 C 
BRANCH  15   4
ATOM      1  O   UNL     1     -14.311  10.768  17.896  0.00  0.00    -0.276 OA
ATOM      4  N   UNL     1     -11.999  11.022  17.942  0.00  0.00    -0.315 N 
ATOM     21  C   UNL     1     -13.210  10.627  17.369  0.00  0.00    +0.214 C 
ATOM     30  H   UNL     1     -11.150  10.911  17.393  0.00  0.00    +0.149 HD
BRANCH  21  24
ATOM     24  C   UNL     1     -13.017   9.994  16.003  0.00  0.00    +0.107 C 
BRANCH  24  26
ATOM     26  C   UNL     1     -12.403   8.601  16.088  0.00  0.00    +0.129 C 
BRANCH  26  29
ATOM      3  O   UNL     1     -10.223   9.645  15.803  0.00  0.00    -0.251 OA
ATOM     29  C   UNL     1     -10.898   8.636  15.958  0.00  0.00    +0.305 C 
BRANCH  29   2
ATOM      2  O   UNL     1     -10.363   7.390  16.034  0.00  0.00    -0.481 OA
ATOM     32  H   UNL     1     -10.460   7.006  16.931  0.00  0.00    +0.295 HD
ENDBRANCH  29   2
ENDBRANCH  26  29
ENDBRANCH  24  26
ENDBRANCH  21  24
ENDBRANCH  15   4
ENDBRANCH   9  15
BRANCH  11  16
ATOM     16  C   UNL     1     -14.194   7.608  20.565  0.00  0.00    +0.082 C 
BRANCH  16  20
ATOM      5  N   UNL     1     -14.335   6.026  22.497  0.00  0.00    -0.341 N 
ATOM      6  N   UNL     1     -15.932   5.827  20.957  0.00  0.00    -0.213 NA
ATOM      7  N   UNL     1     -17.135   4.001  22.010  0.00  0.00    -0.234 NA
ATOM     20  C   UNL     1     -14.849   6.483  21.313  0.00  0.00    +0.110 A 
ATOM     22  C   UNL     1     -15.142   5.009  22.931  0.00  0.00    +0.085 A 
ATOM     23  C   UNL     1     -16.126   4.906  21.955  0.00  0.00    +0.178 A 
ATOM     25  C   UNL     1     -15.123   4.181  24.049  0.00  0.00    +0.031 A 
ATOM     27  C   UNL     1     -16.153   3.246  24.120  0.00  0.00    +0.022 A 
ATOM     28  C   UNL     1     -17.103   3.203  23.104  0.00  0.00    +0.113 A 
ATOM     31  H   UNL     1     -13.510   6.375  22.965  0.00  0.00    +0.167 HD
ENDBRANCH  16  20
ENDBRANCH  11  16
TORSDOF 9
ENDMDL
MODEL 8
REMARK VINA RESULT:      -5.4     25.580     27.965
REMARK  Name = 71693102
REMARK  12 active torsions:
REMARK  status: ('A' for Active; 'I' for Inactive)
REMARK    1  A    between atoms: O_2  and  C_29
REMARK    2  A    between atoms: N_4  and  C_15
REMARK    3  A    between atoms: C_8  and  C_12
REMARK    4  A    between atoms: C_9  and  C_15
REMARK    5  A    between atoms: C_11  and  C_16
REMARK    6  A    between atoms: C_12  and  C_17
REMARK    7  A    between atoms: C_12  and  C_18
REMARK    8  A    between atoms: C_13  and  C_19
REMARK    9  A    between atoms: C_16  and  C_20
REMARK   10  A    between atoms: C_21  and  C_24
REMARK   11  A    between atoms: C_24  and  C_26
REMARK   12  A    between atoms: C_26  and  C_29
REMARK                            x       y       z     vdW  Elec       q    Type
REMARK                         _______ _______ _______ _____ _____    ______ ____
ROOT
ATOM      8  C   UNL     1      -8.165 -12.075  17.233  0.00  0.00    +0.000 C 
ATOM      9  C   UNL     1      -8.099 -12.384  18.750  0.00  0.00    +0.032 C 
ATOM     10  C   UNL     1      -6.885 -12.555  16.532  0.00  0.00    +0.012 C 
ATOM     11  C   UNL     1      -5.621 -11.892  17.110  0.00  0.00    +0.022 C 
ATOM     13  C   UNL     1      -5.613 -11.919  18.625  0.00  0.00    -0.073 C 
ATOM     14  C   UNL     1      -6.728 -12.154  19.341  0.00  0.00    -0.022 C 
ATOM     19  C   UNL     1      -4.286 -11.716  19.299  0.00  0.00    +0.039 C 
ENDROOT
BRANCH   8  12
ATOM     12  C   UNL     1      -9.390 -12.718  16.575  0.00  0.00    -0.013 C 
ATOM     17  C   UNL     1      -9.876 -11.864  15.408  0.00  0.00    +0.007 C 
ATOM     18  C   UNL     1      -9.062 -14.133  16.110  0.00  0.00    +0.007 C 
ENDBRANCH   8  12
BRANCH   9  15
ATOM     15  C   UNL     1      -9.134 -11.562  19.527  0.00  0.00    +0.112 C 
BRANCH  15   4
ATOM      1  O   UNL     1     -11.517 -10.410  18.360  0.00  0.00    -0.276 OA
ATOM      4  N   UNL     1      -9.275 -10.258  18.961  0.00  0.00    -0.315 N 
ATOM     21  C   UNL     1     -10.466  -9.776  18.415  0.00  0.00    +0.214 C 
ATOM     30  H   UNL     1      -8.479  -9.627  19.007  0.00  0.00    +0.149 HD
BRANCH  21  24
ATOM     24  C   UNL     1     -10.322  -8.360  17.887  0.00  0.00    +0.107 C 
BRANCH  24  26
ATOM     26  C   UNL     1     -11.196  -8.102  16.664  0.00  0.00    +0.129 C 
BRANCH  26  29
ATOM      3  O   UNL     1     -11.839  -5.846  16.016  0.00  0.00    -0.251 OA
ATOM     29  C   UNL     1     -10.984  -6.717  16.099  0.00  0.00    +0.305 C 
BRANCH  29   2
ATOM      2  O   UNL     1      -9.703  -6.541  15.680  0.00  0.00    -0.481 OA
ATOM     32  H   UNL     1      -9.437  -5.598  15.706  0.00  0.00    +0.295 HD
ENDBRANCH  29   2
ENDBRANCH  26  29
ENDBRANCH  24  26
ENDBRANCH  21  24
ENDBRANCH  15   4
ENDBRANCH   9  15
BRANCH  11  16
ATOM     16  C   UNL     1      -5.459 -10.461  16.586  0.00  0.00    +0.082 C 
BRANCH  16  20
ATOM      5  N   UNL     1      -3.462 -10.568  15.084  0.00  0.00    -0.341 N 
ATOM      6  N   UNL     1      -5.429 -10.312  14.071  0.00  0.00    -0.213 NA
ATOM      7  N   UNL     1      -4.587 -10.258  11.795  0.00  0.00    -0.234 NA
ATOM     20  C   UNL     1      -4.818 -10.443  15.228  0.00  0.00    +0.110 A 
ATOM     22  C   UNL     1      -3.183 -10.515  13.744  0.00  0.00    +0.085 A 
ATOM     23  C   UNL     1      -4.424 -10.356  13.138  0.00  0.00    +0.178 A 
ATOM     25  C   UNL     1      -2.007 -10.588  13.007  0.00  0.00    +0.031 A 
ATOM     27  C   UNL     1      -2.158 -10.489  11.626  0.00  0.00    +0.022 A 
ATOM     28  C   UNL     1      -3.432 -10.331  11.091  0.00  0.00    +0.113 A 
ATOM     31  H   UNL     1      -2.788 -10.678  15.830  0.00  0.00    +0.167 HD
ENDBRANCH  16  20
ENDBRANCH  11  16
TORSDOF 9
ENDMDL
MODEL 9
REMARK VINA RESULT:      -5.3     25.600     29.157
REMARK  Name = 71693102
REMARK  12 active torsions:
REMARK  status: ('A' for Active; 'I' for Inactive)
REMARK    1  A    between atoms: O_2  and  C_29
REMARK    2  A    between atoms: N_4  and  C_15
REMARK    3  A    between atoms: C_8  and  C_12
REMARK    4  A    between atoms: C_9  and  C_15
REMARK    5  A    between atoms: C_11  and  C_16
REMARK    6  A    between atoms: C_12  and  C_17
REMARK    7  A    between atoms: C_12  and  C_18
REMARK    8  A    between atoms: C_13  and  C_19
REMARK    9  A    between atoms: C_16  and  C_20
REMARK   10  A    between atoms: C_21  and  C_24
REMARK   11  A    between atoms: C_24  and  C_26
REMARK   12  A    between atoms: C_26  and  C_29
REMARK                            x       y       z     vdW  Elec       q    Type
REMARK                         _______ _______ _______ _____ _____    ______ ____
ROOT
ATOM      8  C   UNL     1     -10.882  10.372  17.246  0.00  0.00    +0.000 C 
ATOM      9  C   UNL     1     -10.760   8.868  16.895  0.00  0.00    +0.032 C 
ATOM     10  C   UNL     1     -10.336  10.640  18.657  0.00  0.00    +0.012 C 
ATOM     11  C   UNL     1     -11.079   9.827  19.732  0.00  0.00    +0.022 C 
ATOM     13  C   UNL     1     -11.236   8.373  19.332  0.00  0.00    -0.073 C 
ATOM     14  C   UNL     1     -11.076   7.961  18.061  0.00  0.00    -0.022 C 
ATOM     19  C   UNL     1     -11.535   7.396  20.433  0.00  0.00    +0.039 C 
ENDROOT
BRANCH   8  12
ATOM     12  C   UNL     1     -10.149  11.254  16.230  0.00  0.00    -0.013 C 
ATOM     17  C   UNL     1     -11.150  12.030  15.379  0.00  0.00    +0.007 C 
ATOM     18  C   UNL     1      -9.193  12.205  16.943  0.00  0.00    +0.007 C 
ENDBRANCH   8  12
BRANCH   9  15
ATOM     15  C   UNL     1     -11.658   8.504  15.707  0.00  0.00    +0.112 C 
BRANCH  15   4
ATOM      1  O   UNL     1     -14.082  10.082  15.699  0.00  0.00    -0.276 OA
ATOM      4  N   UNL     1     -12.953   8.100  16.154  0.00  0.00    -0.315 N 
ATOM     21  C   UNL     1     -14.077   8.926  16.117  0.00  0.00    +0.214 C 
ATOM     30  H   UNL     1     -13.074   7.140  16.467  0.00  0.00    +0.149 HD
BRANCH  21  24
ATOM     24  C   UNL     1     -15.315   8.234  16.657  0.00  0.00    +0.107 C 
BRANCH  24  26
ATOM     26  C   UNL     1     -15.175   7.854  18.128  0.00  0.00    +0.129 C 
BRANCH  26  29
ATOM      3  O   UNL     1     -16.216   9.983  18.683  0.00  0.00    -0.251 OA
ATOM     29  C   UNL     1     -15.683   8.942  19.044  0.00  0.00    +0.305 C 
BRANCH  29   2
ATOM      2  O   UNL     1     -15.475   8.630  20.350  0.00  0.00    -0.481 OA
ATOM     32  H   UNL     1     -14.615   8.969  20.674  0.00  0.00    +0.295 HD
ENDBRANCH  29   2
ENDBRANCH  26  29
ENDBRANCH  24  26
ENDBRANCH  21  24
ENDBRANCH  15   4
ENDBRANCH   9  15
BRANCH  11  16
ATOM     16  C   UNL     1     -12.438  10.455  20.060  0.00  0.00    +0.082 C 
BRANCH  16  20
ATOM      5  N   UNL     1     -11.887  11.369  22.322  0.00  0.00    -0.341 N 
ATOM      6  N   UNL     1     -13.556   9.896  22.247  0.00  0.00    -0.213 NA
ATOM      7  N   UNL     1     -14.065   9.903  24.621  0.00  0.00    -0.234 NA
ATOM     20  C   UNL     1     -12.657  10.548  21.543  0.00  0.00    +0.110 A 
ATOM     22  C   UNL     1     -12.320  11.237  23.614  0.00  0.00    +0.085 A 
ATOM     23  C   UNL     1     -13.358  10.315  23.539  0.00  0.00    +0.178 A 
ATOM     25  C   UNL     1     -11.930  11.810  24.819  0.00  0.00    +0.031 A 
ATOM     27  C   UNL     1     -12.645  11.397  25.940  0.00  0.00    +0.022 A 
ATOM     28  C   UNL     1     -13.672  10.470  25.786  0.00  0.00    +0.113 A 
ATOM     31  H   UNL     1     -11.134  11.964  22.003  0.00  0.00    +0.167 HD
ENDBRANCH  16  20
ENDBRANCH  11  16
TORSDOF 9
ENDMDL
MODEL 10
REMARK VINA RESULT:      -5.3     25.266     27.693
REMARK  Name = 71693102
REMARK  12 active torsions:
REMARK  status: ('A' for Active; 'I' for Inactive)
REMARK    1  A    between atoms: O_2  and  C_29
REMARK    2  A    between atoms: N_4  and  C_15
REMARK    3  A    between atoms: C_8  and  C_12
REMARK    4  A    between atoms: C_9  and  C_15
REMARK    5  A    between atoms: C_11  and  C_16
REMARK    6  A    between atoms: C_12  and  C_17
REMARK    7  A    between atoms: C_12  and  C_18
REMARK    8  A    between atoms: C_13  and  C_19
REMARK    9  A    between atoms: C_16  and  C_20
REMARK   10  A    between atoms: C_21  and  C_24
REMARK   11  A    between atoms: C_24  and  C_26
REMARK   12  A    between atoms: C_26  and  C_29
REMARK                            x       y       z     vdW  Elec       q    Type
REMARK                         _______ _______ _______ _____ _____    ______ ____
ROOT
ATOM      8  C   UNL     1      -7.478 -12.544  17.199  0.00  0.00    +0.000 C 
ATOM      9  C   UNL     1      -6.594 -12.244  18.435  0.00  0.00    +0.032 C 
ATOM     10  C   UNL     1      -6.602 -12.786  15.960  0.00  0.00    +0.012 C 
ATOM     11  C   UNL     1      -5.705 -11.577  15.636  0.00  0.00    +0.022 C 
ATOM     13  C   UNL     1      -5.000 -11.052  16.870  0.00  0.00    -0.073 C 
ATOM     14  C   UNL     1      -5.404 -11.371  18.114  0.00  0.00    -0.022 C 
ATOM     19  C   UNL     1      -3.793 -10.187  16.644  0.00  0.00    +0.039 C 
ENDROOT
BRANCH   8  12
ATOM     12  C   UNL     1      -8.391 -13.752  17.432  0.00  0.00    -0.013 C 
ATOM     17  C   UNL     1      -9.762 -13.511  16.808  0.00  0.00    +0.007 C 
ATOM     18  C   UNL     1      -7.754 -15.018  16.868  0.00  0.00    +0.007 C 
ENDBRANCH   8  12
BRANCH   9  15
ATOM     15  C   UNL     1      -7.414 -11.595  19.556  0.00  0.00    +0.112 C 
BRANCH  15   4
ATOM      1  O   UNL     1     -10.268 -11.504  20.021  0.00  0.00    -0.276 OA
ATOM      4  N   UNL     1      -8.347 -10.653  19.023  0.00  0.00    -0.315 N 
ATOM     21  C   UNL     1      -9.716 -10.679  19.297  0.00  0.00    +0.214 C 
ATOM     30  H   UNL     1      -7.986  -9.891  18.455  0.00  0.00    +0.149 HD
BRANCH  21  24
ATOM     24  C   UNL     1     -10.461  -9.560  18.593  0.00  0.00    +0.107 C 
BRANCH  24  26
ATOM     26  C   UNL     1     -10.043  -9.408  17.135  0.00  0.00    +0.129 C 
BRANCH  26  29
ATOM      3  O   UNL     1     -10.816  -7.100  17.133  0.00  0.00    -0.251 OA
ATOM     29  C   UNL     1     -10.080  -7.967  16.682  0.00  0.00    +0.305 C 
BRANCH  29   2
ATOM      2  O   UNL     1      -9.179  -7.734  15.692  0.00  0.00    -0.481 OA
ATOM     32  H   UNL     1      -8.286  -8.060  15.927  0.00  0.00    +0.295 HD
ENDBRANCH  29   2
ENDBRANCH  26  29
ENDBRANCH  24  26
ENDBRANCH  21  24
ENDBRANCH  15   4
ENDBRANCH   9  15
BRANCH  11  16
ATOM     16  C   UNL     1      -6.504 -10.466  14.945  0.00  0.00    +0.082 C 
BRANCH  16  20
ATOM      5  N   UNL     1      -4.638 -10.523  13.280  0.00  0.00    -0.341 N 
ATOM      6  N   UNL     1      -6.423  -9.323  12.701  0.00  0.00    -0.213 NA
ATOM      7  N   UNL     1      -5.601  -8.592  10.537  0.00  0.00    -0.234 NA
ATOM     20  C   UNL     1      -5.886 -10.083  13.631  0.00  0.00    +0.110 A 
ATOM     22  C   UNL     1      -4.353 -10.012  12.042  0.00  0.00    +0.085 A 
ATOM     23  C   UNL     1      -5.480  -9.270  11.706  0.00  0.00    +0.178 A 
ATOM     25  C   UNL     1      -3.258 -10.114  11.192  0.00  0.00    +0.031 A 
ATOM     27  C   UNL     1      -3.366  -9.423   9.988  0.00  0.00    +0.022 A 
ATOM     28  C   UNL     1      -4.526  -8.701   9.721  0.00  0.00    +0.113 A 
ATOM     31  H   UNL     1      -4.034 -11.115  13.834  0.00  0.00    +0.167 HD
ENDBRANCH  16  20
ENDBRANCH  11  16
TORSDOF 9
ENDMDL
