MODEL 1
REMARK VINA RESULT:      -7.1      0.000      0.000
REMARK  Name = 7142772
REMARK  3 active torsions:
REMARK  status: ('A' for Active; 'I' for Inactive)
REMARK    1  A    between atoms: N_6  and  C_21
REMARK    2  A    between atoms: N_7  and  C_19
REMARK    3  A    between atoms: C_22  and  C_25
REMARK                            x       y       z     vdW  Elec       q    Type
REMARK                         _______ _______ _______ _____ _____    ______ ____
ROOT
ATOM      1  O   UNL     1      14.080   6.579   7.153  0.00  0.00    -0.266 OA
ATOM      2  O   UNL     1      10.104   4.073   4.871  0.00  0.00    -0.252 OA
ATOM      4  N   UNL     1       9.393   6.205   5.422  0.00  0.00    -0.284 N 
ATOM      5  N   UNL     1      12.010   7.545   6.659  0.00  0.00    -0.310 N 
ATOM      6  N   UNL     1      10.031   5.688   3.209  0.00  0.00    -0.269 N 
ATOM      9  C   UNL     1       9.837   6.824   7.802  0.00  0.00    +0.027 C 
ATOM     10  C   UNL     1       9.784   8.575   6.079  0.00  0.00    +0.054 C 
ATOM     11  C   UNL     1       9.373   8.246   7.511  0.00  0.00    +0.018 C 
ATOM     12  C   UNL     1       9.180   5.836   6.825  0.00  0.00    +0.114 C 
ATOM     13  C   UNL     1      11.367   6.775   7.732  0.00  0.00    +0.130 C 
ATOM     14  C   UNL     1       9.085   7.610   5.098  0.00  0.00    +0.119 C 
ATOM     15  C   UNL     1      11.289   8.477   5.905  0.00  0.00    +0.027 A 
ATOM     16  C   UNL     1      11.920   9.254   5.009  0.00  0.00    +0.024 A 
ATOM     17  C   UNL     1      13.400   7.375   6.502  0.00  0.00    +0.273 A 
ATOM     18  C   UNL     1       9.871   5.232   4.516  0.00  0.00    +0.306 C 
ATOM     19  C   UNL     1      14.061   8.241   5.476  0.00  0.00    +0.099 A 
ATOM     20  C   UNL     1      13.333   9.130   4.791  0.00  0.00    +0.030 A 
ATOM     33  H   UNL     1       9.443   6.450   2.891  0.00  0.00    +0.156 HD
ENDROOT
BRANCH   6  21
ATOM     21  C   UNL     1      10.907   5.171   2.223  0.00  0.00    +0.035 A 
ATOM     23  C   UNL     1      12.282   5.211   2.429  0.00  0.00    +0.023 A 
ATOM     24  C   UNL     1      10.386   4.626   1.052  0.00  0.00    +0.023 A 
ATOM     26  C   UNL     1      13.145   4.704   1.458  0.00  0.00    +0.002 A 
ATOM     27  C   UNL     1      11.249   4.117   0.081  0.00  0.00    +0.002 A 
ATOM     28  C   UNL     1      12.628   4.156   0.283  0.00  0.00    +0.000 A 
ENDBRANCH   6  21
BRANCH  19   7
ATOM      3  O   UNL     1      16.063   9.950   6.480  0.00  0.00    -0.270 OA
ATOM      7  N   UNL     1      15.403   8.093   5.281  0.00  0.00    -0.277 N 
ATOM     22  C   UNL     1      16.361   8.966   5.799  0.00  0.00    +0.248 C 
ATOM     34  H   UNL     1      15.703   7.179   4.954  0.00  0.00    +0.155 HD
BRANCH  22  25
ATOM      8  N   UNL     1      20.402   7.962   4.953  0.00  0.00    -0.263 NA
ATOM     25  C   UNL     1      17.759   8.619   5.506  0.00  0.00    +0.040 A 
ATOM     29  C   UNL     1      18.101   8.171   4.243  0.00  0.00    +0.033 A 
ATOM     30  C   UNL     1      18.715   8.745   6.497  0.00  0.00    +0.033 A 
ATOM     31  C   UNL     1      19.431   7.856   4.018  0.00  0.00    +0.111 A 
ATOM     32  C   UNL     1      20.017   8.405   6.171  0.00  0.00    +0.111 A 
ENDBRANCH  22  25
ENDBRANCH  19   7
TORSDOF 3
ENDMDL
MODEL 2
REMARK VINA RESULT:      -6.9     25.529     29.679
REMARK  Name = 7142772
REMARK  3 active torsions:
REMARK  status: ('A' for Active; 'I' for Inactive)
REMARK    1  A    between atoms: N_6  and  C_21
REMARK    2  A    between atoms: N_7  and  C_19
REMARK    3  A    between atoms: C_22  and  C_25
REMARK                            x       y       z     vdW  Elec       q    Type
REMARK                         _______ _______ _______ _____ _____    ______ ____
ROOT
ATOM      1  O   UNL     1      -7.509 -12.141  14.379  0.00  0.00    -0.266 OA
ATOM      2  O   UNL     1     -11.837 -11.032  17.085  0.00  0.00    -0.252 OA
ATOM      4  N   UNL     1     -10.103 -11.329  18.588  0.00  0.00    -0.284 N 
ATOM      5  N   UNL     1      -7.588 -11.855  16.697  0.00  0.00    -0.310 N 
ATOM      6  N   UNL     1     -10.805  -9.159  17.982  0.00  0.00    -0.269 N 
ATOM      9  C   UNL     1      -8.839 -13.459  18.248  0.00  0.00    +0.027 C 
ATOM     10  C   UNL     1      -7.692 -11.500  19.189  0.00  0.00    +0.054 C 
ATOM     11  C   UNL     1      -7.827 -13.017  19.297  0.00  0.00    +0.018 C 
ATOM     12  C   UNL     1     -10.200 -12.790  18.503  0.00  0.00    +0.114 C 
ATOM     13  C   UNL     1      -8.288 -13.136  16.856  0.00  0.00    +0.130 C 
ATOM     14  C   UNL     1      -9.050 -10.831  19.492  0.00  0.00    +0.119 C 
ATOM     15  C   UNL     1      -7.218 -11.090  17.807  0.00  0.00    +0.027 A 
ATOM     16  C   UNL     1      -6.476  -9.981  17.647  0.00  0.00    +0.024 A 
ATOM     17  C   UNL     1      -7.220 -11.492  15.385  0.00  0.00    +0.273 A 
ATOM     18  C   UNL     1     -10.981 -10.532  17.820  0.00  0.00    +0.306 C 
ATOM     19  C   UNL     1      -6.417 -10.236  15.247  0.00  0.00    +0.099 A 
ATOM     20  C   UNL     1      -6.071  -9.547  16.340  0.00  0.00    +0.030 A 
ATOM     33  H   UNL     1     -10.435  -8.823  18.864  0.00  0.00    +0.156 HD
ENDROOT
BRANCH   6  21
ATOM     21  C   UNL     1     -11.137  -8.139  17.057  0.00  0.00    +0.035 A 
ATOM     23  C   UNL     1     -10.131  -7.357  16.498  0.00  0.00    +0.023 A 
ATOM     24  C   UNL     1     -12.469  -7.923  16.712  0.00  0.00    +0.023 A 
ATOM     26  C   UNL     1     -10.457  -6.351  15.589  0.00  0.00    +0.002 A 
ATOM     27  C   UNL     1     -12.796  -6.918  15.802  0.00  0.00    +0.002 A 
ATOM     28  C   UNL     1     -11.790  -6.131  15.241  0.00  0.00    +0.000 A 
ENDBRANCH   6  21
BRANCH  19   7
ATOM      3  O   UNL     1      -4.119 -11.085  13.856  0.00  0.00    -0.270 OA
ATOM      7  N   UNL     1      -6.056  -9.842  13.992  0.00  0.00    -0.277 N 
ATOM     22  C   UNL     1      -4.906 -10.289  13.341  0.00  0.00    +0.248 C 
ATOM     34  H   UNL     1      -6.787  -9.401  13.441  0.00  0.00    +0.155 HD
BRANCH  22  25
ATOM      8  N   UNL     1      -4.335  -8.797   9.403  0.00  0.00    -0.263 NA
ATOM     25  C   UNL     1      -4.708  -9.773  11.978  0.00  0.00    +0.040 A 
ATOM     29  C   UNL     1      -3.533 -10.052  11.307  0.00  0.00    +0.033 A 
ATOM     30  C   UNL     1      -5.702  -9.015  11.386  0.00  0.00    +0.033 A 
ATOM     31  C   UNL     1      -3.395  -9.543  10.026  0.00  0.00    +0.111 A 
ATOM     32  C   UNL     1      -5.467  -8.553  10.102  0.00  0.00    +0.111 A 
ENDBRANCH  22  25
ENDBRANCH  19   7
TORSDOF 3
ENDMDL
MODEL 3
REMARK VINA RESULT:      -6.9      2.384      6.559
REMARK  Name = 7142772
REMARK  3 active torsions:
REMARK  status: ('A' for Active; 'I' for Inactive)
REMARK    1  A    between atoms: N_6  and  C_21
REMARK    2  A    between atoms: N_7  and  C_19
REMARK    3  A    between atoms: C_22  and  C_25
REMARK                            x       y       z     vdW  Elec       q    Type
REMARK                         _______ _______ _______ _____ _____    ______ ____
ROOT
ATOM      1  O   UNL     1       9.543   7.204   1.879  0.00  0.00    -0.266 OA
ATOM      2  O   UNL     1      12.011  10.106   5.454  0.00  0.00    -0.252 OA
ATOM      4  N   UNL     1      10.602   8.641   6.561  0.00  0.00    -0.284 N 
ATOM      5  N   UNL     1       9.336   6.922   4.190  0.00  0.00    -0.310 N 
ATOM      6  N   UNL     1      12.913   8.190   6.397  0.00  0.00    -0.269 N 
ATOM      9  C   UNL     1       8.253   8.675   5.707  0.00  0.00    +0.027 C 
ATOM     10  C   UNL     1       9.163   6.613   6.685  0.00  0.00    +0.054 C 
ATOM     11  C   UNL     1       7.918   7.491   6.606  0.00  0.00    +0.018 C 
ATOM     12  C   UNL     1       9.427   9.476   6.295  0.00  0.00    +0.114 C 
ATOM     13  C   UNL     1       8.554   8.161   4.296  0.00  0.00    +0.130 C 
ATOM     14  C   UNL     1      10.325   7.407   7.318  0.00  0.00    +0.119 C 
ATOM     15  C   UNL     1       9.573   6.118   5.309  0.00  0.00    +0.027 A 
ATOM     16  C   UNL     1      10.190   4.933   5.171  0.00  0.00    +0.024 A 
ATOM     17  C   UNL     1       9.743   6.538   2.896  0.00  0.00    +0.273 A 
ATOM     18  C   UNL     1      11.866   9.054   6.082  0.00  0.00    +0.306 C 
ATOM     19  C   UNL     1      10.449   5.222   2.789  0.00  0.00    +0.099 A 
ATOM     20  C   UNL     1      10.637   4.479   3.885  0.00  0.00    +0.030 A 
ATOM     33  H   UNL     1      12.834   7.623   7.235  0.00  0.00    +0.156 HD
ENDROOT
BRANCH   6  21
ATOM     21  C   UNL     1      14.135   8.035   5.697  0.00  0.00    +0.035 A 
ATOM     23  C   UNL     1      14.161   7.328   4.499  0.00  0.00    +0.023 A 
ATOM     24  C   UNL     1      15.304   8.589   6.214  0.00  0.00    +0.023 A 
ATOM     26  C   UNL     1      15.365   7.174   3.810  0.00  0.00    +0.002 A 
ATOM     27  C   UNL     1      16.507   8.436   5.525  0.00  0.00    +0.002 A 
ATOM     28  C   UNL     1      16.538   7.728   4.323  0.00  0.00    +0.000 A 
ENDBRANCH   6  21
BRANCH  19   7
ATOM      3  O   UNL     1      13.120   5.226   1.891  0.00  0.00    -0.270 OA
ATOM      7  N   UNL     1      10.874   4.823   1.556  0.00  0.00    -0.277 N 
ATOM     22  C   UNL     1      12.210   4.841   1.154  0.00  0.00    +0.248 C 
ATOM     34  H   UNL     1      10.212   4.269   1.019  0.00  0.00    +0.155 HD
BRANCH  22  25
ATOM      8  N   UNL     1      12.964   3.391  -2.769  0.00  0.00    -0.263 NA
ATOM     25  C   UNL     1      12.471   4.339  -0.204  0.00  0.00    +0.040 A 
ATOM     29  C   UNL     1      11.441   3.774  -0.932  0.00  0.00    +0.033 A 
ATOM     30  C   UNL     1      13.744   4.440  -0.734  0.00  0.00    +0.033 A 
ATOM     31  C   UNL     1      11.738   3.317  -2.205  0.00  0.00    +0.111 A 
ATOM     32  C   UNL     1      13.937   3.953  -2.016  0.00  0.00    +0.111 A 
ENDBRANCH  22  25
ENDBRANCH  19   7
TORSDOF 3
ENDMDL
MODEL 4
REMARK VINA RESULT:      -6.8     25.323     29.665
REMARK  Name = 7142772
REMARK  3 active torsions:
REMARK  status: ('A' for Active; 'I' for Inactive)
REMARK    1  A    between atoms: N_6  and  C_21
REMARK    2  A    between atoms: N_7  and  C_19
REMARK    3  A    between atoms: C_22  and  C_25
REMARK                            x       y       z     vdW  Elec       q    Type
REMARK                         _______ _______ _______ _____ _____    ______ ____
ROOT
ATOM      1  O   UNL     1      -6.621 -10.153  14.191  0.00  0.00    -0.266 OA
ATOM      2  O   UNL     1      -4.321 -14.591  12.673  0.00  0.00    -0.252 OA
ATOM      4  N   UNL     1      -2.666 -13.043  13.136  0.00  0.00    -0.284 N 
ATOM      5  N   UNL     1      -4.311 -10.506  14.154  0.00  0.00    -0.310 N 
ATOM      6  N   UNL     1      -3.212 -14.719  14.704  0.00  0.00    -0.269 N 
ATOM      9  C   UNL     1      -2.998 -10.849  11.985  0.00  0.00    +0.027 C 
ATOM     10  C   UNL     1      -1.827 -10.925  14.143  0.00  0.00    +0.054 C 
ATOM     11  C   UNL     1      -1.824 -10.270  12.765  0.00  0.00    +0.018 C 
ATOM     12  C   UNL     1      -2.848 -12.373  11.845  0.00  0.00    +0.114 C 
ATOM     13  C   UNL     1      -4.303 -10.459  12.686  0.00  0.00    +0.130 C 
ATOM     14  C   UNL     1      -1.628 -12.449  14.000  0.00  0.00    +0.119 C 
ATOM     15  C   UNL     1      -3.124 -10.647  14.880  0.00  0.00    +0.027 A 
ATOM     16  C   UNL     1      -3.140 -10.569  16.221  0.00  0.00    +0.024 A 
ATOM     17  C   UNL     1      -5.553 -10.298  14.788  0.00  0.00    +0.273 A 
ATOM     18  C   UNL     1      -3.473 -14.157  13.456  0.00  0.00    +0.306 C 
ATOM     19  C   UNL     1      -5.531 -10.245  16.283  0.00  0.00    +0.099 A 
ATOM     20  C   UNL     1      -4.369 -10.367  16.934  0.00  0.00    +0.030 A 
ATOM     33  H   UNL     1      -2.277 -14.627  15.088  0.00  0.00    +0.156 HD
ENDROOT
BRANCH   6  21
ATOM     21  C   UNL     1      -4.104 -15.471  15.508  0.00  0.00    +0.035 A 
ATOM     23  C   UNL     1      -3.688 -16.679  16.059  0.00  0.00    +0.023 A 
ATOM     24  C   UNL     1      -5.393 -14.998  15.741  0.00  0.00    +0.023 A 
ATOM     26  C   UNL     1      -4.567 -17.422  16.849  0.00  0.00    +0.002 A 
ATOM     27  C   UNL     1      -6.271 -15.739  16.532  0.00  0.00    +0.002 A 
ATOM     28  C   UNL     1      -5.859 -16.950  17.085  0.00  0.00    +0.000 A 
ENDBRANCH   6  21
BRANCH  19   7
ATOM      3  O   UNL     1      -7.146 -12.290  17.354  0.00  0.00    -0.270 OA
ATOM      7  N   UNL     1      -6.715 -10.063  16.935  0.00  0.00    -0.277 N 
ATOM     22  C   UNL     1      -7.484 -11.108  17.451  0.00  0.00    +0.248 C 
ATOM     34  H   UNL     1      -6.900  -9.118  17.258  0.00  0.00    +0.155 HD
BRANCH  22  25
ATOM      8  N   UNL     1     -11.039  -9.945  19.467  0.00  0.00    -0.263 NA
ATOM     25  C   UNL     1      -8.714 -10.706  18.149  0.00  0.00    +0.040 A 
ATOM     29  C   UNL     1      -8.949 -11.159  19.433  0.00  0.00    +0.033 A 
ATOM     30  C   UNL     1      -9.619  -9.878  17.511  0.00  0.00    +0.033 A 
ATOM     31  C   UNL     1     -10.122 -10.752  20.047  0.00  0.00    +0.111 A 
ATOM     32  C   UNL     1     -10.761  -9.528  18.211  0.00  0.00    +0.111 A 
ENDBRANCH  22  25
ENDBRANCH  19   7
TORSDOF 3
ENDMDL
MODEL 5
REMARK VINA RESULT:      -6.8     25.559     29.581
REMARK  Name = 7142772
REMARK  3 active torsions:
REMARK  status: ('A' for Active; 'I' for Inactive)
REMARK    1  A    between atoms: N_6  and  C_21
REMARK    2  A    between atoms: N_7  and  C_19
REMARK    3  A    between atoms: C_22  and  C_25
REMARK                            x       y       z     vdW  Elec       q    Type
REMARK                         _______ _______ _______ _____ _____    ______ ____
ROOT
ATOM      1  O   UNL     1      -8.285  -8.421  17.074  0.00  0.00    -0.266 OA
ATOM      2  O   UNL     1      -3.397 -10.106  16.327  0.00  0.00    -0.252 OA
ATOM      4  N   UNL     1      -4.659 -11.878  17.116  0.00  0.00    -0.284 N 
ATOM      5  N   UNL     1      -7.586 -10.633  17.358  0.00  0.00    -0.310 N 
ATOM      6  N   UNL     1      -4.166 -11.689  14.816  0.00  0.00    -0.269 N 
ATOM      9  C   UNL     1      -5.947 -11.343  19.190  0.00  0.00    +0.027 C 
ATOM     10  C   UNL     1      -6.816 -13.018  17.616  0.00  0.00    +0.054 C 
ATOM     11  C   UNL     1      -6.643 -12.695  19.098  0.00  0.00    +0.018 C 
ATOM     12  C   UNL     1      -4.575 -11.399  18.500  0.00  0.00    +0.114 C 
ATOM     13  C   UNL     1      -6.857 -10.271  18.580  0.00  0.00    +0.130 C 
ATOM     14  C   UNL     1      -5.433 -13.120  16.938  0.00  0.00    +0.119 C 
ATOM     15  C   UNL     1      -7.650 -11.959  16.918  0.00  0.00    +0.027 A 
ATOM     16  C   UNL     1      -8.417 -12.286  15.865  0.00  0.00    +0.024 A 
ATOM     17  C   UNL     1      -8.297  -9.600  16.715  0.00  0.00    +0.273 A 
ATOM     18  C   UNL     1      -4.028 -11.140  16.090  0.00  0.00    +0.306 C 
ATOM     19  C   UNL     1      -9.120 -10.001  15.530  0.00  0.00    +0.099 A 
ATOM     20  C   UNL     1      -9.164 -11.285  15.158  0.00  0.00    +0.030 A 
ATOM     33  H   UNL     1      -4.288 -12.692  14.735  0.00  0.00    +0.156 HD
ENDROOT
BRANCH   6  21
ATOM     21  C   UNL     1      -4.105 -11.003  13.578  0.00  0.00    +0.035 A 
ATOM     23  C   UNL     1      -2.913 -10.972  12.862  0.00  0.00    +0.023 A 
ATOM     24  C   UNL     1      -5.239 -10.362  13.085  0.00  0.00    +0.023 A 
ATOM     26  C   UNL     1      -2.852 -10.296  11.643  0.00  0.00    +0.002 A 
ATOM     27  C   UNL     1      -5.179  -9.686  11.866  0.00  0.00    +0.002 A 
ATOM     28  C   UNL     1      -3.986  -9.653  11.145  0.00  0.00    +0.000 A 
ENDBRANCH   6  21
BRANCH  19   7
ATOM      3  O   UNL     1     -11.733  -9.142  16.136  0.00  0.00    -0.270 OA
ATOM      7  N   UNL     1      -9.809  -9.027  14.870  0.00  0.00    -0.277 N 
ATOM     22  C   UNL     1     -11.105  -8.632  15.206  0.00  0.00    +0.248 C 
ATOM     34  H   UNL     1      -9.253  -8.416  14.278  0.00  0.00    +0.155 HD
BRANCH  22  25
ATOM      8  N   UNL     1     -12.727  -5.480  12.862  0.00  0.00    -0.263 NA
ATOM     25  C   UNL     1     -11.666  -7.542  14.394  0.00  0.00    +0.040 A 
ATOM     29  C   UNL     1     -12.191  -7.820  13.146  0.00  0.00    +0.033 A 
ATOM     30  C   UNL     1     -11.663  -6.252  14.892  0.00  0.00    +0.033 A 
ATOM     31  C   UNL     1     -12.707  -6.759  12.422  0.00  0.00    +0.111 A 
ATOM     32  C   UNL     1     -12.203  -5.261  14.089  0.00  0.00    +0.111 A 
ENDBRANCH  22  25
ENDBRANCH  19   7
TORSDOF 3
ENDMDL
MODEL 6
REMARK VINA RESULT:      -6.7     31.713     34.248
REMARK  Name = 7142772
REMARK  3 active torsions:
REMARK  status: ('A' for Active; 'I' for Inactive)
REMARK    1  A    between atoms: N_6  and  C_21
REMARK    2  A    between atoms: N_7  and  C_19
REMARK    3  A    between atoms: C_22  and  C_25
REMARK                            x       y       z     vdW  Elec       q    Type
REMARK                         _______ _______ _______ _____ _____    ______ ____
ROOT
ATOM      1  O   UNL     1       8.943 -11.466  31.945  0.00  0.00    -0.266 OA
ATOM      2  O   UNL     1       7.062  -9.996  36.592  0.00  0.00    -0.252 OA
ATOM      4  N   UNL     1       7.604  -8.089  35.397  0.00  0.00    -0.284 N 
ATOM      5  N   UNL     1       8.588  -9.248  32.592  0.00  0.00    -0.310 N 
ATOM      6  N   UNL     1       5.364  -8.818  35.540  0.00  0.00    -0.269 N 
ATOM      9  C   UNL     1       9.922  -8.120  34.461  0.00  0.00    +0.027 C 
ATOM     10  C   UNL     1       8.157  -6.868  33.298  0.00  0.00    +0.054 C 
ATOM     11  C   UNL     1       9.627  -6.830  33.707  0.00  0.00    +0.018 C 
ATOM     12  C   UNL     1       9.030  -8.226  35.709  0.00  0.00    +0.114 C 
ATOM     13  C   UNL     1       9.731  -9.308  33.512  0.00  0.00    +0.130 C 
ATOM     14  C   UNL     1       7.264  -6.927  34.556  0.00  0.00    +0.119 C 
ATOM     15  C   UNL     1       7.866  -8.064  32.410  0.00  0.00    +0.027 A 
ATOM     16  C   UNL     1       6.900  -7.998  31.479  0.00  0.00    +0.024 A 
ATOM     17  C   UNL     1       8.325 -10.406  31.832  0.00  0.00    +0.273 A 
ATOM     18  C   UNL     1       6.693  -9.049  35.892  0.00  0.00    +0.306 C 
ATOM     19  C   UNL     1       7.224 -10.299  30.823  0.00  0.00    +0.099 A 
ATOM     20  C   UNL     1       6.573  -9.140  30.672  0.00  0.00    +0.030 A 
ATOM     33  H   UNL     1       5.071  -7.863  35.368  0.00  0.00    +0.156 HD
ENDROOT
BRANCH   6  21
ATOM     21  C   UNL     1       4.327  -9.778  35.438  0.00  0.00    +0.035 A 
ATOM     23  C   UNL     1       3.101  -9.541  36.052  0.00  0.00    +0.023 A 
ATOM     24  C   UNL     1       4.540 -10.955  34.725  0.00  0.00    +0.023 A 
ATOM     26  C   UNL     1       2.080 -10.486  35.954  0.00  0.00    +0.002 A 
ATOM     27  C   UNL     1       3.519 -11.900  34.625  0.00  0.00    +0.002 A 
ATOM     28  C   UNL     1       2.289 -11.666  35.239  0.00  0.00    +0.000 A 
ENDBRANCH   6  21
BRANCH  19   7
ATOM      3  O   UNL     1       5.620 -12.459  31.660  0.00  0.00    -0.270 OA
ATOM      7  N   UNL     1       6.927 -11.403  30.080  0.00  0.00    -0.277 N 
ATOM     22  C   UNL     1       6.126 -12.451  30.536  0.00  0.00    +0.248 C 
ATOM     34  H   UNL     1       7.102 -11.323  29.082  0.00  0.00    +0.155 HD
BRANCH  22  25
ATOM      8  N   UNL     1       5.461 -15.593  27.753  0.00  0.00    -0.263 NA
ATOM     25  C   UNL     1       5.895 -13.538  29.573  0.00  0.00    +0.040 A 
ATOM     29  C   UNL     1       4.670 -14.178  29.546  0.00  0.00    +0.033 A 
ATOM     30  C   UNL     1       6.908 -13.906  28.707  0.00  0.00    +0.033 A 
ATOM     31  C   UNL     1       4.504 -15.195  28.621  0.00  0.00    +0.111 A 
ATOM     32  C   UNL     1       6.641 -14.935  27.819  0.00  0.00    +0.111 A 
ENDBRANCH  22  25
ENDBRANCH  19   7
TORSDOF 3
ENDMDL
MODEL 7
REMARK VINA RESULT:      -6.4     26.942     30.917
REMARK  Name = 7142772
REMARK  3 active torsions:
REMARK  status: ('A' for Active; 'I' for Inactive)
REMARK    1  A    between atoms: N_6  and  C_21
REMARK    2  A    between atoms: N_7  and  C_19
REMARK    3  A    between atoms: C_22  and  C_25
REMARK                            x       y       z     vdW  Elec       q    Type
REMARK                         _______ _______ _______ _____ _____    ______ ____
ROOT
ATOM      1  O   UNL     1      -7.700 -13.095  16.182  0.00  0.00    -0.266 OA
ATOM      2  O   UNL     1     -12.572 -11.231  16.475  0.00  0.00    -0.252 OA
ATOM      4  N   UNL     1     -11.905 -11.844  18.605  0.00  0.00    -0.284 N 
ATOM      5  N   UNL     1      -8.895 -12.808  18.171  0.00  0.00    -0.310 N 
ATOM      6  N   UNL     1     -11.860  -9.580  17.939  0.00  0.00    -0.269 N 
ATOM      9  C   UNL     1     -10.988 -14.166  18.736  0.00  0.00    +0.027 C 
ATOM     10  C   UNL     1     -10.188 -12.451  20.304  0.00  0.00    +0.054 C 
ATOM     11  C   UNL     1     -10.590 -13.919  20.186  0.00  0.00    +0.018 C 
ATOM     12  C   UNL     1     -12.169 -13.262  18.344  0.00  0.00    +0.114 C 
ATOM     13  C   UNL     1      -9.767 -13.942  17.839  0.00  0.00    +0.130 C 
ATOM     14  C   UNL     1     -11.390 -11.549  19.955  0.00  0.00    +0.119 C 
ATOM     15  C   UNL     1      -9.023 -12.127  19.385  0.00  0.00    +0.027 A 
ATOM     16  C   UNL     1      -8.142 -11.170  19.720  0.00  0.00    +0.024 A 
ATOM     17  C   UNL     1      -7.864 -12.512  17.256  0.00  0.00    +0.273 A 
ATOM     18  C   UNL     1     -12.139 -10.898  17.582  0.00  0.00    +0.306 C 
ATOM     19  C   UNL     1      -6.918 -11.422  17.654  0.00  0.00    +0.099 A 
ATOM     20  C   UNL     1      -7.071 -10.811  18.835  0.00  0.00    +0.030 A 
ATOM     33  H   UNL     1     -11.939  -9.320  18.916  0.00  0.00    +0.156 HD
ENDROOT
BRANCH   6  21
ATOM     21  C   UNL     1     -11.517  -8.513  17.073  0.00  0.00    +0.035 A 
ATOM     23  C   UNL     1     -10.181  -8.266  16.774  0.00  0.00    +0.023 A 
ATOM     24  C   UNL     1     -12.520  -7.715  16.527  0.00  0.00    +0.023 A 
ATOM     26  C   UNL     1      -9.842  -7.213  15.923  0.00  0.00    +0.002 A 
ATOM     27  C   UNL     1     -12.182  -6.663  15.675  0.00  0.00    +0.002 A 
ATOM     28  C   UNL     1     -10.844  -6.412  15.373  0.00  0.00    +0.000 A 
ENDBRANCH   6  21
BRANCH  19   7
ATOM      3  O   UNL     1      -4.179 -11.964  18.030  0.00  0.00    -0.270 OA
ATOM      7  N   UNL     1      -5.917 -11.094  16.788  0.00  0.00    -0.277 N 
ATOM     22  C   UNL     1      -4.571 -11.383  17.016  0.00  0.00    +0.248 C 
ATOM     34  H   UNL     1      -6.211 -10.854  15.846  0.00  0.00    +0.155 HD
BRANCH  22  25
ATOM      8  N   UNL     1      -1.899 -10.210  13.927  0.00  0.00    -0.263 NA
ATOM     25  C   UNL     1      -3.646 -10.977  15.947  0.00  0.00    +0.040 A 
ATOM     29  C   UNL     1      -2.324 -10.713  16.252  0.00  0.00    +0.033 A 
ATOM     30  C   UNL     1      -4.112 -10.865  14.650  0.00  0.00    +0.033 A 
ATOM     31  C   UNL     1      -1.494 -10.334  15.211  0.00  0.00    +0.111 A 
ATOM     32  C   UNL     1      -3.201 -10.480  13.680  0.00  0.00    +0.111 A 
ENDBRANCH  22  25
ENDBRANCH  19   7
TORSDOF 3
ENDMDL
MODEL 8
REMARK VINA RESULT:      -6.3     24.807     27.288
REMARK  Name = 7142772
REMARK  3 active torsions:
REMARK  status: ('A' for Active; 'I' for Inactive)
REMARK    1  A    between atoms: N_6  and  C_21
REMARK    2  A    between atoms: N_7  and  C_19
REMARK    3  A    between atoms: C_22  and  C_25
REMARK                            x       y       z     vdW  Elec       q    Type
REMARK                         _______ _______ _______ _____ _____    ______ ____
ROOT
ATOM      1  O   UNL     1      -4.766 -12.294   8.071  0.00  0.00    -0.266 OA
ATOM      2  O   UNL     1      -7.070 -12.725  12.740  0.00  0.00    -0.252 OA
ATOM      4  N   UNL     1      -5.035 -11.662  13.035  0.00  0.00    -0.284 N 
ATOM      5  N   UNL     1      -3.913 -11.410  10.059  0.00  0.00    -0.310 N 
ATOM      6  N   UNL     1      -7.040 -10.418  12.976  0.00  0.00    -0.269 N 
ATOM      9  C   UNL     1      -3.113 -12.877  11.996  0.00  0.00    +0.027 C 
ATOM     10  C   UNL     1      -3.035 -10.431  12.208  0.00  0.00    +0.054 C 
ATOM     11  C   UNL     1      -2.201 -11.703  12.329  0.00  0.00    +0.018 C 
ATOM     12  C   UNL     1      -4.298 -12.928  12.975  0.00  0.00    +0.114 C 
ATOM     13  C   UNL     1      -3.572 -12.755  10.540  0.00  0.00    +0.130 C 
ATOM     14  C   UNL     1      -4.195 -10.466  13.225  0.00  0.00    +0.119 C 
ATOM     15  C   UNL     1      -3.591 -10.271  10.805  0.00  0.00    +0.027 A 
ATOM     16  C   UNL     1      -3.806  -9.047  10.295  0.00  0.00    +0.024 A 
ATOM     17  C   UNL     1      -4.481 -11.321   8.772  0.00  0.00    +0.273 A 
ATOM     18  C   UNL     1      -6.441 -11.674  12.898  0.00  0.00    +0.306 C 
ATOM     19  C   UNL     1      -4.728  -9.940   8.251  0.00  0.00    +0.099 A 
ATOM     20  C   UNL     1      -4.387  -8.881   8.994  0.00  0.00    +0.030 A 
ATOM     33  H   UNL     1      -6.577  -9.698  13.518  0.00  0.00    +0.156 HD
ENDROOT
BRANCH   6  21
ATOM     21  C   UNL     1      -8.280 -10.025  12.414  0.00  0.00    +0.035 A 
ATOM     23  C   UNL     1      -8.346  -9.655  11.075  0.00  0.00    +0.023 A 
ATOM     24  C   UNL     1      -9.425 -10.008  13.207  0.00  0.00    +0.023 A 
ATOM     26  C   UNL     1      -9.567  -9.265  10.522  0.00  0.00    +0.002 A 
ATOM     27  C   UNL     1     -10.645  -9.619  12.654  0.00  0.00    +0.002 A 
ATOM     28  C   UNL     1     -10.716  -9.248  11.312  0.00  0.00    +0.000 A 
ENDBRANCH   6  21
BRANCH  19   7
ATOM      3  O   UNL     1      -7.473  -9.575   7.731  0.00  0.00    -0.270 OA
ATOM      7  N   UNL     1      -5.293  -9.812   7.016  0.00  0.00    -0.277 N 
ATOM     22  C   UNL     1      -6.661  -9.632   6.806  0.00  0.00    +0.248 C 
ATOM     34  H   UNL     1      -4.652  -9.599   6.258  0.00  0.00    +0.155 HD
BRANCH  22  25
ATOM      8  N   UNL     1      -7.848  -9.198   2.749  0.00  0.00    -0.263 NA
ATOM     25  C   UNL     1      -7.072  -9.482   5.402  0.00  0.00    +0.040 A 
ATOM     29  C   UNL     1      -7.125 -10.595   4.584  0.00  0.00    +0.033 A 
ATOM     30  C   UNL     1      -7.400  -8.229   4.918  0.00  0.00    +0.033 A 
ATOM     31  C   UNL     1      -7.518 -10.401   3.270  0.00  0.00    +0.111 A 
ATOM     32  C   UNL     1      -7.781  -8.141   3.590  0.00  0.00    +0.111 A 
ENDBRANCH  22  25
ENDBRANCH  19   7
TORSDOF 3
ENDMDL
MODEL 9
REMARK VINA RESULT:      -6.3     34.606     37.583
REMARK  Name = 7142772
REMARK  3 active torsions:
REMARK  status: ('A' for Active; 'I' for Inactive)
REMARK    1  A    between atoms: N_6  and  C_21
REMARK    2  A    between atoms: N_7  and  C_19
REMARK    3  A    between atoms: C_22  and  C_25
REMARK                            x       y       z     vdW  Elec       q    Type
REMARK                         _______ _______ _______ _____ _____    ______ ____
ROOT
ATOM      1  O   UNL     1      -1.055  10.359  40.435  0.00  0.00    -0.266 OA
ATOM      2  O   UNL     1      -4.130  13.061  37.189  0.00  0.00    -0.252 OA
ATOM      4  N   UNL     1      -2.166  12.559  36.072  0.00  0.00    -0.284 N 
ATOM      5  N   UNL     1      -0.547  10.819  38.200  0.00  0.00    -0.310 N 
ATOM      6  N   UNL     1      -4.119  11.290  35.693  0.00  0.00    -0.269 N 
ATOM      9  C   UNL     1      -0.106  13.188  37.340  0.00  0.00    +0.027 C 
ATOM     10  C   UNL     1      -0.042  11.293  35.778  0.00  0.00    +0.054 C 
ATOM     11  C   UNL     1       0.747  12.498  36.283  0.00  0.00    +0.018 C 
ATOM     12  C   UNL     1      -1.441  13.649  36.733  0.00  0.00    +0.114 C 
ATOM     13  C   UNL     1      -0.307  12.232  38.521  0.00  0.00    +0.130 C 
ATOM     14  C   UNL     1      -1.360  11.765  35.127  0.00  0.00    +0.119 C 
ATOM     15  C   UNL     1      -0.348  10.326  36.907  0.00  0.00    +0.027 A 
ATOM     16  C   UNL     1      -0.460   9.010  36.662  0.00  0.00    +0.024 A 
ATOM     17  C   UNL     1      -0.885   9.974  39.277  0.00  0.00    +0.273 A 
ATOM     18  C   UNL     1      -3.528  12.347  36.383  0.00  0.00    +0.306 C 
ATOM     19  C   UNL     1      -1.026   8.519  38.956  0.00  0.00    +0.099 A 
ATOM     20  C   UNL     1      -0.808   8.091  37.708  0.00  0.00    +0.030 A 
ATOM     33  H   UNL     1      -3.749  11.044  34.781  0.00  0.00    +0.156 HD
ENDROOT
BRANCH   6  21
ATOM     21  C   UNL     1      -5.240  10.524  36.097  0.00  0.00    +0.035 A 
ATOM     23  C   UNL     1      -5.130   9.651  37.175  0.00  0.00    +0.023 A 
ATOM     24  C   UNL     1      -6.447  10.648  35.413  0.00  0.00    +0.023 A 
ATOM     26  C   UNL     1      -6.233   8.895  37.572  0.00  0.00    +0.002 A 
ATOM     27  C   UNL     1      -7.550   9.894  35.811  0.00  0.00    +0.002 A 
ATOM     28  C   UNL     1      -7.444   9.017  36.890  0.00  0.00    +0.000 A 
ENDBRANCH   6  21
BRANCH  19   7
ATOM      3  O   UNL     1      -3.649   7.736  39.623  0.00  0.00    -0.270 OA
ATOM      7  N   UNL     1      -1.370   7.670  39.967  0.00  0.00    -0.277 N 
ATOM     22  C   UNL     1      -2.685   7.309  40.262  0.00  0.00    +0.248 C 
ATOM     34  H   UNL     1      -0.614   7.106  40.345  0.00  0.00    +0.155 HD
BRANCH  22  25
ATOM      8  N   UNL     1      -3.155   4.556  43.464  0.00  0.00    -0.263 NA
ATOM     25  C   UNL     1      -2.848   6.357  41.370  0.00  0.00    +0.040 A 
ATOM     29  C   UNL     1      -4.114   6.082  41.853  0.00  0.00    +0.033 A 
ATOM     30  C   UNL     1      -1.732   5.747  41.914  0.00  0.00    +0.033 A 
ATOM     31  C   UNL     1      -4.213   5.177  42.897  0.00  0.00    +0.111 A 
ATOM     32  C   UNL     1      -1.939   4.858  42.955  0.00  0.00    +0.111 A 
ENDBRANCH  22  25
ENDBRANCH  19   7
TORSDOF 3
ENDMDL
MODEL 10
REMARK VINA RESULT:      -6.3     25.246     27.703
REMARK  Name = 7142772
REMARK  3 active torsions:
REMARK  status: ('A' for Active; 'I' for Inactive)
REMARK    1  A    between atoms: N_6  and  C_21
REMARK    2  A    between atoms: N_7  and  C_19
REMARK    3  A    between atoms: C_22  and  C_25
REMARK                            x       y       z     vdW  Elec       q    Type
REMARK                         _______ _______ _______ _____ _____    ______ ____
ROOT
ATOM      1  O   UNL     1     -10.870  -9.563   6.953  0.00  0.00    -0.266 OA
ATOM      2  O   UNL     1      -6.713 -12.581   7.906  0.00  0.00    -0.252 OA
ATOM      4  N   UNL     1      -6.702 -12.026   5.659  0.00  0.00    -0.284 N 
ATOM      5  N   UNL     1      -9.230 -10.101   5.377  0.00  0.00    -0.310 N 
ATOM      6  N   UNL     1      -5.307 -10.885   7.183  0.00  0.00    -0.269 N 
ATOM      9  C   UNL     1      -8.873 -12.480   4.506  0.00  0.00    +0.027 C 
ATOM     10  C   UNL     1      -7.428 -10.661   3.707  0.00  0.00    +0.054 C 
ATOM     11  C   UNL     1      -8.342 -11.795   3.253  0.00  0.00    +0.018 C 
ATOM     12  C   UNL     1      -7.711 -13.041   5.342  0.00  0.00    +0.114 C 
ATOM     13  C   UNL     1      -9.724 -11.482   5.298  0.00  0.00    +0.130 C 
ATOM     14  C   UNL     1      -6.238 -11.234   4.505  0.00  0.00    +0.119 C 
ATOM     15  C   UNL     1      -8.182  -9.659   4.564  0.00  0.00    +0.027 A 
ATOM     16  C   UNL     1      -7.823  -8.364   4.567  0.00  0.00    +0.024 A 
ATOM     17  C   UNL     1      -9.930  -9.225   6.231  0.00  0.00    +0.273 A 
ATOM     18  C   UNL     1      -6.271 -11.874   6.996  0.00  0.00    +0.306 C 
ATOM     19  C   UNL     1      -9.483  -7.797   6.225  0.00  0.00    +0.099 A 
ATOM     20  C   UNL     1      -8.487  -7.417   5.417  0.00  0.00    +0.030 A 
ATOM     33  H   UNL     1      -4.690 -10.662   6.409  0.00  0.00    +0.156 HD
ENDROOT
BRANCH   6  21
ATOM     21  C   UNL     1      -5.040 -10.163   8.372  0.00  0.00    +0.035 A 
ATOM     23  C   UNL     1      -5.758  -9.006   8.655  0.00  0.00    +0.023 A 
ATOM     24  C   UNL     1      -4.059 -10.616   9.252  0.00  0.00    +0.023 A 
ATOM     26  C   UNL     1      -5.494  -8.293   9.826  0.00  0.00    +0.002 A 
ATOM     27  C   UNL     1      -3.796  -9.905  10.422  0.00  0.00    +0.002 A 
ATOM     28  C   UNL     1      -4.513  -8.744  10.710  0.00  0.00    +0.000 A 
ENDBRANCH   6  21
BRANCH  19   7
ATOM      3  O   UNL     1      -8.766  -7.230   8.890  0.00  0.00    -0.270 OA
ATOM      7  N   UNL     1     -10.124  -6.921   7.051  0.00  0.00    -0.277 N 
ATOM     22  C   UNL     1      -9.732  -6.671   8.368  0.00  0.00    +0.248 C 
ATOM     34  H   UNL     1     -10.750  -6.263   6.596  0.00  0.00    +0.155 HD
BRANCH  22  25
ATOM      8  N   UNL     1     -12.044  -3.773  10.446  0.00  0.00    -0.263 NA
ATOM     25  C   UNL     1     -10.532  -5.668   9.087  0.00  0.00    +0.040 A 
ATOM     29  C   UNL     1     -10.307  -4.324   8.858  0.00  0.00    +0.033 A 
ATOM     30  C   UNL     1     -11.500  -6.083   9.983  0.00  0.00    +0.033 A 
ATOM     31  C   UNL     1     -11.086  -3.419   9.560  0.00  0.00    +0.111 A 
ATOM     32  C   UNL     1     -12.225  -5.100  10.634  0.00  0.00    +0.111 A 
ENDBRANCH  22  25
ENDBRANCH  19   7
TORSDOF 3
ENDMDL
