MODEL 1
REMARK VINA RESULT:      -6.9      0.000      0.000
REMARK  Name = 45783273
REMARK  8 active torsions:
REMARK  status: ('A' for Active; 'I' for Inactive)
REMARK    1  A    between atoms: O_2  and  C_27
REMARK    2  A    between atoms: O_2  and  C_28
REMARK    3  A    between atoms: N_3  and  C_12
REMARK    4  A    between atoms: N_6  and  C_26
REMARK    5  A    between atoms: C_8  and  C_13
REMARK    6  A    between atoms: C_12  and  C_14
REMARK    7  A    between atoms: C_17  and  C_18
REMARK    8  A    between atoms: C_26  and  C_27
REMARK                            x       y       z     vdW  Elec       q    Type
REMARK                         _______ _______ _______ _____ _____    ______ ____
ROOT
ATOM      1  O   UNL     1      -4.412 -13.171  15.232  0.00  0.00    -0.336 OA
ATOM      4  N   UNL     1      -4.444 -11.356  16.544  0.00  0.00    -0.190 NA
ATOM      5  N   UNL     1      -5.567 -13.279  16.018  0.00  0.00    -0.056 NA
ATOM     13  C   UNL     1      -3.810 -12.013  15.606  0.00  0.00    +0.245 A 
ATOM     17  C   UNL     1      -5.516 -12.172  16.764  0.00  0.00    +0.202 A 
ENDROOT
BRANCH  17  18
ATOM      6  N   UNL     1      -9.144  -9.368  18.317  0.00  0.00    -0.327 N 
ATOM      7  N   UNL     1      -8.472 -11.232  19.640  0.00  0.00    -0.240 NA
ATOM     18  C   UNL     1      -6.518 -11.852  17.740  0.00  0.00    +0.027 A 
ATOM     22  C   UNL     1      -7.351 -10.755  17.552  0.00  0.00    +0.055 A 
ATOM     23  C   UNL     1      -6.661 -12.640  18.877  0.00  0.00    +0.031 A 
ATOM     24  C   UNL     1      -8.304 -10.491  18.522  0.00  0.00    +0.119 A 
ATOM     25  C   UNL     1      -7.644 -12.291  19.789  0.00  0.00    +0.113 A 
ATOM     29  H   UNL     1      -9.840  -9.187  19.033  0.00  0.00    +0.148 HD
BRANCH   6  26
ATOM     26  C   UNL     1      -9.040  -8.527  17.169  0.00  0.00    +0.131 C 
BRANCH  26  27
ATOM     27  C   UNL     1     -10.387  -7.897  16.863  0.00  0.00    +0.178 C 
BRANCH  27   2
ATOM      2  O   UNL     1     -10.237  -6.938  15.824  0.00  0.00    -0.381 OA
ATOM     28  C   UNL     1     -11.236  -5.930  15.895  0.00  0.00    +0.194 C 
ENDBRANCH  27   2
ENDBRANCH  26  27
ENDBRANCH   6  26
ENDBRANCH  17  18
BRANCH  13   8
ATOM      3  N   UNL     1      -2.719 -10.668  13.819  0.00  0.00    -0.287 NA
ATOM      8  C   UNL     1      -2.521 -11.662  14.893  0.00  0.00    +0.146 C 
ATOM      9  C   UNL     1      -1.478 -11.025  15.829  0.00  0.00    +0.030 C 
ATOM     10  C   UNL     1      -1.104  -9.705  15.169  0.00  0.00    +0.017 C 
ATOM     11  C   UNL     1      -1.466  -9.919  13.713  0.00  0.00    +0.085 C 
BRANCH   3  12
ATOM     12  C   UNL     1      -3.109 -11.264  12.549  0.00  0.00    +0.120 C 
BRANCH  12  14
ATOM     14  C   UNL     1      -3.786 -10.267  11.645  0.00  0.00    -0.033 A 
ATOM     15  C   UNL     1      -5.020  -9.726  12.006  0.00  0.00    +0.005 A 
ATOM     16  C   UNL     1      -3.180  -9.886  10.449  0.00  0.00    +0.005 A 
ATOM     19  C   UNL     1      -5.647  -8.802  11.169  0.00  0.00    +0.000 A 
ATOM     20  C   UNL     1      -3.806  -8.962   9.613  0.00  0.00    +0.000 A 
ATOM     21  C   UNL     1      -5.041  -8.421   9.973  0.00  0.00    +0.000 A 
ENDBRANCH  12  14
ENDBRANCH   3  12
ENDBRANCH  13   8
TORSDOF 7
ENDMDL
MODEL 2
REMARK VINA RESULT:      -6.6     26.911     30.060
REMARK  Name = 45783273
REMARK  8 active torsions:
REMARK  status: ('A' for Active; 'I' for Inactive)
REMARK    1  A    between atoms: O_2  and  C_27
REMARK    2  A    between atoms: O_2  and  C_28
REMARK    3  A    between atoms: N_3  and  C_12
REMARK    4  A    between atoms: N_6  and  C_26
REMARK    5  A    between atoms: C_8  and  C_13
REMARK    6  A    between atoms: C_12  and  C_14
REMARK    7  A    between atoms: C_17  and  C_18
REMARK    8  A    between atoms: C_26  and  C_27
REMARK                            x       y       z     vdW  Elec       q    Type
REMARK                         _______ _______ _______ _____ _____    ______ ____
ROOT
ATOM      1  O   UNL     1      16.199   5.913  18.534  0.00  0.00    -0.336 OA
ATOM      4  N   UNL     1      16.222   7.554  20.058  0.00  0.00    -0.190 NA
ATOM      5  N   UNL     1      17.446   5.838  19.168  0.00  0.00    -0.056 NA
ATOM     13  C   UNL     1      15.543   6.949  19.116  0.00  0.00    +0.245 A 
ATOM     17  C   UNL     1      17.383   6.836  20.054  0.00  0.00    +0.202 A 
ENDROOT
BRANCH  17  18
ATOM      6  N   UNL     1      21.631   5.706  22.080  0.00  0.00    -0.327 N 
ATOM      7  N   UNL     1      20.567   7.750  22.684  0.00  0.00    -0.240 NA
ATOM     18  C   UNL     1      18.462   7.145  20.947  0.00  0.00    +0.027 A 
ATOM     22  C   UNL     1      19.531   6.267  21.080  0.00  0.00    +0.055 A 
ATOM     23  C   UNL     1      18.445   8.326  21.681  0.00  0.00    +0.031 A 
ATOM     24  C   UNL     1      20.550   6.612  21.954  0.00  0.00    +0.119 A 
ATOM     25  C   UNL     1      19.511   8.580  22.528  0.00  0.00    +0.113 A 
ATOM     29  H   UNL     1      22.372   5.972  22.720  0.00  0.00    +0.148 HD
BRANCH   6  26
ATOM     26  C   UNL     1      21.699   4.481  21.352  0.00  0.00    +0.131 C 
BRANCH  26  27
ATOM     27  C   UNL     1      22.175   3.361  22.262  0.00  0.00    +0.178 C 
BRANCH  27   2
ATOM      2  O   UNL     1      22.088   3.782  23.617  0.00  0.00    -0.381 OA
ATOM     28  C   UNL     1      23.171   3.283  24.389  0.00  0.00    +0.194 C 
ENDBRANCH  27   2
ENDBRANCH  26  27
ENDBRANCH   6  26
ENDBRANCH  17  18
BRANCH  13   8
ATOM      3  N   UNL     1      13.474   8.310  19.362  0.00  0.00    -0.287 NA
ATOM      8  C   UNL     1      14.150   7.242  18.599  0.00  0.00    +0.146 C 
ATOM      9  C   UNL     1      14.149   7.740  17.142  0.00  0.00    +0.030 C 
ATOM     10  C   UNL     1      13.398   9.064  17.176  0.00  0.00    +0.017 C 
ATOM     11  C   UNL     1      12.554   8.965  18.431  0.00  0.00    +0.085 C 
BRANCH   3  12
ATOM     12  C   UNL     1      12.790   7.821  20.553  0.00  0.00    +0.120 C 
BRANCH  12  14
ATOM     14  C   UNL     1      12.469   8.936  21.513  0.00  0.00    -0.033 A 
ATOM     15  C   UNL     1      11.160   9.115  21.960  0.00  0.00    +0.005 A 
ATOM     16  C   UNL     1      13.480   9.789  21.954  0.00  0.00    +0.005 A 
ATOM     19  C   UNL     1      10.863  10.147  22.850  0.00  0.00    +0.000 A 
ATOM     20  C   UNL     1      13.183  10.821  22.844  0.00  0.00    +0.000 A 
ATOM     21  C   UNL     1      11.874  11.001  23.291  0.00  0.00    +0.000 A 
ENDBRANCH  12  14
ENDBRANCH   3  12
ENDBRANCH  13   8
TORSDOF 7
ENDMDL
MODEL 3
REMARK VINA RESULT:      -6.6     26.564     29.662
REMARK  Name = 45783273
REMARK  8 active torsions:
REMARK  status: ('A' for Active; 'I' for Inactive)
REMARK    1  A    between atoms: O_2  and  C_27
REMARK    2  A    between atoms: O_2  and  C_28
REMARK    3  A    between atoms: N_3  and  C_12
REMARK    4  A    between atoms: N_6  and  C_26
REMARK    5  A    between atoms: C_8  and  C_13
REMARK    6  A    between atoms: C_12  and  C_14
REMARK    7  A    between atoms: C_17  and  C_18
REMARK    8  A    between atoms: C_26  and  C_27
REMARK                            x       y       z     vdW  Elec       q    Type
REMARK                         _______ _______ _______ _____ _____    ______ ____
ROOT
ATOM      1  O   UNL     1      16.125  12.304  18.540  0.00  0.00    -0.336 OA
ATOM      4  N   UNL     1      15.465  10.456  19.622  0.00  0.00    -0.190 NA
ATOM      5  N   UNL     1      15.092  11.751  17.772  0.00  0.00    -0.056 NA
ATOM     13  C   UNL     1      16.281  11.480  19.609  0.00  0.00    +0.245 A 
ATOM     17  C   UNL     1      14.754  10.665  18.475  0.00  0.00    +0.202 A 
ENDROOT
BRANCH  17  18
ATOM      6  N   UNL     1      11.928   6.822  19.294  0.00  0.00    -0.327 N 
ATOM      7  N   UNL     1      11.687   8.023  17.251  0.00  0.00    -0.240 NA
ATOM     18  C   UNL     1      13.715   9.768  18.060  0.00  0.00    +0.027 A 
ATOM     22  C   UNL     1      13.324   8.722  18.887  0.00  0.00    +0.055 A 
ATOM     23  C   UNL     1      13.093   9.943  16.828  0.00  0.00    +0.031 A 
ATOM     24  C   UNL     1      12.314   7.885  18.440  0.00  0.00    +0.119 A 
ATOM     25  C   UNL     1      12.094   9.051  16.473  0.00  0.00    +0.113 A 
ATOM     29  H   UNL     1      11.186   6.218  18.956  0.00  0.00    +0.148 HD
BRANCH   6  26
ATOM     26  C   UNL     1      12.533   6.596  20.566  0.00  0.00    +0.131 C 
BRANCH  26  27
ATOM     27  C   UNL     1      11.466   6.278  21.600  0.00  0.00    +0.178 C 
BRANCH  27   2
ATOM      2  O   UNL     1      10.469   7.291  21.580  0.00  0.00    -0.381 OA
ATOM     28  C   UNL     1      10.781   8.347  22.478  0.00  0.00    +0.194 C 
ENDBRANCH  27   2
ENDBRANCH  26  27
ENDBRANCH   6  26
ENDBRANCH  17  18
BRANCH  13   8
ATOM      3  N   UNL     1      18.388  10.823  20.757  0.00  0.00    -0.287 NA
ATOM      8  C   UNL     1      17.354  11.865  20.606  0.00  0.00    +0.146 C 
ATOM      9  C   UNL     1      18.128  13.128  20.188  0.00  0.00    +0.030 C 
ATOM     10  C   UNL     1      19.593  12.715  20.191  0.00  0.00    +0.017 C 
ATOM     11  C   UNL     1      19.625  11.517  21.118  0.00  0.00    +0.085 C 
BRANCH   3  12
ATOM     12  C   UNL     1      18.033   9.797  21.729  0.00  0.00    +0.120 C 
BRANCH  12  14
ATOM     14  C   UNL     1      18.265   8.410  21.191  0.00  0.00    -0.033 A 
ATOM     15  C   UNL     1      19.522   7.817  21.311  0.00  0.00    +0.005 A 
ATOM     16  C   UNL     1      17.225   7.719  20.572  0.00  0.00    +0.005 A 
ATOM     19  C   UNL     1      19.737   6.532  20.814  0.00  0.00    +0.000 A 
ATOM     20  C   UNL     1      17.439   6.434  20.074  0.00  0.00    +0.000 A 
ATOM     21  C   UNL     1      18.696   5.840  20.194  0.00  0.00    +0.000 A 
ENDBRANCH  12  14
ENDBRANCH   3  12
ENDBRANCH  13   8
TORSDOF 7
ENDMDL
MODEL 4
REMARK VINA RESULT:      -6.3      1.960      2.583
REMARK  Name = 45783273
REMARK  8 active torsions:
REMARK  status: ('A' for Active; 'I' for Inactive)
REMARK    1  A    between atoms: O_2  and  C_27
REMARK    2  A    between atoms: O_2  and  C_28
REMARK    3  A    between atoms: N_3  and  C_12
REMARK    4  A    between atoms: N_6  and  C_26
REMARK    5  A    between atoms: C_8  and  C_13
REMARK    6  A    between atoms: C_12  and  C_14
REMARK    7  A    between atoms: C_17  and  C_18
REMARK    8  A    between atoms: C_26  and  C_27
REMARK                            x       y       z     vdW  Elec       q    Type
REMARK                         _______ _______ _______ _____ _____    ______ ____
ROOT
ATOM      1  O   UNL     1      -4.857  -9.847  16.771  0.00  0.00    -0.336 OA
ATOM      4  N   UNL     1      -5.982 -11.099  15.293  0.00  0.00    -0.190 NA
ATOM      5  N   UNL     1      -6.216  -9.611  17.015  0.00  0.00    -0.056 NA
ATOM     13  C   UNL     1      -4.808 -10.733  15.743  0.00  0.00    +0.245 A 
ATOM     17  C   UNL     1      -6.815 -10.385  16.105  0.00  0.00    +0.202 A 
ENDROOT
BRANCH  17  18
ATOM      6  N   UNL     1     -11.191  -8.333  16.365  0.00  0.00    -0.327 N 
ATOM      7  N   UNL     1     -11.021 -10.622  15.727  0.00  0.00    -0.240 NA
ATOM     18  C   UNL     1      -8.241 -10.465  15.978  0.00  0.00    +0.027 A 
ATOM     22  C   UNL     1      -9.029  -9.349  16.236  0.00  0.00    +0.055 A 
ATOM     23  C   UNL     1      -8.842 -11.659  15.595  0.00  0.00    +0.031 A 
ATOM     24  C   UNL     1     -10.402  -9.478  16.097  0.00  0.00    +0.119 A 
ATOM     25  C   UNL     1     -10.223 -11.686  15.485  0.00  0.00    +0.113 A 
ATOM     29  H   UNL     1     -12.194  -8.440  16.256  0.00  0.00    +0.148 HD
BRANCH   6  26
ATOM     26  C   UNL     1     -10.628  -7.084  16.762  0.00  0.00    +0.131 C 
BRANCH  26  27
ATOM     27  C   UNL     1     -11.002  -6.003  15.763  0.00  0.00    +0.178 C 
BRANCH  27   2
ATOM      2  O   UNL     1     -12.415  -5.968  15.610  0.00  0.00    -0.381 OA
ATOM     28  C   UNL     1     -12.789  -5.484  14.327  0.00  0.00    +0.194 C 
ENDBRANCH  27   2
ENDBRANCH  26  27
ENDBRANCH   6  26
ENDBRANCH  17  18
BRANCH  13   8
ATOM      3  N   UNL     1      -3.026 -10.502  14.022  0.00  0.00    -0.287 NA
ATOM      8  C   UNL     1      -3.429 -11.156  15.283  0.00  0.00    +0.146 C 
ATOM      9  C   UNL     1      -2.326 -10.782  16.289  0.00  0.00    +0.030 C 
ATOM     10  C   UNL     1      -1.317  -9.970  15.488  0.00  0.00    +0.017 C 
ATOM     11  C   UNL     1      -1.566 -10.401  14.057  0.00  0.00    +0.085 C 
BRANCH   3  12
ATOM     12  C   UNL     1      -3.498 -11.202  12.835  0.00  0.00    +0.120 C 
BRANCH  12  14
ATOM     14  C   UNL     1      -3.971 -10.247  11.770  0.00  0.00    -0.033 A 
ATOM     15  C   UNL     1      -3.148  -9.951  10.684  0.00  0.00    +0.005 A 
ATOM     16  C   UNL     1      -5.230  -9.658  11.872  0.00  0.00    +0.005 A 
ATOM     19  C   UNL     1      -3.586  -9.067   9.698  0.00  0.00    +0.000 A 
ATOM     20  C   UNL     1      -5.668  -8.774  10.887  0.00  0.00    +0.000 A 
ATOM     21  C   UNL     1      -4.846  -8.478   9.800  0.00  0.00    +0.000 A 
ENDBRANCH  12  14
ENDBRANCH   3  12
ENDBRANCH  13   8
TORSDOF 7
ENDMDL
MODEL 5
REMARK VINA RESULT:      -6.2     25.805     28.479
REMARK  Name = 45783273
REMARK  8 active torsions:
REMARK  status: ('A' for Active; 'I' for Inactive)
REMARK    1  A    between atoms: O_2  and  C_27
REMARK    2  A    between atoms: O_2  and  C_28
REMARK    3  A    between atoms: N_3  and  C_12
REMARK    4  A    between atoms: N_6  and  C_26
REMARK    5  A    between atoms: C_8  and  C_13
REMARK    6  A    between atoms: C_12  and  C_14
REMARK    7  A    between atoms: C_17  and  C_18
REMARK    8  A    between atoms: C_26  and  C_27
REMARK                            x       y       z     vdW  Elec       q    Type
REMARK                         _______ _______ _______ _____ _____    ______ ____
ROOT
ATOM      1  O   UNL     1      13.890  13.542  17.995  0.00  0.00    -0.336 OA
ATOM      4  N   UNL     1      13.982  11.569  19.052  0.00  0.00    -0.190 NA
ATOM      5  N   UNL     1      13.042  13.654  19.104  0.00  0.00    -0.056 NA
ATOM     13  C   UNL     1      14.402  12.284  18.039  0.00  0.00    +0.245 A 
ATOM     17  C   UNL     1      13.150  12.452  19.677  0.00  0.00    +0.202 A 
ENDROOT
BRANCH  17  18
ATOM      6  N   UNL     1      10.571   9.276  22.265  0.00  0.00    -0.327 N 
ATOM      7  N   UNL     1      11.057  11.412  23.202  0.00  0.00    -0.240 NA
ATOM     18  C   UNL     1      12.439  12.099  20.872  0.00  0.00    +0.027 A 
ATOM     22  C   UNL     1      11.845  10.848  20.988  0.00  0.00    +0.055 A 
ATOM     23  C   UNL     1      12.342  13.008  21.920  0.00  0.00    +0.031 A 
ATOM     24  C   UNL     1      11.172  10.555  22.163  0.00  0.00    +0.119 A 
ATOM     25  C   UNL     1      11.647  12.619  23.054  0.00  0.00    +0.113 A 
ATOM     29  H   UNL     1      10.084   9.073  23.132  0.00  0.00    +0.148 HD
BRANCH   6  26
ATOM     26  C   UNL     1      10.639   8.307  21.220  0.00  0.00    +0.131 C 
BRANCH  26  27
ATOM     27  C   UNL     1      10.714   6.910  21.811  0.00  0.00    +0.178 C 
BRANCH  27   2
ATOM      2  O   UNL     1      11.526   6.088  20.983  0.00  0.00    -0.381 OA
ATOM     28  C   UNL     1      12.796   6.679  20.746  0.00  0.00    +0.194 C 
ENDBRANCH  27   2
ENDBRANCH  26  27
ENDBRANCH   6  26
ENDBRANCH  17  18
BRANCH  13   8
ATOM      3  N   UNL     1      14.700  11.198  15.820  0.00  0.00    -0.287 NA
ATOM      8  C   UNL     1      15.364  11.908  16.932  0.00  0.00    +0.146 C 
ATOM      9  C   UNL     1      16.023  13.135  16.275  0.00  0.00    +0.030 C 
ATOM     10  C   UNL     1      15.729  12.996  14.788  0.00  0.00    +0.017 C 
ATOM     11  C   UNL     1      15.465  11.514  14.613  0.00  0.00    +0.085 C 
BRANCH   3  12
ATOM     12  C   UNL     1      14.592   9.762  16.039  0.00  0.00    +0.120 C 
BRANCH  12  14
ATOM     14  C   UNL     1      13.170   9.341  16.303  0.00  0.00    -0.033 A 
ATOM     15  C   UNL     1      12.174   9.627  15.370  0.00  0.00    +0.005 A 
ATOM     16  C   UNL     1      12.850   8.665  17.480  0.00  0.00    +0.005 A 
ATOM     19  C   UNL     1      10.857   9.236  15.614  0.00  0.00    +0.000 A 
ATOM     20  C   UNL     1      11.534   8.274  17.724  0.00  0.00    +0.000 A 
ATOM     21  C   UNL     1      10.537   8.561  16.791  0.00  0.00    +0.000 A 
ENDBRANCH  12  14
ENDBRANCH   3  12
ENDBRANCH  13   8
TORSDOF 7
ENDMDL
MODEL 6
REMARK VINA RESULT:      -6.2      2.166      3.151
REMARK  Name = 45783273
REMARK  8 active torsions:
REMARK  status: ('A' for Active; 'I' for Inactive)
REMARK    1  A    between atoms: O_2  and  C_27
REMARK    2  A    between atoms: O_2  and  C_28
REMARK    3  A    between atoms: N_3  and  C_12
REMARK    4  A    between atoms: N_6  and  C_26
REMARK    5  A    between atoms: C_8  and  C_13
REMARK    6  A    between atoms: C_12  and  C_14
REMARK    7  A    between atoms: C_17  and  C_18
REMARK    8  A    between atoms: C_26  and  C_27
REMARK                            x       y       z     vdW  Elec       q    Type
REMARK                         _______ _______ _______ _____ _____    ______ ____
ROOT
ATOM      1  O   UNL     1      -4.404 -10.923  17.557  0.00  0.00    -0.336 OA
ATOM      4  N   UNL     1      -5.569 -10.529  15.685  0.00  0.00    -0.190 NA
ATOM      5  N   UNL     1      -5.702 -10.593  17.968  0.00  0.00    -0.056 NA
ATOM     13  C   UNL     1      -4.412 -10.861  16.200  0.00  0.00    +0.245 A 
ATOM     17  C   UNL     1      -6.329 -10.376  16.808  0.00  0.00    +0.202 A 
ENDROOT
BRANCH  17  18
ATOM      6  N   UNL     1     -10.704  -9.995  18.846  0.00  0.00    -0.327 N 
ATOM      7  N   UNL     1     -10.406  -9.267  16.597  0.00  0.00    -0.240 NA
ATOM     18  C   UNL     1      -7.712 -10.001  16.736  0.00  0.00    +0.027 A 
ATOM     22  C   UNL     1      -8.543 -10.183  17.836  0.00  0.00    +0.055 A 
ATOM     23  C   UNL     1      -8.227  -9.453  15.567  0.00  0.00    +0.031 A 
ATOM     24  C   UNL     1      -9.870  -9.802  17.717  0.00  0.00    +0.119 A 
ATOM     25  C   UNL     1      -9.568  -9.106  15.548  0.00  0.00    +0.113 A 
ATOM     29  H   UNL     1     -11.672  -9.710  18.746  0.00  0.00    +0.148 HD
BRANCH   6  26
ATOM     26  C   UNL     1     -10.228 -10.554  20.069  0.00  0.00    +0.131 C 
BRANCH  26  27
ATOM     27  C   UNL     1     -10.812 -11.942  20.268  0.00  0.00    +0.178 C 
BRANCH  27   2
ATOM      2  O   UNL     1     -10.022 -12.894  19.568  0.00  0.00    -0.381 OA
ATOM     28  C   UNL     1     -10.792 -13.606  18.609  0.00  0.00    +0.194 C 
ENDBRANCH  27   2
ENDBRANCH  26  27
ENDBRANCH   6  26
ENDBRANCH  17  18
BRANCH  13   8
ATOM      3  N   UNL     1      -2.968 -10.481  14.210  0.00  0.00    -0.287 NA
ATOM      8  C   UNL     1      -3.107 -11.180  15.503  0.00  0.00    +0.146 C 
ATOM      9  C   UNL     1      -1.875 -10.745  16.318  0.00  0.00    +0.030 C 
ATOM     10  C   UNL     1      -1.074  -9.853  15.380  0.00  0.00    +0.017 C 
ATOM     11  C   UNL     1      -1.534 -10.279  14.000  0.00  0.00    +0.085 C 
BRANCH   3  12
ATOM     12  C   UNL     1      -3.588 -11.195  13.101  0.00  0.00    +0.120 C 
BRANCH  12  14
ATOM     14  C   UNL     1      -4.015 -10.260  12.000  0.00  0.00    -0.033 A 
ATOM     15  C   UNL     1      -5.248  -9.613  12.074  0.00  0.00    +0.005 A 
ATOM     16  C   UNL     1      -3.177 -10.042  10.907  0.00  0.00    +0.005 A 
ATOM     19  C   UNL     1      -5.643  -8.746  11.055  0.00  0.00    +0.000 A 
ATOM     20  C   UNL     1      -3.572  -9.175   9.888  0.00  0.00    +0.000 A 
ATOM     21  C   UNL     1      -4.806  -8.528   9.961  0.00  0.00    +0.000 A 
ENDBRANCH  12  14
ENDBRANCH   3  12
ENDBRANCH  13   8
TORSDOF 7
ENDMDL
MODEL 7
REMARK VINA RESULT:      -6.2     20.799     25.253
REMARK  Name = 45783273
REMARK  8 active torsions:
REMARK  status: ('A' for Active; 'I' for Inactive)
REMARK    1  A    between atoms: O_2  and  C_27
REMARK    2  A    between atoms: O_2  and  C_28
REMARK    3  A    between atoms: N_3  and  C_12
REMARK    4  A    between atoms: N_6  and  C_26
REMARK    5  A    between atoms: C_8  and  C_13
REMARK    6  A    between atoms: C_12  and  C_14
REMARK    7  A    between atoms: C_17  and  C_18
REMARK    8  A    between atoms: C_26  and  C_27
REMARK                            x       y       z     vdW  Elec       q    Type
REMARK                         _______ _______ _______ _____ _____    ______ ____
ROOT
ATOM      1  O   UNL     1     -13.797   9.427  31.422  0.00  0.00    -0.336 OA
ATOM      4  N   UNL     1     -12.270   8.046  32.305  0.00  0.00    -0.190 NA
ATOM      5  N   UNL     1     -14.511   8.343  31.949  0.00  0.00    -0.056 NA
ATOM     13  C   UNL     1     -12.487   9.172  31.674  0.00  0.00    +0.245 A 
ATOM     17  C   UNL     1     -13.542   7.572  32.453  0.00  0.00    +0.202 A 
ENDROOT
BRANCH  17  18
ATOM      6  N   UNL     1     -13.940   2.750  32.327  0.00  0.00    -0.327 N 
ATOM      7  N   UNL     1     -14.328   3.891  34.382  0.00  0.00    -0.240 NA
ATOM     18  C   UNL     1     -13.810   6.324  33.106  0.00  0.00    +0.027 A 
ATOM     22  C   UNL     1     -13.744   5.133  32.392  0.00  0.00    +0.055 A 
ATOM     23  C   UNL     1     -14.134   6.299  34.458  0.00  0.00    +0.031 A 
ATOM     24  C   UNL     1     -14.009   3.954  33.070  0.00  0.00    +0.119 A 
ATOM     25  C   UNL     1     -14.382   5.068  35.044  0.00  0.00    +0.113 A 
ATOM     29  H   UNL     1     -14.133   1.894  32.836  0.00  0.00    +0.148 HD
BRANCH   6  26
ATOM     26  C   UNL     1     -13.613   2.718  30.939  0.00  0.00    +0.131 C 
BRANCH  26  27
ATOM     27  C   UNL     1     -14.588   1.820  30.196  0.00  0.00    +0.178 C 
BRANCH  27   2
ATOM      2  O   UNL     1     -14.498   0.497  30.708  0.00  0.00    -0.381 OA
ATOM     28  C   UNL     1     -13.634  -0.310  29.920  0.00  0.00    +0.194 C 
ENDBRANCH  27   2
ENDBRANCH  26  27
ENDBRANCH   6  26
ENDBRANCH  17  18
BRANCH  13   8
ATOM      3  N   UNL     1     -11.816  10.729  29.852  0.00  0.00    -0.287 NA
ATOM      8  C   UNL     1     -11.493  10.210  31.196  0.00  0.00    +0.146 C 
ATOM      9  C   UNL     1     -11.457  11.457  32.098  0.00  0.00    +0.030 C 
ATOM     10  C   UNL     1     -11.709  12.632  31.164  0.00  0.00    +0.017 C 
ATOM     11  C   UNL     1     -11.305  12.099  29.803  0.00  0.00    +0.085 C 
BRANCH   3  12
ATOM     12  C   UNL     1     -11.280   9.906  28.775  0.00  0.00    +0.120 C 
BRANCH  12  14
ATOM     14  C   UNL     1     -11.865  10.282  27.438  0.00  0.00    -0.033 A 
ATOM     15  C   UNL     1     -11.021  10.589  26.371  0.00  0.00    +0.005 A 
ATOM     16  C   UNL     1     -13.247  10.322  27.269  0.00  0.00    +0.005 A 
ATOM     19  C   UNL     1     -11.563  10.935  25.133  0.00  0.00    +0.000 A 
ATOM     20  C   UNL     1     -13.789  10.668  26.031  0.00  0.00    +0.000 A 
ATOM     21  C   UNL     1     -12.946  10.976  24.963  0.00  0.00    +0.000 A 
ENDBRANCH  12  14
ENDBRANCH   3  12
ENDBRANCH  13   8
TORSDOF 7
ENDMDL
MODEL 8
REMARK VINA RESULT:      -6.2     19.933     22.137
REMARK  Name = 45783273
REMARK  8 active torsions:
REMARK  status: ('A' for Active; 'I' for Inactive)
REMARK    1  A    between atoms: O_2  and  C_27
REMARK    2  A    between atoms: O_2  and  C_28
REMARK    3  A    between atoms: N_3  and  C_12
REMARK    4  A    between atoms: N_6  and  C_26
REMARK    5  A    between atoms: C_8  and  C_13
REMARK    6  A    between atoms: C_12  and  C_14
REMARK    7  A    between atoms: C_17  and  C_18
REMARK    8  A    between atoms: C_26  and  C_27
REMARK                            x       y       z     vdW  Elec       q    Type
REMARK                         _______ _______ _______ _____ _____    ______ ____
ROOT
ATOM      1  O   UNL     1     -11.984  11.919  19.308  0.00  0.00    -0.336 OA
ATOM      4  N   UNL     1     -11.294  10.275  20.664  0.00  0.00    -0.190 NA
ATOM      5  N   UNL     1     -12.690  12.081  20.507  0.00  0.00    -0.056 NA
ATOM     13  C   UNL     1     -11.186  10.834  19.485  0.00  0.00    +0.245 A 
ATOM     17  C   UNL     1     -12.228  11.076  21.256  0.00  0.00    +0.202 A 
ENDROOT
BRANCH  17  18
ATOM      6  N   UNL     1     -15.307   9.002  24.363  0.00  0.00    -0.327 N 
ATOM      7  N   UNL     1     -13.558  10.380  25.210  0.00  0.00    -0.240 NA
ATOM     18  C   UNL     1     -12.680  10.841  22.597  0.00  0.00    +0.027 A 
ATOM     22  C   UNL     1     -13.784  10.029  22.829  0.00  0.00    +0.055 A 
ATOM     23  C   UNL     1     -12.014  11.423  23.670  0.00  0.00    +0.031 A 
ATOM     24  C   UNL     1     -14.179   9.831  24.143  0.00  0.00    +0.119 A 
ATOM     25  C   UNL     1     -12.488  11.164  24.946  0.00  0.00    +0.113 A 
ATOM     29  H   UNL     1     -15.584   8.864  25.329  0.00  0.00    +0.148 HD
BRANCH   6  26
ATOM     26  C   UNL     1     -16.027   8.382  23.299  0.00  0.00    +0.131 C 
BRANCH  26  27
ATOM     27  C   UNL     1     -16.760   7.155  23.814  0.00  0.00    +0.178 C 
BRANCH  27   2
ATOM      2  O   UNL     1     -15.977   5.995  23.566  0.00  0.00    -0.381 OA
ATOM     28  C   UNL     1     -16.691   5.039  22.795  0.00  0.00    +0.194 C 
ENDBRANCH  27   2
ENDBRANCH  26  27
ENDBRANCH   6  26
ENDBRANCH  17  18
BRANCH  13   8
ATOM      3  N   UNL     1     -10.975   9.504  17.392  0.00  0.00    -0.287 NA
ATOM      8  C   UNL     1     -10.308  10.444  18.315  0.00  0.00    +0.146 C 
ATOM      9  C   UNL     1      -9.920  11.647  17.436  0.00  0.00    +0.030 C 
ATOM     10  C   UNL     1     -10.354  11.266  16.027  0.00  0.00    +0.017 C 
ATOM     11  C   UNL     1     -10.407   9.752  16.066  0.00  0.00    +0.085 C 
BRANCH   3  12
ATOM     12  C   UNL     1     -10.839   8.110  17.794  0.00  0.00    +0.120 C 
BRANCH  12  14
ATOM     14  C   UNL     1     -11.872   7.718  18.819  0.00  0.00    -0.033 A 
ATOM     15  C   UNL     1     -11.478   7.091  20.000  0.00  0.00    +0.005 A 
ATOM     16  C   UNL     1     -13.220   7.982  18.585  0.00  0.00    +0.005 A 
ATOM     19  C   UNL     1     -12.434   6.728  20.949  0.00  0.00    +0.000 A 
ATOM     20  C   UNL     1     -14.177   7.620  19.534  0.00  0.00    +0.000 A 
ATOM     21  C   UNL     1     -13.783   6.992  20.716  0.00  0.00    +0.000 A 
ENDBRANCH  12  14
ENDBRANCH   3  12
ENDBRANCH  13   8
TORSDOF 7
ENDMDL
MODEL 9
REMARK VINA RESULT:      -6.1     19.979     24.854
REMARK  Name = 45783273
REMARK  8 active torsions:
REMARK  status: ('A' for Active; 'I' for Inactive)
REMARK    1  A    between atoms: O_2  and  C_27
REMARK    2  A    between atoms: O_2  and  C_28
REMARK    3  A    between atoms: N_3  and  C_12
REMARK    4  A    between atoms: N_6  and  C_26
REMARK    5  A    between atoms: C_8  and  C_13
REMARK    6  A    between atoms: C_12  and  C_14
REMARK    7  A    between atoms: C_17  and  C_18
REMARK    8  A    between atoms: C_26  and  C_27
REMARK                            x       y       z     vdW  Elec       q    Type
REMARK                         _______ _______ _______ _____ _____    ______ ____
ROOT
ATOM      1  O   UNL     1     -14.439   4.095  33.951  0.00  0.00    -0.336 OA
ATOM      4  N   UNL     1     -15.775   4.256  32.161  0.00  0.00    -0.190 NA
ATOM      5  N   UNL     1     -14.232   2.928  33.205  0.00  0.00    -0.056 NA
ATOM     13  C   UNL     1     -15.362   4.820  33.267  0.00  0.00    +0.245 A 
ATOM     17  C   UNL     1     -15.054   3.097  32.165  0.00  0.00    +0.202 A 
ENDROOT
BRANCH  17  18
ATOM      6  N   UNL     1     -16.334   1.920  27.647  0.00  0.00    -0.327 N 
ATOM      7  N   UNL     1     -15.422   0.239  29.068  0.00  0.00    -0.240 NA
ATOM     18  C   UNL     1     -15.180   2.128  31.115  0.00  0.00    +0.027 A 
ATOM     22  C   UNL     1     -15.701   2.499  29.881  0.00  0.00    +0.055 A 
ATOM     23  C   UNL     1     -14.779   0.813  31.327  0.00  0.00    +0.031 A 
ATOM     24  C   UNL     1     -15.800   1.526  28.899  0.00  0.00    +0.119 A 
ATOM     25  C   UNL     1     -14.920  -0.085  30.281  0.00  0.00    +0.113 A 
ATOM     29  H   UNL     1     -16.398   1.199  26.937  0.00  0.00    +0.148 HD
BRANCH   6  26
ATOM     26  C   UNL     1     -16.761   3.254  27.377  0.00  0.00    +0.131 C 
BRANCH  26  27
ATOM     27  C   UNL     1     -16.870   3.470  25.877  0.00  0.00    +0.178 C 
BRANCH  27   2
ATOM      2  O   UNL     1     -15.623   3.173  25.264  0.00  0.00    -0.381 OA
ATOM     28  C   UNL     1     -15.312   4.103  24.235  0.00  0.00    +0.194 C 
ENDBRANCH  27   2
ENDBRANCH  26  27
ENDBRANCH   6  26
ENDBRANCH  17  18
BRANCH  13   8
ATOM      3  N   UNL     1     -14.860   7.248  33.484  0.00  0.00    -0.287 NA
ATOM      8  C   UNL     1     -15.763   6.147  33.875  0.00  0.00    +0.146 C 
ATOM      9  C   UNL     1     -17.162   6.609  33.425  0.00  0.00    +0.030 C 
ATOM     10  C   UNL     1     -16.954   8.003  32.849  0.00  0.00    +0.017 C 
ATOM     11  C   UNL     1     -15.666   8.470  33.498  0.00  0.00    +0.085 C 
BRANCH   3  12
ATOM     12  C   UNL     1     -13.685   7.358  34.338  0.00  0.00    +0.120 C 
BRANCH  12  14
ATOM     14  C   UNL     1     -12.608   8.199  33.704  0.00  0.00    -0.033 A 
ATOM     15  C   UNL     1     -11.922   9.144  34.468  0.00  0.00    +0.005 A 
ATOM     16  C   UNL     1     -12.298   8.034  32.355  0.00  0.00    +0.005 A 
ATOM     19  C   UNL     1     -10.924   9.922  33.881  0.00  0.00    +0.000 A 
ATOM     20  C   UNL     1     -11.300   8.813  31.769  0.00  0.00    +0.000 A 
ATOM     21  C   UNL     1     -10.614   9.758  32.532  0.00  0.00    +0.000 A 
ENDBRANCH  12  14
ENDBRANCH   3  12
ENDBRANCH  13   8
TORSDOF 7
ENDMDL
MODEL 10
REMARK VINA RESULT:      -6.0      2.473      4.594
REMARK  Name = 45783273
REMARK  8 active torsions:
REMARK  status: ('A' for Active; 'I' for Inactive)
REMARK    1  A    between atoms: O_2  and  C_27
REMARK    2  A    between atoms: O_2  and  C_28
REMARK    3  A    between atoms: N_3  and  C_12
REMARK    4  A    between atoms: N_6  and  C_26
REMARK    5  A    between atoms: C_8  and  C_13
REMARK    6  A    between atoms: C_12  and  C_14
REMARK    7  A    between atoms: C_17  and  C_18
REMARK    8  A    between atoms: C_26  and  C_27
REMARK                            x       y       z     vdW  Elec       q    Type
REMARK                         _______ _______ _______ _____ _____    ______ ____
ROOT
ATOM      1  O   UNL     1      -7.405 -10.476  11.373  0.00  0.00    -0.336 OA
ATOM      4  N   UNL     1      -5.993  -9.167  12.517  0.00  0.00    -0.190 NA
ATOM      5  N   UNL     1      -7.565 -10.817  12.723  0.00  0.00    -0.056 NA
ATOM     13  C   UNL     1      -6.462  -9.500  11.341  0.00  0.00    +0.245 A 
ATOM     17  C   UNL     1      -6.700 -10.002  13.334  0.00  0.00    +0.202 A 
ENDROOT
BRANCH  17  18
ATOM      6  N   UNL     1      -8.454  -9.432  17.809  0.00  0.00    -0.327 N 
ATOM      7  N   UNL     1      -6.156  -9.994  17.528  0.00  0.00    -0.240 NA
ATOM     18  C   UNL     1      -6.515  -9.998  14.756  0.00  0.00    +0.027 A 
ATOM     22  C   UNL     1      -7.584  -9.714  15.598  0.00  0.00    +0.055 A 
ATOM     23  C   UNL     1      -5.267 -10.281  15.299  0.00  0.00    +0.031 A 
ATOM     24  C   UNL     1      -7.355  -9.725  16.964  0.00  0.00    +0.119 A 
ATOM     25  C   UNL     1      -5.140 -10.266  16.679  0.00  0.00    +0.113 A 
ATOM     29  H   UNL     1      -8.273  -9.446  18.807  0.00  0.00    +0.148 HD
BRANCH   6  26
ATOM     26  C   UNL     1      -9.755  -9.134  17.306  0.00  0.00    +0.131 C 
BRANCH  26  27
ATOM     27  C   UNL     1      -9.999  -7.635  17.349  0.00  0.00    +0.178 C 
BRANCH  27   2
ATOM      2  O   UNL     1     -10.192  -7.148  16.028  0.00  0.00    -0.381 OA
ATOM     28  C   UNL     1     -11.281  -6.237  15.962  0.00  0.00    +0.194 C 
ENDBRANCH  27   2
ENDBRANCH  26  27
ENDBRANCH   6  26
ENDBRANCH  17  18
BRANCH  13   8
ATOM      3  N   UNL     1      -5.220  -9.858   9.214  0.00  0.00    -0.287 NA
ATOM      8  C   UNL     1      -6.104  -8.952   9.975  0.00  0.00    +0.146 C 
ATOM      9  C   UNL     1      -7.335  -8.756   9.072  0.00  0.00    +0.030 C 
ATOM     10  C   UNL     1      -7.026  -9.538   7.803  0.00  0.00    +0.017 C 
ATOM     11  C   UNL     1      -5.513  -9.629   7.799  0.00  0.00    +0.085 C 
BRANCH   3  12
ATOM     12  C   UNL     1      -3.808  -9.672   9.518  0.00  0.00    +0.120 C 
BRANCH  12  14
ATOM     14  C   UNL     1      -3.323 -10.651  10.555  0.00  0.00    -0.033 A 
ATOM     15  C   UNL     1      -3.762 -11.975  10.523  0.00  0.00    +0.005 A 
ATOM     16  C   UNL     1      -2.436 -10.235  11.546  0.00  0.00    +0.005 A 
ATOM     19  C   UNL     1      -3.312 -12.882  11.482  0.00  0.00    +0.000 A 
ATOM     20  C   UNL     1      -1.986 -11.142  12.506  0.00  0.00    +0.000 A 
ATOM     21  C   UNL     1      -2.425 -12.465  12.474  0.00  0.00    +0.000 A 
ENDBRANCH  12  14
ENDBRANCH   3  12
ENDBRANCH  13   8
TORSDOF 7
ENDMDL
