MODEL 1
REMARK VINA RESULT:      -6.3      0.000      0.000
REMARK  Name = 26763546
REMARK  9 active torsions:
REMARK  status: ('A' for Active; 'I' for Inactive)
REMARK    1  A    between atoms: O_3  and  C_13
REMARK    2  A    between atoms: O_4  and  C_18
REMARK    3  A    between atoms: C_8  and  C_16
REMARK    4  A    between atoms: C_10  and  C_18
REMARK    5  A    between atoms: C_10  and  C_19
REMARK    6  A    between atoms: C_11  and  C_21
REMARK    7  A    between atoms: C_21  and  C_22
REMARK    8  A    between atoms: C_23  and  C_26
REMARK    9  A    between atoms: C_29  and  C_30
REMARK                            x       y       z     vdW  Elec       q    Type
REMARK                         _______ _______ _______ _____ _____    ______ ____
ROOT
ATOM      1  S   UNL     1      13.516   8.413  18.072  0.00  0.00    -0.072 S 
ATOM      6  N   UNL     1      12.580  10.265  19.616  0.00  0.00    -0.243 NA
ATOM      8  C   UNL     1      14.678  12.810  17.618  0.00  0.00    -0.020 C 
ATOM      9  C   UNL     1      14.566  11.963  16.274  0.00  0.00    +0.011 C 
ATOM     10  C   UNL     1      15.386  12.484  15.030  0.00  0.00    +0.021 C 
ATOM     11  C   UNL     1      13.470  12.381  18.572  0.00  0.00    +0.053 C 
ATOM     12  C   UNL     1      14.533  14.318  17.291  0.00  0.00    +0.010 C 
ATOM     13  C   UNL     1      15.165  14.016  14.875  0.00  0.00    +0.123 C 
ATOM     14  C   UNL     1      14.737  10.440  16.544  0.00  0.00    +0.049 C 
ATOM     15  C   UNL     1      15.432  14.793  16.158  0.00  0.00    +0.032 C 
ATOM     16  C   UNL     1      16.021  12.588  18.356  0.00  0.00    +0.012 C 
ATOM     17  C   UNL     1      13.333  10.883  18.634  0.00  0.00    +0.056 A 
ATOM     19  C   UNL     1      14.838  11.806  13.742  0.00  0.00    +0.016 C 
ATOM     20  C   UNL     1      13.894  10.031  17.704  0.00  0.00    +0.014 A 
ATOM     23  C   UNL     1      12.612   8.964  19.424  0.00  0.00    +0.109 A 
ENDROOT
BRANCH  23  26
ATOM      2  S   UNL     1      11.238   5.856  21.526  0.00  0.00    -0.104 S 
ATOM     26  C   UNL     1      11.906   8.025  20.324  0.00  0.00    +0.014 A 
ATOM     31  C   UNL     1      10.838   8.373  21.201  0.00  0.00    +0.018 A 
ATOM     32  C   UNL     1      12.224   6.688  20.400  0.00  0.00    +0.055 A 
ATOM     33  C   UNL     1      10.381   7.287  21.914  0.00  0.00    +0.046 A 
ENDBRANCH  23  26
BRANCH  13   3
ATOM      3  O   UNL     1      15.994  14.541  13.839  0.00  0.00    -0.391 OA
ATOM     34  H   UNL     1      15.439  14.663  13.050  0.00  0.00    +0.210 HD
ENDBRANCH  13   3
BRANCH  10  18
ATOM     18  C   UNL     1      16.892  12.145  15.068  0.00  0.00    +0.165 C 
BRANCH  18   4
ATOM      4  O   UNL     1      17.280  11.752  13.771  0.00  0.00    -0.394 OA
ATOM     35  H   UNL     1      18.237  11.583  13.793  0.00  0.00    +0.209 HD
ENDBRANCH  18   4
ENDBRANCH  10  18
BRANCH  11  21
ATOM     21  C   UNL     1      13.516  13.001  19.976  0.00  0.00    +0.106 C 
BRANCH  21  22
ATOM      5  O   UNL     1      11.915  14.685  19.511  0.00  0.00    -0.276 OA
ATOM      7  N   UNL     1      11.482  13.318  21.340  0.00  0.00    -0.301 N 
ATOM     22  C   UNL     1      12.234  13.747  20.247  0.00  0.00    +0.216 C 
ATOM     24  C   UNL     1      11.835  12.209  22.233  0.00  0.00    +0.108 C 
ATOM     25  C   UNL     1      10.205  13.967  21.645  0.00  0.00    +0.108 C 
ATOM     27  C   UNL     1      11.839  12.666  23.690  0.00  0.00    +0.022 C 
ATOM     28  C   UNL     1      10.177  14.463  23.089  0.00  0.00    +0.022 C 
ATOM     29  C   UNL     1      10.507  13.328  24.072  0.00  0.00    -0.011 C 
ATOM     30  C   UNL     1      10.550  13.848  25.507  0.00  0.00    +0.007 C 
ENDBRANCH  21  22
ENDBRANCH  11  21
TORSDOF 6
ENDMDL
MODEL 2
REMARK VINA RESULT:      -6.3     27.794     30.554
REMARK  Name = 26763546
REMARK  9 active torsions:
REMARK  status: ('A' for Active; 'I' for Inactive)
REMARK    1  A    between atoms: O_3  and  C_13
REMARK    2  A    between atoms: O_4  and  C_18
REMARK    3  A    between atoms: C_8  and  C_16
REMARK    4  A    between atoms: C_10  and  C_18
REMARK    5  A    between atoms: C_10  and  C_19
REMARK    6  A    between atoms: C_11  and  C_21
REMARK    7  A    between atoms: C_21  and  C_22
REMARK    8  A    between atoms: C_23  and  C_26
REMARK    9  A    between atoms: C_29  and  C_30
REMARK                            x       y       z     vdW  Elec       q    Type
REMARK                         _______ _______ _______ _____ _____    ______ ____
ROOT
ATOM      1  S   UNL     1      -6.263 -10.137  10.657  0.00  0.00    -0.072 S 
ATOM      6  N   UNL     1      -7.961  -9.530  12.512  0.00  0.00    -0.243 NA
ATOM      8  C   UNL     1      -5.457 -10.940  15.084  0.00  0.00    -0.020 C 
ATOM      9  C   UNL     1      -4.199 -10.535  14.196  0.00  0.00    +0.011 C 
ATOM     10  C   UNL     1      -2.780 -10.992  14.716  0.00  0.00    +0.021 C 
ATOM     11  C   UNL     1      -6.691 -10.030  14.633  0.00  0.00    +0.053 C 
ATOM     12  C   UNL     1      -5.152 -10.646  16.575  0.00  0.00    +0.010 C 
ATOM     13  C   UNL     1      -2.660 -10.667  16.232  0.00  0.00    +0.123 C 
ATOM     14  C   UNL     1      -4.443 -10.840  12.690  0.00  0.00    +0.049 C 
ATOM     15  C   UNL     1      -3.822 -11.210  17.055  0.00  0.00    +0.032 C 
ATOM     16  C   UNL     1      -5.839 -12.433  14.939  0.00  0.00    +0.012 C 
ATOM     17  C   UNL     1      -6.810  -9.983  13.132  0.00  0.00    +0.056 A 
ATOM     19  C   UNL     1      -1.683 -10.172  13.979  0.00  0.00    +0.016 C 
ATOM     20  C   UNL     1      -5.784 -10.334  12.279  0.00  0.00    +0.014 A 
ATOM     23  C   UNL     1      -7.788  -9.575  11.208  0.00  0.00    +0.109 A 
ENDROOT
BRANCH  23  26
ATOM      2  S   UNL     1     -10.036  -8.016   8.295  0.00  0.00    -0.104 S 
ATOM     26  C   UNL     1      -8.852  -9.161  10.266  0.00  0.00    +0.014 A 
ATOM     31  C   UNL     1     -10.214  -9.574  10.330  0.00  0.00    +0.018 A 
ATOM     32  C   UNL     1      -8.618  -8.312   9.208  0.00  0.00    +0.055 A 
ATOM     33  C   UNL     1     -10.969  -9.025   9.317  0.00  0.00    +0.046 A 
ENDBRANCH  23  26
BRANCH  13   3
ATOM      3  O   UNL     1      -1.441 -11.185  16.762  0.00  0.00    -0.391 OA
ATOM     34  H   UNL     1      -0.858 -11.396  16.012  0.00  0.00    +0.210 HD
ENDBRANCH  13   3
BRANCH  10  18
ATOM     18  C   UNL     1      -2.445 -12.474  14.441  0.00  0.00    +0.165 C 
BRANCH  18   4
ATOM      4  O   UNL     1      -1.092 -12.546  14.048  0.00  0.00    -0.394 OA
ATOM     35  H   UNL     1      -1.062 -13.011  13.195  0.00  0.00    +0.209 HD
ENDBRANCH  18   4
ENDBRANCH  10  18
BRANCH  11  21
ATOM     21  C   UNL     1      -8.028 -10.396  15.292  0.00  0.00    +0.106 C 
BRANCH  21  22
ATOM      5  O   UNL     1      -7.875  -8.910  17.132  0.00  0.00    -0.276 OA
ATOM      7  N   UNL     1      -9.690  -8.618  15.711  0.00  0.00    -0.301 N 
ATOM     22  C   UNL     1      -8.516  -9.242  16.131  0.00  0.00    +0.216 C 
ATOM     24  C   UNL     1     -10.475  -8.990  14.528  0.00  0.00    +0.108 C 
ATOM     25  C   UNL     1     -10.208  -7.465  16.449  0.00  0.00    +0.108 C 
ATOM     27  C   UNL     1     -11.933  -9.247  14.903  0.00  0.00    +0.022 C 
ATOM     28  C   UNL     1     -11.659  -7.692  16.866  0.00  0.00    +0.022 C 
ATOM     29  C   UNL     1     -12.535  -8.052  15.656  0.00  0.00    -0.011 C 
ATOM     30  C   UNL     1     -13.968  -8.350  16.091  0.00  0.00    +0.007 C 
ENDBRANCH  21  22
ENDBRANCH  11  21
TORSDOF 6
ENDMDL
MODEL 3
REMARK VINA RESULT:      -6.3     29.206     31.120
REMARK  Name = 26763546
REMARK  9 active torsions:
REMARK  status: ('A' for Active; 'I' for Inactive)
REMARK    1  A    between atoms: O_3  and  C_13
REMARK    2  A    between atoms: O_4  and  C_18
REMARK    3  A    between atoms: C_8  and  C_16
REMARK    4  A    between atoms: C_10  and  C_18
REMARK    5  A    between atoms: C_10  and  C_19
REMARK    6  A    between atoms: C_11  and  C_21
REMARK    7  A    between atoms: C_21  and  C_22
REMARK    8  A    between atoms: C_23  and  C_26
REMARK    9  A    between atoms: C_29  and  C_30
REMARK                            x       y       z     vdW  Elec       q    Type
REMARK                         _______ _______ _______ _____ _____    ______ ____
ROOT
ATOM      1  S   UNL     1      -5.638 -10.748  12.680  0.00  0.00    -0.072 S 
ATOM      6  N   UNL     1      -7.731  -9.360  13.299  0.00  0.00    -0.243 NA
ATOM      8  C   UNL     1      -7.490 -10.826  16.858  0.00  0.00    -0.020 C 
ATOM      9  C   UNL     1      -5.904 -10.951  16.783  0.00  0.00    +0.011 C 
ATOM     10  C   UNL     1      -5.183 -11.647  18.001  0.00  0.00    +0.021 C 
ATOM     11  C   UNL     1      -7.950  -9.737  15.784  0.00  0.00    +0.053 C 
ATOM     12  C   UNL     1      -7.902 -10.329  18.267  0.00  0.00    +0.010 C 
ATOM     13  C   UNL     1      -5.745 -11.068  19.330  0.00  0.00    +0.123 C 
ATOM     14  C   UNL     1      -5.439 -11.478  15.394  0.00  0.00    +0.049 C 
ATOM     15  C   UNL     1      -7.267 -11.111  19.408  0.00  0.00    +0.032 C 
ATOM     16  C   UNL     1      -8.211 -12.167  16.573  0.00  0.00    +0.012 C 
ATOM     17  C   UNL     1      -7.273  -9.963  14.457  0.00  0.00    +0.056 A 
ATOM     19  C   UNL     1      -3.666 -11.307  17.954  0.00  0.00    +0.016 C 
ATOM     20  C   UNL     1      -6.138 -10.733  14.307  0.00  0.00    +0.014 A 
ATOM     23  C   UNL     1      -6.950  -9.709  12.300  0.00  0.00    +0.109 A 
ENDROOT
BRANCH  23  26
ATOM      2  S   UNL     1      -8.410  -8.574   8.757  0.00  0.00    -0.104 S 
ATOM     26  C   UNL     1      -7.189  -9.230  10.920  0.00  0.00    +0.014 A 
ATOM     31  C   UNL     1      -6.181  -8.784  10.018  0.00  0.00    +0.018 A 
ATOM     32  C   UNL     1      -8.447  -9.168  10.362  0.00  0.00    +0.055 A 
ATOM     33  C   UNL     1      -6.707  -8.398   8.805  0.00  0.00    +0.046 A 
ENDBRANCH  23  26
BRANCH  13   3
ATOM      3  O   UNL     1      -5.208 -11.768  20.452  0.00  0.00    -0.391 OA
ATOM     34  H   UNL     1      -4.626 -12.468  20.111  0.00  0.00    +0.210 HD
ENDBRANCH  13   3
BRANCH  10  18
ATOM     18  C   UNL     1      -5.262 -13.190  17.995  0.00  0.00    +0.165 C 
BRANCH  18   4
ATOM      4  O   UNL     1      -4.082 -13.685  18.589  0.00  0.00    -0.394 OA
ATOM     35  H   UNL     1      -3.970 -14.603  18.287  0.00  0.00    +0.209 HD
ENDBRANCH  18   4
ENDBRANCH  10  18
BRANCH  11  21
ATOM     21  C   UNL     1      -9.471  -9.602  15.624  0.00  0.00    +0.106 C 
BRANCH  21  22
ATOM      5  O   UNL     1      -9.407  -7.672  16.997  0.00  0.00    -0.276 OA
ATOM      7  N   UNL     1     -10.857  -7.606  15.182  0.00  0.00    -0.301 N 
ATOM     22  C   UNL     1      -9.902  -8.207  16.002  0.00  0.00    +0.216 C 
ATOM     24  C   UNL     1     -11.464  -8.217  13.994  0.00  0.00    +0.108 C 
ATOM     25  C   UNL     1     -11.299  -6.238  15.460  0.00  0.00    +0.108 C 
ATOM     27  C   UNL     1     -12.989  -8.190  14.090  0.00  0.00    +0.022 C 
ATOM     28  C   UNL     1     -12.819  -6.172  15.589  0.00  0.00    +0.022 C 
ATOM     29  C   UNL     1     -13.508  -6.769  14.351  0.00  0.00    -0.011 C 
ATOM     30  C   UNL     1     -15.025  -6.766  14.520  0.00  0.00    +0.007 C 
ENDBRANCH  21  22
ENDBRANCH  11  21
TORSDOF 6
ENDMDL
MODEL 4
REMARK VINA RESULT:      -6.2     14.547     18.367
REMARK  Name = 26763546
REMARK  9 active torsions:
REMARK  status: ('A' for Active; 'I' for Inactive)
REMARK    1  A    between atoms: O_3  and  C_13
REMARK    2  A    between atoms: O_4  and  C_18
REMARK    3  A    between atoms: C_8  and  C_16
REMARK    4  A    between atoms: C_10  and  C_18
REMARK    5  A    between atoms: C_10  and  C_19
REMARK    6  A    between atoms: C_11  and  C_21
REMARK    7  A    between atoms: C_21  and  C_22
REMARK    8  A    between atoms: C_23  and  C_26
REMARK    9  A    between atoms: C_29  and  C_30
REMARK                            x       y       z     vdW  Elec       q    Type
REMARK                         _______ _______ _______ _____ _____    ______ ____
ROOT
ATOM      1  S   UNL     1       9.550   7.973  -0.470  0.00  0.00    -0.072 S 
ATOM      6  N   UNL     1       9.922   7.543   2.054  0.00  0.00    -0.243 NA
ATOM      8  C   UNL     1      12.741   5.096   1.088  0.00  0.00    -0.020 C 
ATOM      9  C   UNL     1      13.106   5.914  -0.228  0.00  0.00    +0.011 C 
ATOM     10  C   UNL     1      14.201   5.289  -1.178  0.00  0.00    +0.021 C 
ATOM     11  C   UNL     1      11.978   6.083   2.086  0.00  0.00    +0.053 C 
ATOM     12  C   UNL     1      14.045   4.616   1.776  0.00  0.00    +0.010 C 
ATOM     13  C   UNL     1      15.413   4.821  -0.325  0.00  0.00    +0.123 C 
ATOM     14  C   UNL     1      11.827   6.393  -0.974  0.00  0.00    +0.049 C 
ATOM     15  C   UNL     1      15.017   3.917   0.836  0.00  0.00    +0.032 C 
ATOM     16  C   UNL     1      11.848   3.863   0.800  0.00  0.00    +0.012 C 
ATOM     17  C   UNL     1      10.912   6.866   1.365  0.00  0.00    +0.056 A 
ATOM     19  C   UNL     1      14.716   6.390  -2.148  0.00  0.00    +0.016 C 
ATOM     20  C   UNL     1      10.873   7.007  -0.006  0.00  0.00    +0.014 A 
ATOM     23  C   UNL     1       9.143   8.155   1.188  0.00  0.00    +0.109 A 
ENDROOT
BRANCH  23  26
ATOM      2  S   UNL     1       5.903  10.471   1.522  0.00  0.00    -0.104 S 
ATOM     26  C   UNL     1       7.978   8.960   1.620  0.00  0.00    +0.014 A 
ATOM     31  C   UNL     1       7.558   9.141   2.969  0.00  0.00    +0.018 A 
ATOM     32  C   UNL     1       7.166   9.628   0.731  0.00  0.00    +0.055 A 
ATOM     33  C   UNL     1       6.441   9.942   3.060  0.00  0.00    +0.046 A 
ENDBRANCH  23  26
BRANCH  13   3
ATOM      3  O   UNL     1      16.364   4.134  -1.137  0.00  0.00    -0.391 OA
ATOM     34  H   UNL     1      16.770   3.437  -0.593  0.00  0.00    +0.210 HD
ENDBRANCH  13   3
BRANCH  10  18
ATOM     18  C   UNL     1      13.687   4.147  -2.081  0.00  0.00    +0.165 C 
BRANCH  18   4
ATOM      4  O   UNL     1      14.428   4.178  -3.281  0.00  0.00    -0.394 OA
ATOM     35  H   UNL     1      14.580   5.112  -3.503  0.00  0.00    +0.209 HD
ENDBRANCH  18   4
ENDBRANCH  10  18
BRANCH  11  21
ATOM     21  C   UNL     1      11.423   5.409   3.350  0.00  0.00    +0.106 C 
BRANCH  21  22
ATOM      5  O   UNL     1      12.719   6.966   4.579  0.00  0.00    -0.276 OA
ATOM      7  N   UNL     1      10.753   6.235   5.578  0.00  0.00    -0.301 N 
ATOM     22  C   UNL     1      11.696   6.277   4.553  0.00  0.00    +0.216 C 
ATOM     24  C   UNL     1       9.529   5.426   5.576  0.00  0.00    +0.108 C 
ATOM     25  C   UNL     1      10.925   7.078   6.763  0.00  0.00    +0.108 C 
ATOM     27  C   UNL     1       9.452   4.555   6.829  0.00  0.00    +0.022 C 
ATOM     28  C   UNL     1      10.881   6.241   8.039  0.00  0.00    +0.022 C 
ATOM     29  C   UNL     1       9.598   5.397   8.105  0.00  0.00    -0.011 C 
ATOM     30  C   UNL     1       9.596   4.508   9.346  0.00  0.00    +0.007 C 
ENDBRANCH  21  22
ENDBRANCH  11  21
TORSDOF 6
ENDMDL
MODEL 5
REMARK VINA RESULT:      -6.1     29.304     31.572
REMARK  Name = 26763546
REMARK  9 active torsions:
REMARK  status: ('A' for Active; 'I' for Inactive)
REMARK    1  A    between atoms: O_3  and  C_13
REMARK    2  A    between atoms: O_4  and  C_18
REMARK    3  A    between atoms: C_8  and  C_16
REMARK    4  A    between atoms: C_10  and  C_18
REMARK    5  A    between atoms: C_10  and  C_19
REMARK    6  A    between atoms: C_11  and  C_21
REMARK    7  A    between atoms: C_21  and  C_22
REMARK    8  A    between atoms: C_23  and  C_26
REMARK    9  A    between atoms: C_29  and  C_30
REMARK                            x       y       z     vdW  Elec       q    Type
REMARK                         _______ _______ _______ _____ _____    ______ ____
ROOT
ATOM      1  S   UNL     1     -10.138  -8.293  17.089  0.00  0.00    -0.072 S 
ATOM      6  N   UNL     1      -9.607  -8.863  14.622  0.00  0.00    -0.243 NA
ATOM      8  C   UNL     1      -6.503 -10.781  15.870  0.00  0.00    -0.020 C 
ATOM      9  C   UNL     1      -7.203 -11.175  17.245  0.00  0.00    +0.011 C 
ATOM     10  C   UNL     1      -6.316 -11.930  18.309  0.00  0.00    +0.021 C 
ATOM     11  C   UNL     1      -7.651 -10.444  14.811  0.00  0.00    +0.053 C 
ATOM     12  C   UNL     1      -5.688 -11.989  15.342  0.00  0.00    +0.010 C 
ATOM     13  C   UNL     1      -5.535 -13.075  17.605  0.00  0.00    +0.123 C 
ATOM     14  C   UNL     1      -8.011  -9.982  17.835  0.00  0.00    +0.049 C 
ATOM     15  C   UNL     1      -4.761 -12.609  16.378  0.00  0.00    +0.032 C 
ATOM     16  C   UNL     1      -5.555  -9.563  16.007  0.00  0.00    +0.012 C 
ATOM     17  C   UNL     1      -8.695  -9.540  15.412  0.00  0.00    +0.056 A 
ATOM     19  C   UNL     1      -7.245 -12.587  19.368  0.00  0.00    +0.016 C 
ATOM     20  C   UNL     1      -8.851  -9.361  16.771  0.00  0.00    +0.014 A 
ATOM     23  C   UNL     1     -10.410  -8.169  15.398  0.00  0.00    +0.109 A 
ENDROOT
BRANCH  23  26
ATOM      2  S   UNL     1     -13.629  -6.630  13.596  0.00  0.00    -0.104 S 
ATOM     26  C   UNL     1     -11.494  -7.326  14.844  0.00  0.00    +0.014 A 
ATOM     31  C   UNL     1     -11.603  -5.915  15.006  0.00  0.00    +0.018 A 
ATOM     32  C   UNL     1     -12.529  -7.843  14.098  0.00  0.00    +0.055 A 
ATOM     33  C   UNL     1     -12.718  -5.407  14.377  0.00  0.00    +0.046 A 
ENDBRANCH  23  26
BRANCH  13   3
ATOM      3  O   UNL     1      -4.625 -13.696  18.513  0.00  0.00    -0.391 OA
ATOM     34  H   UNL     1      -5.117 -14.372  19.009  0.00  0.00    +0.210 HD
ENDBRANCH  13   3
BRANCH  10  18
ATOM     18  C   UNL     1      -5.358 -11.018  19.107  0.00  0.00    +0.165 C 
BRANCH  18   4
ATOM      4  O   UNL     1      -5.873 -10.887  20.413  0.00  0.00    -0.394 OA
ATOM     35  H   UNL     1      -6.557 -11.569  20.524  0.00  0.00    +0.209 HD
ENDBRANCH  18   4
ENDBRANCH  10  18
BRANCH  11  21
ATOM     21  C   UNL     1      -7.141  -9.901  13.469  0.00  0.00    +0.106 C 
BRANCH  21  22
ATOM      5  O   UNL     1      -8.084 -11.893  12.599  0.00  0.00    -0.276 OA
ATOM      7  N   UNL     1      -7.564 -10.232  11.058  0.00  0.00    -0.301 N 
ATOM     22  C   UNL     1      -7.642 -10.770  12.343  0.00  0.00    +0.216 C 
ATOM     24  C   UNL     1      -7.043  -8.903  10.723  0.00  0.00    +0.108 C 
ATOM     25  C   UNL     1      -8.066 -10.998   9.916  0.00  0.00    +0.108 C 
ATOM     27  C   UNL     1      -5.947  -9.001   9.663  0.00  0.00    +0.022 C 
ATOM     28  C   UNL     1      -6.991 -11.142   8.841  0.00  0.00    +0.022 C 
ATOM     29  C   UNL     1      -6.434  -9.772   8.427  0.00  0.00    -0.011 C 
ATOM     30  C   UNL     1      -5.309  -9.929   7.407  0.00  0.00    +0.007 C 
ENDBRANCH  21  22
ENDBRANCH  11  21
TORSDOF 6
ENDMDL
MODEL 6
REMARK VINA RESULT:      -6.1      6.404      9.524
REMARK  Name = 26763546
REMARK  9 active torsions:
REMARK  status: ('A' for Active; 'I' for Inactive)
REMARK    1  A    between atoms: O_3  and  C_13
REMARK    2  A    between atoms: O_4  and  C_18
REMARK    3  A    between atoms: C_8  and  C_16
REMARK    4  A    between atoms: C_10  and  C_18
REMARK    5  A    between atoms: C_10  and  C_19
REMARK    6  A    between atoms: C_11  and  C_21
REMARK    7  A    between atoms: C_21  and  C_22
REMARK    8  A    between atoms: C_23  and  C_26
REMARK    9  A    between atoms: C_29  and  C_30
REMARK                            x       y       z     vdW  Elec       q    Type
REMARK                         _______ _______ _______ _____ _____    ______ ____
ROOT
ATOM      1  S   UNL     1      17.742  11.890  21.534  0.00  0.00    -0.072 S 
ATOM      6  N   UNL     1      18.882   9.572  21.399  0.00  0.00    -0.243 NA
ATOM      8  C   UNL     1      15.410   8.051  20.688  0.00  0.00    -0.020 C 
ATOM      9  C   UNL     1      14.898   9.368  19.954  0.00  0.00    +0.011 C 
ATOM     10  C   UNL     1      13.386   9.393  19.504  0.00  0.00    +0.021 C 
ATOM     11  C   UNL     1      17.008   8.057  20.654  0.00  0.00    +0.053 C 
ATOM     12  C   UNL     1      14.909   6.803  19.917  0.00  0.00    +0.010 C 
ATOM     13  C   UNL     1      13.040   8.055  18.792  0.00  0.00    +0.123 C 
ATOM     14  C   UNL     1      15.349  10.652  20.709  0.00  0.00    +0.049 C 
ATOM     15  C   UNL     1      13.419   6.825  19.609  0.00  0.00    +0.032 C 
ATOM     16  C   UNL     1      14.927   7.956  22.157  0.00  0.00    +0.012 C 
ATOM     17  C   UNL     1      17.553   9.404  21.052  0.00  0.00    +0.056 A 
ATOM     19  C   UNL     1      13.186  10.534  18.466  0.00  0.00    +0.016 C 
ATOM     20  C   UNL     1      16.798  10.558  21.053  0.00  0.00    +0.014 A 
ATOM     23  C   UNL     1      19.092  10.840  21.680  0.00  0.00    +0.109 A 
ENDROOT
BRANCH  23  26
ATOM      2  S   UNL     1      22.939  11.393  22.612  0.00  0.00    -0.104 S 
ATOM     26  C   UNL     1      20.423  11.336  22.098  0.00  0.00    +0.014 A 
ATOM     31  C   UNL     1      20.700  12.654  22.563  0.00  0.00    +0.018 A 
ATOM     32  C   UNL     1      21.551  10.546  22.075  0.00  0.00    +0.055 A 
ATOM     33  C   UNL     1      22.031  12.821  22.877  0.00  0.00    +0.046 A 
ENDBRANCH  23  26
BRANCH  13   3
ATOM      3  O   UNL     1      11.647   7.992  18.488  0.00  0.00    -0.391 OA
ATOM     34  H   UNL     1      11.490   7.173  17.989  0.00  0.00    +0.210 HD
ENDBRANCH  13   3
BRANCH  10  18
ATOM     18  C   UNL     1      12.384   9.688  20.642  0.00  0.00    +0.165 C 
BRANCH  18   4
ATOM      4  O   UNL     1      12.060  11.060  20.589  0.00  0.00    -0.394 OA
ATOM     35  H   UNL     1      12.127  11.337  19.659  0.00  0.00    +0.209 HD
ENDBRANCH  18   4
ENDBRANCH  10  18
BRANCH  11  21
ATOM     21  C   UNL     1      17.667   6.924  21.452  0.00  0.00    +0.106 C 
BRANCH  21  22
ATOM      5  O   UNL     1      18.172   5.662  19.511  0.00  0.00    -0.276 OA
ATOM      7  N   UNL     1      19.923   6.029  20.993  0.00  0.00    -0.301 N 
ATOM     22  C   UNL     1      18.603   6.149  20.559  0.00  0.00    +0.216 C 
ATOM     24  C   UNL     1      20.465   6.596  22.233  0.00  0.00    +0.108 C 
ATOM     25  C   UNL     1      20.903   5.325  20.164  0.00  0.00    +0.108 C 
ATOM     27  C   UNL     1      21.149   5.515  23.070  0.00  0.00    +0.022 C 
ATOM     28  C   UNL     1      21.592   4.217  20.956  0.00  0.00    +0.022 C 
ATOM     29  C   UNL     1      22.210   4.764  22.253  0.00  0.00    -0.011 C 
ATOM     30  C   UNL     1      22.832   3.638  23.075  0.00  0.00    +0.007 C 
ENDBRANCH  21  22
ENDBRANCH  11  21
TORSDOF 6
ENDMDL
MODEL 7
REMARK VINA RESULT:      -6.0     26.630     30.491
REMARK  Name = 26763546
REMARK  9 active torsions:
REMARK  status: ('A' for Active; 'I' for Inactive)
REMARK    1  A    between atoms: O_3  and  C_13
REMARK    2  A    between atoms: O_4  and  C_18
REMARK    3  A    between atoms: C_8  and  C_16
REMARK    4  A    between atoms: C_10  and  C_18
REMARK    5  A    between atoms: C_10  and  C_19
REMARK    6  A    between atoms: C_11  and  C_21
REMARK    7  A    between atoms: C_21  and  C_22
REMARK    8  A    between atoms: C_23  and  C_26
REMARK    9  A    between atoms: C_29  and  C_30
REMARK                            x       y       z     vdW  Elec       q    Type
REMARK                         _______ _______ _______ _____ _____    ______ ____
ROOT
ATOM      1  S   UNL     1      17.813  -4.306  -2.121  0.00  0.00    -0.072 S 
ATOM      6  N   UNL     1      18.413  -6.820  -2.002  0.00  0.00    -0.243 NA
ATOM      8  C   UNL     1      15.470  -7.502  -4.399  0.00  0.00    -0.020 C 
ATOM      9  C   UNL     1      15.628  -6.090  -5.119  0.00  0.00    +0.011 C 
ATOM     10  C   UNL     1      14.545  -5.715  -6.203  0.00  0.00    +0.021 C 
ATOM     11  C   UNL     1      16.861  -7.857  -3.699  0.00  0.00    +0.053 C 
ATOM     12  C   UNL     1      15.163  -8.590  -5.459  0.00  0.00    +0.010 C 
ATOM     13  C   UNL     1      14.327  -6.928  -7.152  0.00  0.00    +0.123 C 
ATOM     14  C   UNL     1      15.907  -4.955  -4.092  0.00  0.00    +0.049 C 
ATOM     15  C   UNL     1      14.031  -8.225  -6.409  0.00  0.00    +0.032 C 
ATOM     16  C   UNL     1      14.343  -7.510  -3.337  0.00  0.00    +0.012 C 
ATOM     17  C   UNL     1      17.401  -6.676  -2.935  0.00  0.00    +0.056 A 
ATOM     19  C   UNL     1      15.082  -4.541  -7.071  0.00  0.00    +0.016 C 
ATOM     20  C   UNL     1      16.972  -5.381  -3.139  0.00  0.00    +0.014 A 
ATOM     23  C   UNL     1      18.704  -5.638  -1.504  0.00  0.00    +0.109 A 
ENDROOT
BRANCH  23  26
ATOM      2  S   UNL     1      22.043  -5.440   0.683  0.00  0.00    -0.104 S 
ATOM     26  C   UNL     1      19.747  -5.463  -0.468  0.00  0.00    +0.014 A 
ATOM     31  C   UNL     1      19.517  -5.003   0.861  0.00  0.00    +0.018 A 
ATOM     32  C   UNL     1      21.076  -5.737  -0.698  0.00  0.00    +0.055 A 
ATOM     33  C   UNL     1      20.681  -4.943   1.595  0.00  0.00    +0.046 A 
ENDBRANCH  23  26
BRANCH  13   3
ATOM      3  O   UNL     1      13.260  -6.668  -8.064  0.00  0.00    -0.391 OA
ATOM     34  H   UNL     1      13.021  -5.729  -7.979  0.00  0.00    +0.210 HD
ENDBRANCH  13   3
BRANCH  10  18
ATOM     18  C   UNL     1      13.202  -5.221  -5.622  0.00  0.00    +0.165 C 
BRANCH  18   4
ATOM      4  O   UNL     1      12.546  -4.475  -6.624  0.00  0.00    -0.394 OA
ATOM     35  H   UNL     1      11.591  -4.537  -6.451  0.00  0.00    +0.209 HD
ENDBRANCH  18   4
ENDBRANCH  10  18
BRANCH  11  21
ATOM     21  C   UNL     1      16.835  -9.124  -2.833  0.00  0.00    +0.106 C 
BRANCH  21  22
ATOM      5  O   UNL     1      18.397  -9.984  -4.393  0.00  0.00    -0.276 OA
ATOM      7  N   UNL     1      18.420 -10.932  -2.272  0.00  0.00    -0.301 N 
ATOM     22  C   UNL     1      17.954 -10.047  -3.243  0.00  0.00    +0.216 C 
ATOM     24  C   UNL     1      17.914 -11.032  -0.898  0.00  0.00    +0.108 C 
ATOM     25  C   UNL     1      19.532 -11.834  -2.580  0.00  0.00    +0.108 C 
ATOM     27  C   UNL     1      17.502 -12.467  -0.574  0.00  0.00    +0.022 C 
ATOM     28  C   UNL     1      19.152 -13.285  -2.294  0.00  0.00    +0.022 C 
ATOM     29  C   UNL     1      18.646 -13.452  -0.852  0.00  0.00    -0.011 C 
ATOM     30  C   UNL     1      18.199 -14.890  -0.598  0.00  0.00    +0.007 C 
ENDBRANCH  21  22
ENDBRANCH  11  21
TORSDOF 6
ENDMDL
MODEL 8
REMARK VINA RESULT:      -6.0     29.108     31.269
REMARK  Name = 26763546
REMARK  9 active torsions:
REMARK  status: ('A' for Active; 'I' for Inactive)
REMARK    1  A    between atoms: O_3  and  C_13
REMARK    2  A    between atoms: O_4  and  C_18
REMARK    3  A    between atoms: C_8  and  C_16
REMARK    4  A    between atoms: C_10  and  C_18
REMARK    5  A    between atoms: C_10  and  C_19
REMARK    6  A    between atoms: C_11  and  C_21
REMARK    7  A    between atoms: C_21  and  C_22
REMARK    8  A    between atoms: C_23  and  C_26
REMARK    9  A    between atoms: C_29  and  C_30
REMARK                            x       y       z     vdW  Elec       q    Type
REMARK                         _______ _______ _______ _____ _____    ______ ____
ROOT
ATOM      1  S   UNL     1      -4.941 -10.812  12.763  0.00  0.00    -0.072 S 
ATOM      6  N   UNL     1      -7.170  -9.514  12.966  0.00  0.00    -0.243 NA
ATOM      8  C   UNL     1      -7.449 -10.818  16.584  0.00  0.00    -0.020 C 
ATOM      9  C   UNL     1      -5.868 -10.860  16.773  0.00  0.00    +0.011 C 
ATOM     10  C   UNL     1      -5.325 -11.466  18.125  0.00  0.00    +0.021 C 
ATOM     11  C   UNL     1      -7.776  -9.800  15.397  0.00  0.00    +0.053 C 
ATOM     12  C   UNL     1      -8.109 -10.287  17.882  0.00  0.00    +0.010 C 
ATOM     13  C   UNL     1      -6.124 -10.863  19.315  0.00  0.00    +0.123 C 
ATOM     14  C   UNL     1      -5.157 -11.417  15.506  0.00  0.00    +0.049 C 
ATOM     15  C   UNL     1      -7.634 -10.986  19.148  0.00  0.00    +0.032 C 
ATOM     16  C   UNL     1      -8.050 -12.206  16.253  0.00  0.00    +0.012 C 
ATOM     17  C   UNL     1      -6.881 -10.044  14.211  0.00  0.00    +0.056 A 
ATOM     19  C   UNL     1      -3.839 -11.046  18.307  0.00  0.00    +0.016 C 
ATOM     20  C   UNL     1      -5.702 -10.757  14.285  0.00  0.00    +0.014 A 
ATOM     23  C   UNL     1      -6.221  -9.862  12.124  0.00  0.00    +0.109 A 
ENDROOT
BRANCH  23  26
ATOM      2  S   UNL     1      -7.078  -8.467   8.478  0.00  0.00    -0.104 S 
ATOM     26  C   UNL     1      -6.252  -9.453  10.702  0.00  0.00    +0.014 A 
ATOM     31  C   UNL     1      -5.199  -9.660   9.763  0.00  0.00    +0.018 A 
ATOM     32  C   UNL     1      -7.332  -8.815  10.136  0.00  0.00    +0.055 A 
ATOM     33  C   UNL     1      -5.517  -9.172   8.515  0.00  0.00    +0.046 A 
ENDBRANCH  23  26
BRANCH  13   3
ATOM      3  O   UNL     1      -5.747 -11.487  20.542  0.00  0.00    -0.391 OA
ATOM     34  H   UNL     1      -6.558 -11.802  20.975  0.00  0.00    +0.210 HD
ENDBRANCH  13   3
BRANCH  10  18
ATOM     18  C   UNL     1      -5.331 -13.009  18.183  0.00  0.00    +0.165 C 
BRANCH  18   4
ATOM      4  O   UNL     1      -4.082 -13.427  18.689  0.00  0.00    -0.394 OA
ATOM     35  H   UNL     1      -4.163 -13.473  19.657  0.00  0.00    +0.209 HD
ENDBRANCH  18   4
ENDBRANCH  10  18
BRANCH  11  21
ATOM     21  C   UNL     1      -9.255  -9.753  14.987  0.00  0.00    +0.106 C 
BRANCH  21  22
ATOM      5  O   UNL     1      -9.720  -7.756  16.173  0.00  0.00    -0.276 OA
ATOM      7  N   UNL     1     -11.084  -9.578  16.636  0.00  0.00    -0.301 N 
ATOM     22  C   UNL     1     -10.036  -8.933  15.982  0.00  0.00    +0.216 C 
ATOM     24  C   UNL     1     -11.484 -10.975  16.431  0.00  0.00    +0.108 C 
ATOM     25  C   UNL     1     -11.915  -8.838  17.588  0.00  0.00    +0.108 C 
ATOM     27  C   UNL     1     -11.520 -11.729  17.760  0.00  0.00    +0.022 C 
ATOM     28  C   UNL     1     -11.957  -9.547  18.940  0.00  0.00    +0.022 C 
ATOM     29  C   UNL     1     -12.405 -11.009  18.787  0.00  0.00    -0.011 C 
ATOM     30  C   UNL     1     -12.373 -11.730  20.132  0.00  0.00    +0.007 C 
ENDBRANCH  21  22
ENDBRANCH  11  21
TORSDOF 6
ENDMDL
MODEL 9
REMARK VINA RESULT:      -5.9     29.307     31.512
REMARK  Name = 26763546
REMARK  9 active torsions:
REMARK  status: ('A' for Active; 'I' for Inactive)
REMARK    1  A    between atoms: O_3  and  C_13
REMARK    2  A    between atoms: O_4  and  C_18
REMARK    3  A    between atoms: C_8  and  C_16
REMARK    4  A    between atoms: C_10  and  C_18
REMARK    5  A    between atoms: C_10  and  C_19
REMARK    6  A    between atoms: C_11  and  C_21
REMARK    7  A    between atoms: C_21  and  C_22
REMARK    8  A    between atoms: C_23  and  C_26
REMARK    9  A    between atoms: C_29  and  C_30
REMARK                            x       y       z     vdW  Elec       q    Type
REMARK                         _______ _______ _______ _____ _____    ______ ____
ROOT
ATOM      1  S   UNL     1      -9.882  -8.249  17.058  0.00  0.00    -0.072 S 
ATOM      6  N   UNL     1      -9.516  -8.931  14.590  0.00  0.00    -0.243 NA
ATOM      8  C   UNL     1      -6.402 -10.899  15.730  0.00  0.00    -0.020 C 
ATOM      9  C   UNL     1      -7.031 -11.217  17.158  0.00  0.00    +0.011 C 
ATOM     10  C   UNL     1      -6.105 -11.960  18.198  0.00  0.00    +0.021 C 
ATOM     11  C   UNL     1      -7.601 -10.566  14.727  0.00  0.00    +0.053 C 
ATOM     12  C   UNL     1      -5.657 -12.153  15.204  0.00  0.00    +0.010 C 
ATOM     13  C   UNL     1      -5.402 -13.156  17.496  0.00  0.00    +0.123 C 
ATOM     14  C   UNL     1      -7.765  -9.977  17.746  0.00  0.00    +0.049 C 
ATOM     15  C   UNL     1      -4.690 -12.763  16.208  0.00  0.00    +0.032 C 
ATOM     16  C   UNL     1      -5.412  -9.709  15.762  0.00  0.00    +0.012 C 
ATOM     17  C   UNL     1      -8.579  -9.606  15.351  0.00  0.00    +0.056 A 
ATOM     19  C   UNL     1      -6.989 -12.546  19.335  0.00  0.00    +0.016 C 
ATOM     20  C   UNL     1      -8.649  -9.370  16.709  0.00  0.00    +0.014 A 
ATOM     23  C   UNL     1     -10.250  -8.181  15.383  0.00  0.00    +0.109 A 
ENDROOT
BRANCH  23  26
ATOM      2  S   UNL     1     -13.442  -6.584  13.584  0.00  0.00    -0.104 S 
ATOM     26  C   UNL     1     -11.339  -7.325  14.859  0.00  0.00    +0.014 A 
ATOM     31  C   UNL     1     -11.506  -5.940  15.146  0.00  0.00    +0.018 A 
ATOM     32  C   UNL     1     -12.322  -7.803  14.022  0.00  0.00    +0.055 A 
ATOM     33  C   UNL     1     -12.611  -5.412  14.516  0.00  0.00    +0.046 A 
ENDBRANCH  23  26
BRANCH  13   3
ATOM      3  O   UNL     1      -4.459 -13.771  18.374  0.00  0.00    -0.391 OA
ATOM     34  H   UNL     1      -4.954 -14.334  18.993  0.00  0.00    +0.210 HD
ENDBRANCH  13   3
BRANCH  10  18
ATOM     18  C   UNL     1      -5.074 -11.050  18.901  0.00  0.00    +0.165 C 
BRANCH  18   4
ATOM      4  O   UNL     1      -4.668 -11.694  20.089  0.00  0.00    -0.394 OA
ATOM     35  H   UNL     1      -3.704 -11.591  20.159  0.00  0.00    +0.209 HD
ENDBRANCH  18   4
ENDBRANCH  10  18
BRANCH  11  21
ATOM     21  C   UNL     1      -7.156 -10.092  13.337  0.00  0.00    +0.106 C 
BRANCH  21  22
ATOM      5  O   UNL     1      -8.292 -11.797  12.147  0.00  0.00    -0.276 OA
ATOM      7  N   UNL     1      -6.008 -11.609  11.762  0.00  0.00    -0.301 N 
ATOM     22  C   UNL     1      -7.212 -11.242  12.363  0.00  0.00    +0.216 C 
ATOM     24  C   UNL     1      -4.709 -10.969  11.999  0.00  0.00    +0.108 C 
ATOM     25  C   UNL     1      -5.986 -12.690  10.775  0.00  0.00    +0.108 C 
ATOM     27  C   UNL     1      -3.662 -12.003  12.409  0.00  0.00    +0.022 C 
ATOM     28  C   UNL     1      -4.968 -13.761  11.162  0.00  0.00    +0.022 C 
ATOM     29  C   UNL     1      -3.577 -13.148  11.389  0.00  0.00    -0.011 C 
ATOM     30  C   UNL     1      -2.583 -14.212  11.847  0.00  0.00    +0.007 C 
ENDBRANCH  21  22
ENDBRANCH  11  21
TORSDOF 6
ENDMDL
MODEL 10
REMARK VINA RESULT:      -5.9     13.841     17.604
REMARK  Name = 26763546
REMARK  9 active torsions:
REMARK  status: ('A' for Active; 'I' for Inactive)
REMARK    1  A    between atoms: O_3  and  C_13
REMARK    2  A    between atoms: O_4  and  C_18
REMARK    3  A    between atoms: C_8  and  C_16
REMARK    4  A    between atoms: C_10  and  C_18
REMARK    5  A    between atoms: C_10  and  C_19
REMARK    6  A    between atoms: C_11  and  C_21
REMARK    7  A    between atoms: C_21  and  C_22
REMARK    8  A    between atoms: C_23  and  C_26
REMARK    9  A    between atoms: C_29  and  C_30
REMARK                            x       y       z     vdW  Elec       q    Type
REMARK                         _______ _______ _______ _____ _____    ______ ____
ROOT
ATOM      1  S   UNL     1      11.393   4.464   2.164  0.00  0.00    -0.072 S 
ATOM      6  N   UNL     1      10.041   6.352   1.023  0.00  0.00    -0.243 NA
ATOM      8  C   UNL     1       9.436   7.854   4.523  0.00  0.00    -0.020 C 
ATOM      9  C   UNL     1      10.825   7.312   5.081  0.00  0.00    +0.011 C 
ATOM     10  C   UNL     1      11.115   7.534   6.616  0.00  0.00    +0.021 C 
ATOM     11  C   UNL     1       9.538   7.924   2.930  0.00  0.00    +0.053 C 
ATOM     12  C   UNL     1       9.187   9.286   5.061  0.00  0.00    +0.010 C 
ATOM     13  C   UNL     1      10.770   9.002   6.995  0.00  0.00    +0.123 C 
ATOM     14  C   UNL     1      11.108   5.861   4.593  0.00  0.00    +0.049 C 
ATOM     15  C   UNL     1       9.368   9.420   6.567  0.00  0.00    +0.032 C 
ATOM     16  C   UNL     1       8.238   6.958   4.922  0.00  0.00    +0.012 C 
ATOM     17  C   UNL     1      10.135   6.660   2.368  0.00  0.00    +0.056 A 
ATOM     19  C   UNL     1      12.635   7.334   6.878  0.00  0.00    +0.016 C 
ATOM     20  C   UNL     1      10.850   5.757   3.128  0.00  0.00    +0.014 A 
ATOM     23  C   UNL     1      10.661   5.212   0.803  0.00  0.00    +0.109 A 
ENDROOT
BRANCH  23  26
ATOM      2  S   UNL     1      11.450   3.104  -2.499  0.00  0.00    -0.104 S 
ATOM     26  C   UNL     1      10.727   4.608  -0.547  0.00  0.00    +0.014 A 
ATOM     31  C   UNL     1       9.911   4.980  -1.655  0.00  0.00    +0.018 A 
ATOM     32  C   UNL     1      11.607   3.600  -0.868  0.00  0.00    +0.055 A 
ATOM     33  C   UNL     1      10.201   4.241  -2.780  0.00  0.00    +0.046 A 
ENDBRANCH  23  26
BRANCH  13   3
ATOM      3  O   UNL     1      10.898   9.201   8.403  0.00  0.00    -0.391 OA
ATOM     34  H   UNL     1      10.076   8.892   8.821  0.00  0.00    +0.210 HD
ENDBRANCH  13   3
BRANCH  10  18
ATOM     18  C   UNL     1      10.398   6.539   7.554  0.00  0.00    +0.165 C 
BRANCH  18   4
ATOM      4  O   UNL     1      11.368   5.653   8.068  0.00  0.00    -0.394 OA
ATOM     35  H   UNL     1      11.892   5.330   7.316  0.00  0.00    +0.209 HD
ENDBRANCH  18   4
ENDBRANCH  10  18
BRANCH  11  21
ATOM     21  C   UNL     1       8.226   8.290   2.222  0.00  0.00    +0.106 C 
BRANCH  21  22
ATOM      5  O   UNL     1       9.153  10.241   1.248  0.00  0.00    -0.276 OA
ATOM      7  N   UNL     1       7.125  10.496   2.353  0.00  0.00    -0.301 N 
ATOM     22  C   UNL     1       8.217   9.761   1.892  0.00  0.00    +0.216 C 
ATOM     24  C   UNL     1       5.998   9.955   3.122  0.00  0.00    +0.108 C 
ATOM     25  C   UNL     1       7.022  11.923   2.041  0.00  0.00    +0.108 C 
ATOM     27  C   UNL     1       5.797  10.740   4.417  0.00  0.00    +0.022 C 
ATOM     28  C   UNL     1       6.846  12.748   3.313  0.00  0.00    +0.022 C 
ATOM     29  C   UNL     1       5.653  12.244   4.141  0.00  0.00    -0.011 C 
ATOM     30  C   UNL     1       5.529  13.026   5.446  0.00  0.00    +0.007 C 
ENDBRANCH  21  22
ENDBRANCH  11  21
TORSDOF 6
ENDMDL
