MODEL 1
REMARK VINA RESULT:      -7.4      0.000      0.000
REMARK  Name = 11865938
REMARK  6 active torsions:
REMARK  status: ('A' for Active; 'I' for Inactive)
REMARK    1  A    between atoms: O_5  and  C_29
REMARK    2  A    between atoms: O_5  and  C_34
REMARK    3  A    between atoms: N_9  and  C_13
REMARK    4  A    between atoms: C_20  and  C_21
REMARK    5  A    between atoms: C_22  and  C_27
REMARK    6  A    between atoms: C_27  and  C_28
REMARK                            x       y       z     vdW  Elec       q    Type
REMARK                         _______ _______ _______ _____ _____    ______ ____
ROOT
ATOM      1  O   UNL     1      14.402  11.248  19.869  0.00  0.00    -0.273 OA
ATOM      2  O   UNL     1      12.148   8.986  15.127  0.00  0.00    -0.274 OA
ATOM      4  O   UNL     1      14.944   7.740  22.313  0.00  0.00    -0.275 OA
ATOM      6  N   UNL     1      13.977  10.946  17.607  0.00  0.00    -0.287 N 
ATOM      7  N   UNL     1      13.801   8.600  20.497  0.00  0.00    -0.288 N 
ATOM      8  N   UNL     1      11.984   8.664  17.359  0.00  0.00    -0.309 N 
ATOM     10  C   UNL     1      13.722   9.060  19.108  0.00  0.00    +0.182 C 
ATOM     11  C   UNL     1      13.852  10.075  16.433  0.00  0.00    +0.164 C 
ATOM     12  C   UNL     1      12.232   8.969  18.751  0.00  0.00    +0.104 C 
ATOM     13  C   UNL     1      14.845  12.197  15.814  0.00  0.00    +0.092 C 
ATOM     14  C   UNL     1      14.038  11.035  15.242  0.00  0.00    +0.055 C 
ATOM     15  C   UNL     1      14.285  12.318  17.223  0.00  0.00    +0.131 C 
ATOM     16  C   UNL     1      11.705   7.907  19.712  0.00  0.00    +0.043 C 
ATOM     17  C   UNL     1      14.093  10.520  18.926  0.00  0.00    +0.239 C 
ATOM     18  C   UNL     1      12.484   8.210  20.983  0.00  0.00    +0.110 C 
ATOM     19  C   UNL     1      12.560   9.263  16.260  0.00  0.00    +0.234 C 
ATOM     22  C   UNL     1      14.946   8.322  21.226  0.00  0.00    +0.221 C 
ATOM     35  H   UNL     1      11.165   8.095  17.166  0.00  0.00    +0.149 HD
ENDROOT
BRANCH  13   9
ATOM      3  O   UNL     1      16.711  12.383  13.597  0.00  0.00    -0.276 OA
ATOM      9  N   UNL     1      16.259  11.903  15.829  0.00  0.00    -0.311 N 
ATOM     21  C   UNL     1      17.071  12.022  14.713  0.00  0.00    +0.216 C 
ATOM     36  H   UNL     1      16.662  11.580  16.704  0.00  0.00    +0.149 HD
BRANCH  21  20
ATOM     20  C   UNL     1      18.501  11.679  15.011  0.00  0.00    +0.075 C 
ATOM     23  C   UNL     1      19.032  12.519  16.164  0.00  0.00    +0.013 C 
ATOM     24  C   UNL     1      19.421  12.032  13.853  0.00  0.00    +0.013 C 
ATOM     25  C   UNL     1      19.571  13.799  15.528  0.00  0.00    +0.001 C 
ATOM     26  C   UNL     1      19.728  13.514  14.037  0.00  0.00    +0.001 C 
ENDBRANCH  21  20
ENDBRANCH  13   9
BRANCH  22  27
ATOM     27  C   UNL     1      16.252   8.781  20.624  0.00  0.00    +0.134 C 
BRANCH  27  28
ATOM     28  C   UNL     1      17.151   7.613  20.362  0.00  0.00    +0.003 A 
ATOM     29  C   UNL     1      18.337   7.458  21.075  0.00  0.00    +0.124 A 
ATOM     30  C   UNL     1      16.785   6.680  19.395  0.00  0.00    +0.008 A 
ATOM     31  C   UNL     1      19.163   6.363  20.819  0.00  0.00    +0.046 A 
ATOM     32  C   UNL     1      17.611   5.585  19.138  0.00  0.00    +0.001 A 
ATOM     33  C   UNL     1      18.800   5.427  19.850  0.00  0.00    +0.004 A 
BRANCH  29   5
ATOM      5  O   UNL     1      18.707   8.362  22.024  0.00  0.00    -0.495 OA
ATOM     34  C   UNL     1      19.861   8.050  22.802  0.00  0.00    +0.277 C 
ENDBRANCH  29   5
ENDBRANCH  27  28
ENDBRANCH  22  27
TORSDOF 5
ENDMDL
MODEL 2
REMARK VINA RESULT:      -7.3     27.582     30.435
REMARK  Name = 11865938
REMARK  6 active torsions:
REMARK  status: ('A' for Active; 'I' for Inactive)
REMARK    1  A    between atoms: O_5  and  C_29
REMARK    2  A    between atoms: O_5  and  C_34
REMARK    3  A    between atoms: N_9  and  C_13
REMARK    4  A    between atoms: C_20  and  C_21
REMARK    5  A    between atoms: C_22  and  C_27
REMARK    6  A    between atoms: C_27  and  C_28
REMARK                            x       y       z     vdW  Elec       q    Type
REMARK                         _______ _______ _______ _____ _____    ______ ____
ROOT
ATOM      1  O   UNL     1      -6.265 -12.232  15.277  0.00  0.00    -0.273 OA
ATOM      2  O   UNL     1      -0.806 -10.599  15.752  0.00  0.00    -0.274 OA
ATOM      4  O   UNL     1      -8.004 -10.430  18.784  0.00  0.00    -0.275 OA
ATOM      6  N   UNL     1      -4.152 -11.527  14.621  0.00  0.00    -0.287 N 
ATOM      7  N   UNL     1      -6.019 -11.122  17.820  0.00  0.00    -0.288 N 
ATOM      8  N   UNL     1      -2.461 -11.281  17.134  0.00  0.00    -0.309 N 
ATOM     10  C   UNL     1      -4.926 -10.989  16.854  0.00  0.00    +0.182 C 
ATOM     11  C   UNL     1      -3.002 -10.628  14.764  0.00  0.00    +0.164 C 
ATOM     12  C   UNL     1      -3.772 -11.802  17.456  0.00  0.00    +0.104 C 
ATOM     13  C   UNL     1      -3.397 -11.136  12.428  0.00  0.00    +0.092 C 
ATOM     14  C   UNL     1      -2.296 -10.714  13.396  0.00  0.00    +0.055 C 
ATOM     15  C   UNL     1      -4.231 -12.084  13.276  0.00  0.00    +0.131 C 
ATOM     16  C   UNL     1      -4.082 -11.797  18.951  0.00  0.00    +0.043 C 
ATOM     17  C   UNL     1      -5.216 -11.632  15.511  0.00  0.00    +0.239 C 
ATOM     18  C   UNL     1      -5.597 -11.919  18.965  0.00  0.00    +0.110 C 
ATOM     19  C   UNL     1      -1.997 -10.901  15.894  0.00  0.00    +0.234 C 
ATOM     22  C   UNL     1      -7.219 -10.428  17.832  0.00  0.00    +0.221 C 
ATOM     35  H   UNL     1      -1.750 -11.389  17.851  0.00  0.00    +0.149 HD
ENDROOT
BRANCH  13   9
ATOM      3  O   UNL     1      -3.707 -10.166   9.708  0.00  0.00    -0.276 OA
ATOM      9  N   UNL     1      -4.173 -10.002  11.983  0.00  0.00    -0.311 N 
ATOM     21  C   UNL     1      -4.260  -9.614  10.656  0.00  0.00    +0.216 C 
ATOM     36  H   UNL     1      -4.662  -9.461  12.690  0.00  0.00    +0.149 HD
BRANCH  21  20
ATOM     20  C   UNL     1      -5.150  -8.422  10.468  0.00  0.00    +0.075 C 
ATOM     23  C   UNL     1      -6.288  -8.428  11.480  0.00  0.00    +0.013 C 
ATOM     24  C   UNL     1      -5.862  -8.451   9.124  0.00  0.00    +0.013 C 
ATOM     25  C   UNL     1      -7.407  -9.246  10.837  0.00  0.00    +0.001 C 
ATOM     26  C   UNL     1      -7.081  -9.339   9.349  0.00  0.00    +0.001 C 
ENDBRANCH  21  20
ENDBRANCH  13   9
BRANCH  22  27
ATOM     27  C   UNL     1      -7.551  -9.644  16.587  0.00  0.00    +0.134 C 
BRANCH  27  28
ATOM     28  C   UNL     1      -9.002  -9.274  16.568  0.00  0.00    +0.003 A 
ATOM     29  C   UNL     1      -9.948 -10.144  16.032  0.00  0.00    +0.124 A 
ATOM     30  C   UNL     1      -9.395  -8.047  17.097  0.00  0.00    +0.008 A 
ATOM     31  C   UNL     1     -11.296  -9.784  16.024  0.00  0.00    +0.046 A 
ATOM     32  C   UNL     1     -10.743  -7.687  17.089  0.00  0.00    +0.001 A 
ATOM     33  C   UNL     1     -11.694  -8.555  16.551  0.00  0.00    +0.004 A 
BRANCH  29   5
ATOM      5  O   UNL     1      -9.578 -11.347  15.512  0.00  0.00    -0.495 OA
ATOM     34  C   UNL     1      -9.929 -12.511  16.259  0.00  0.00    +0.277 C 
ENDBRANCH  29   5
ENDBRANCH  27  28
ENDBRANCH  22  27
TORSDOF 5
ENDMDL
MODEL 3
REMARK VINA RESULT:      -7.1     27.448     30.412
REMARK  Name = 11865938
REMARK  6 active torsions:
REMARK  status: ('A' for Active; 'I' for Inactive)
REMARK    1  A    between atoms: O_5  and  C_29
REMARK    2  A    between atoms: O_5  and  C_34
REMARK    3  A    between atoms: N_9  and  C_13
REMARK    4  A    between atoms: C_20  and  C_21
REMARK    5  A    between atoms: C_22  and  C_27
REMARK    6  A    between atoms: C_27  and  C_28
REMARK                            x       y       z     vdW  Elec       q    Type
REMARK                         _______ _______ _______ _____ _____    ______ ____
ROOT
ATOM      1  O   UNL     1      -6.054 -12.225  14.716  0.00  0.00    -0.273 OA
ATOM      2  O   UNL     1      -0.719 -10.478  15.798  0.00  0.00    -0.274 OA
ATOM      4  O   UNL     1      -8.251 -10.251  17.854  0.00  0.00    -0.275 OA
ATOM      6  N   UNL     1      -3.880 -11.524  14.299  0.00  0.00    -0.287 N 
ATOM      7  N   UNL     1      -6.152 -10.965  17.200  0.00  0.00    -0.288 N 
ATOM      8  N   UNL     1      -2.534 -11.105  16.991  0.00  0.00    -0.309 N 
ATOM     10  C   UNL     1      -4.943 -10.870  16.378  0.00  0.00    +0.182 C 
ATOM     11  C   UNL     1      -2.766 -10.600  14.537  0.00  0.00    +0.164 C 
ATOM     12  C   UNL     1      -3.871 -11.628  17.172  0.00  0.00    +0.104 C 
ATOM     13  C   UNL     1      -2.849 -11.248  12.203  0.00  0.00    +0.092 C 
ATOM     14  C   UNL     1      -1.887 -10.754  13.279  0.00  0.00    +0.055 C 
ATOM     15  C   UNL     1      -3.777 -12.159  12.992  0.00  0.00    +0.131 C 
ATOM     16  C   UNL     1      -4.372 -11.541  18.610  0.00  0.00    +0.043 C 
ATOM     17  C   UNL     1      -5.050 -11.595  15.049  0.00  0.00    +0.239 C 
ATOM     18  C   UNL     1      -5.876 -11.687  18.435  0.00  0.00    +0.110 C 
ATOM     19  C   UNL     1      -1.915 -10.791  15.802  0.00  0.00    +0.234 C 
ATOM     22  C   UNL     1      -7.349 -10.291  17.014  0.00  0.00    +0.221 C 
ATOM     35  H   UNL     1      -1.921 -11.160  17.800  0.00  0.00    +0.149 HD
ENDROOT
BRANCH  13   9
ATOM      3  O   UNL     1      -3.895 -11.112   9.498  0.00  0.00    -0.276 OA
ATOM      9  N   UNL     1      -3.570 -10.155  11.595  0.00  0.00    -0.311 N 
ATOM     21  C   UNL     1      -4.031 -10.183  10.288  0.00  0.00    +0.216 C 
ATOM     36  H   UNL     1      -3.727  -9.325  12.158  0.00  0.00    +0.149 HD
BRANCH  21  20
ATOM     20  C   UNL     1      -4.768  -8.930   9.919  0.00  0.00    +0.075 C 
ATOM     23  C   UNL     1      -5.597  -8.421  11.089  0.00  0.00    +0.013 C 
ATOM     24  C   UNL     1      -5.799  -9.180   8.828  0.00  0.00    +0.013 C 
ATOM     25  C   UNL     1      -6.944  -9.132  10.982  0.00  0.00    +0.001 C 
ATOM     26  C   UNL     1      -7.028  -9.697   9.566  0.00  0.00    +0.001 C 
ENDBRANCH  21  20
ENDBRANCH  13   9
BRANCH  22  27
ATOM     27  C   UNL     1      -7.523  -9.586  15.692  0.00  0.00    +0.134 C 
BRANCH  27  28
ATOM     28  C   UNL     1      -8.900  -9.812  15.151  0.00  0.00    +0.003 A 
ATOM     29  C   UNL     1      -9.907  -8.872  15.357  0.00  0.00    +0.124 A 
ATOM     30  C   UNL     1      -9.164 -10.979  14.436  0.00  0.00    +0.008 A 
ATOM     31  C   UNL     1     -11.185  -9.099  14.846  0.00  0.00    +0.046 A 
ATOM     32  C   UNL     1     -10.442 -11.205  13.924  0.00  0.00    +0.001 A 
ATOM     33  C   UNL     1     -11.452 -10.266  14.130  0.00  0.00    +0.004 A 
BRANCH  29   5
ATOM      5  O   UNL     1      -9.663  -7.728  16.054  0.00  0.00    -0.495 OA
ATOM     34  C   UNL     1     -10.662  -7.308  16.982  0.00  0.00    +0.277 C 
ENDBRANCH  29   5
ENDBRANCH  27  28
ENDBRANCH  22  27
TORSDOF 5
ENDMDL
MODEL 4
REMARK VINA RESULT:      -6.8      1.620      2.030
REMARK  Name = 11865938
REMARK  6 active torsions:
REMARK  status: ('A' for Active; 'I' for Inactive)
REMARK    1  A    between atoms: O_5  and  C_29
REMARK    2  A    between atoms: O_5  and  C_34
REMARK    3  A    between atoms: N_9  and  C_13
REMARK    4  A    between atoms: C_20  and  C_21
REMARK    5  A    between atoms: C_22  and  C_27
REMARK    6  A    between atoms: C_27  and  C_28
REMARK                            x       y       z     vdW  Elec       q    Type
REMARK                         _______ _______ _______ _____ _____    ______ ____
ROOT
ATOM      1  O   UNL     1      14.050  11.446  20.143  0.00  0.00    -0.273 OA
ATOM      2  O   UNL     1      13.801  10.651  14.487  0.00  0.00    -0.274 OA
ATOM      4  O   UNL     1      13.685   7.403  21.590  0.00  0.00    -0.275 OA
ATOM      6  N   UNL     1      14.519  11.760  17.891  0.00  0.00    -0.287 N 
ATOM      7  N   UNL     1      13.301   8.787  19.779  0.00  0.00    -0.288 N 
ATOM      8  N   UNL     1      12.809   9.793  16.329  0.00  0.00    -0.309 N 
ATOM     10  C   UNL     1      13.747   9.586  18.634  0.00  0.00    +0.182 C 
ATOM     11  C   UNL     1      14.864  11.226  16.569  0.00  0.00    +0.164 C 
ATOM     12  C   UNL     1      12.506   9.714  17.742  0.00  0.00    +0.104 C 
ATOM     13  C   UNL     1      15.980  13.343  16.947  0.00  0.00    +0.092 C 
ATOM     14  C   UNL     1      15.471  12.436  15.831  0.00  0.00    +0.055 C 
ATOM     15  C   UNL     1      14.926  13.153  18.027  0.00  0.00    +0.131 C 
ATOM     16  C   UNL     1      11.672   8.494  18.121  0.00  0.00    +0.043 C 
ATOM     17  C   UNL     1      14.134  11.007  18.996  0.00  0.00    +0.239 C 
ATOM     18  C   UNL     1      11.905   8.400  19.621  0.00  0.00    +0.110 C 
ATOM     19  C   UNL     1      13.748  10.597  15.721  0.00  0.00    +0.234 C 
ATOM     22  C   UNL     1      14.090   8.238  20.777  0.00  0.00    +0.221 C 
ATOM     35  H   UNL     1      12.134   9.362  15.704  0.00  0.00    +0.149 HD
ENDROOT
BRANCH  13   9
ATOM      3  O   UNL     1      18.556  14.118  15.853  0.00  0.00    -0.276 OA
ATOM      9  N   UNL     1      17.288  12.936  17.406  0.00  0.00    -0.311 N 
ATOM     21  C   UNL     1      18.467  13.361  16.814  0.00  0.00    +0.216 C 
ATOM     36  H   UNL     1      17.331  12.294  18.192  0.00  0.00    +0.149 HD
BRANCH  21  20
ATOM     20  C   UNL     1      19.680  12.808  17.502  0.00  0.00    +0.075 C 
ATOM     23  C   UNL     1      19.447  12.687  19.001  0.00  0.00    +0.013 C 
ATOM     24  C   UNL     1      20.869  13.750  17.397  0.00  0.00    +0.013 C 
ATOM     25  C   UNL     1      19.844  14.038  19.592  0.00  0.00    +0.001 C 
ATOM     26  C   UNL     1      20.673  14.753  18.528  0.00  0.00    +0.001 C 
ENDBRANCH  21  20
ENDBRANCH  13   9
BRANCH  22  27
ATOM     27  C   UNL     1      15.518   8.721  20.846  0.00  0.00    +0.134 C 
BRANCH  27  28
ATOM     28  C   UNL     1      16.457   7.655  20.373  0.00  0.00    +0.003 A 
ATOM     29  C   UNL     1      17.719   7.518  20.946  0.00  0.00    +0.124 A 
ATOM     30  C   UNL     1      16.052   6.799  19.351  0.00  0.00    +0.008 A 
ATOM     31  C   UNL     1      18.582   6.519  20.494  0.00  0.00    +0.046 A 
ATOM     32  C   UNL     1      16.915   5.800  18.899  0.00  0.00    +0.001 A 
ATOM     33  C   UNL     1      18.180   5.661  19.470  0.00  0.00    +0.004 A 
BRANCH  29   5
ATOM      5  O   UNL     1      18.128   8.347  21.945  0.00  0.00    -0.495 OA
ATOM     34  C   UNL     1      19.486   8.233  22.368  0.00  0.00    +0.277 C 
ENDBRANCH  29   5
ENDBRANCH  27  28
ENDBRANCH  22  27
TORSDOF 5
ENDMDL
MODEL 5
REMARK VINA RESULT:      -6.6     28.564     31.013
REMARK  Name = 11865938
REMARK  6 active torsions:
REMARK  status: ('A' for Active; 'I' for Inactive)
REMARK    1  A    between atoms: O_5  and  C_29
REMARK    2  A    between atoms: O_5  and  C_34
REMARK    3  A    between atoms: N_9  and  C_13
REMARK    4  A    between atoms: C_20  and  C_21
REMARK    5  A    between atoms: C_22  and  C_27
REMARK    6  A    between atoms: C_27  and  C_28
REMARK                            x       y       z     vdW  Elec       q    Type
REMARK                         _______ _______ _______ _____ _____    ______ ____
ROOT
ATOM      1  O   UNL     1      -7.878 -12.041  15.024  0.00  0.00    -0.273 OA
ATOM      2  O   UNL     1      -2.622 -10.842  16.928  0.00  0.00    -0.274 OA
ATOM      4  O   UNL     1     -10.298  -9.538  17.564  0.00  0.00    -0.275 OA
ATOM      6  N   UNL     1      -5.592 -11.643  14.959  0.00  0.00    -0.287 N 
ATOM      7  N   UNL     1      -8.232 -10.553  17.353  0.00  0.00    -0.288 N 
ATOM      8  N   UNL     1      -4.682 -11.137  17.814  0.00  0.00    -0.309 N 
ATOM     10  C   UNL     1      -6.898 -10.678  16.759  0.00  0.00    +0.182 C 
ATOM     11  C   UNL     1      -4.422 -10.839  15.329  0.00  0.00    +0.164 C 
ATOM     12  C   UNL     1      -6.087 -11.479  17.786  0.00  0.00    +0.104 C 
ATOM     13  C   UNL     1      -4.190 -11.687  13.071  0.00  0.00    +0.092 C 
ATOM     14  C   UNL     1      -3.369 -11.211  14.266  0.00  0.00    +0.055 C 
ATOM     15  C   UNL     1      -5.352 -12.405  13.740  0.00  0.00    +0.131 C 
ATOM     16  C   UNL     1      -6.811 -11.201  19.100  0.00  0.00    +0.043 C 
ATOM     17  C   UNL     1      -6.871 -11.505  15.487  0.00  0.00    +0.239 C 
ATOM     18  C   UNL     1      -8.269 -11.184  18.666  0.00  0.00    +0.110 C 
ATOM     19  C   UNL     1      -3.833 -11.010  16.737  0.00  0.00    +0.234 C 
ATOM     22  C   UNL     1      -9.279  -9.763  16.906  0.00  0.00    +0.221 C 
ATOM     35  H   UNL     1      -4.229 -11.188  18.722  0.00  0.00    +0.149 HD
ENDROOT
BRANCH  13   9
ATOM      3  O   UNL     1      -2.751 -10.350  10.932  0.00  0.00    -0.276 OA
ATOM      9  N   UNL     1      -4.646 -10.578  12.266  0.00  0.00    -0.311 N 
ATOM     21  C   UNL     1      -3.882 -10.003  11.263  0.00  0.00    +0.216 C 
ATOM     36  H   UNL     1      -5.567 -10.199  12.466  0.00  0.00    +0.149 HD
BRANCH  21  20
ATOM     20  C   UNL     1      -4.602  -8.886  10.568  0.00  0.00    +0.075 C 
ATOM     23  C   UNL     1      -6.095  -9.174  10.479  0.00  0.00    +0.013 C 
ATOM     24  C   UNL     1      -4.173  -8.752   9.115  0.00  0.00    +0.013 C 
ATOM     25  C   UNL     1      -6.285  -9.971   9.191  0.00  0.00    +0.001 C 
ATOM     26  C   UNL     1      -5.017  -9.777   8.364  0.00  0.00    +0.001 C 
ENDBRANCH  21  20
ENDBRANCH  13   9
BRANCH  22  27
ATOM     27  C   UNL     1      -9.130  -9.168  15.528  0.00  0.00    +0.134 C 
BRANCH  27  28
ATOM     28  C   UNL     1     -10.196  -8.148  15.276  0.00  0.00    +0.003 A 
ATOM     29  C   UNL     1     -11.236  -8.413  14.390  0.00  0.00    +0.124 A 
ATOM     30  C   UNL     1     -10.134  -6.925  15.942  0.00  0.00    +0.008 A 
ATOM     31  C   UNL     1     -12.222  -7.451  14.167  0.00  0.00    +0.046 A 
ATOM     32  C   UNL     1     -11.120  -5.963  15.719  0.00  0.00    +0.001 A 
ATOM     33  C   UNL     1     -12.163  -6.226  14.832  0.00  0.00    +0.004 A 
BRANCH  29   5
ATOM      5  O   UNL     1     -11.309  -9.604  13.732  0.00  0.00    -0.495 OA
ATOM     34  C   UNL     1     -11.147  -9.573  12.315  0.00  0.00    +0.277 C 
ENDBRANCH  29   5
ENDBRANCH  27  28
ENDBRANCH  22  27
TORSDOF 5
ENDMDL
MODEL 6
REMARK VINA RESULT:      -6.5     31.710     35.962
REMARK  Name = 11865938
REMARK  6 active torsions:
REMARK  status: ('A' for Active; 'I' for Inactive)
REMARK    1  A    between atoms: O_5  and  C_29
REMARK    2  A    between atoms: O_5  and  C_34
REMARK    3  A    between atoms: N_9  and  C_13
REMARK    4  A    between atoms: C_20  and  C_21
REMARK    5  A    between atoms: C_22  and  C_27
REMARK    6  A    between atoms: C_27  and  C_28
REMARK                            x       y       z     vdW  Elec       q    Type
REMARK                         _______ _______ _______ _____ _____    ______ ____
ROOT
ATOM      1  O   UNL     1      -6.824  -8.093  42.414  0.00  0.00    -0.273 OA
ATOM      2  O   UNL     1      -8.399 -10.534  37.490  0.00  0.00    -0.274 OA
ATOM      4  O   UNL     1      -2.541  -7.943  41.961  0.00  0.00    -0.275 OA
ATOM      6  N   UNL     1      -8.106  -8.529  40.529  0.00  0.00    -0.287 N 
ATOM      7  N   UNL     1      -4.470  -8.974  41.213  0.00  0.00    -0.288 N 
ATOM      8  N   UNL     1      -6.717 -10.749  38.986  0.00  0.00    -0.309 N 
ATOM     10  C   UNL     1      -5.727  -8.993  40.461  0.00  0.00    +0.182 C 
ATOM     11  C   UNL     1      -8.224  -8.735  39.081  0.00  0.00    +0.164 C 
ATOM     12  C   UNL     1      -6.018 -10.481  40.224  0.00  0.00    +0.104 C 
ATOM     13  C   UNL     1     -10.143  -7.520  39.925  0.00  0.00    +0.092 C 
ATOM     14  C   UNL     1      -9.708  -8.439  38.788  0.00  0.00    +0.055 C 
ATOM     15  C   UNL     1      -9.364  -8.076  41.108  0.00  0.00    +0.131 C 
ATOM     16  C   UNL     1      -4.637 -11.125  40.298  0.00  0.00    +0.043 C 
ATOM     17  C   UNL     1      -6.915  -8.469  41.246  0.00  0.00    +0.239 C 
ATOM     18  C   UNL     1      -3.971 -10.329  41.410  0.00  0.00    +0.110 C 
ATOM     19  C   UNL     1      -7.835 -10.104  38.504  0.00  0.00    +0.234 C 
ATOM     22  C   UNL     1      -3.688  -7.871  41.514  0.00  0.00    +0.221 C 
ATOM     35  H   UNL     1      -6.483 -11.621  38.522  0.00  0.00    +0.149 HD
ENDROOT
BRANCH  13   9
ATOM      3  O   UNL     1     -11.867  -5.190  40.103  0.00  0.00    -0.276 OA
ATOM      9  N   UNL     1      -9.791  -6.145  39.658  0.00  0.00    -0.311 N 
ATOM     21  C   UNL     1     -10.689  -5.096  39.770  0.00  0.00    +0.216 C 
ATOM     36  H   UNL     1      -8.839  -5.953  39.360  0.00  0.00    +0.149 HD
BRANCH  21  20
ATOM     20  C   UNL     1     -10.058  -3.771  39.461  0.00  0.00    +0.075 C 
ATOM     23  C   UNL     1      -8.672  -3.670  40.082  0.00  0.00    +0.013 C 
ATOM     24  C   UNL     1     -10.822  -2.617  40.092  0.00  0.00    +0.013 C 
ATOM     25  C   UNL     1      -8.891  -3.129  41.493  0.00  0.00    +0.001 C 
ATOM     26  C   UNL     1     -10.300  -2.543  41.523  0.00  0.00    +0.001 C 
ENDBRANCH  21  20
ENDBRANCH  13   9
BRANCH  22  27
ATOM     27  C   UNL     1      -4.315  -6.519  41.273  0.00  0.00    +0.134 C 
BRANCH  27  28
ATOM     28  C   UNL     1      -3.286  -5.437  41.367  0.00  0.00    +0.003 A 
ATOM     29  C   UNL     1      -2.445  -5.163  40.291  0.00  0.00    +0.124 A 
ATOM     30  C   UNL     1      -3.179  -4.703  42.547  0.00  0.00    +0.008 A 
ATOM     31  C   UNL     1      -1.491  -4.149  40.395  0.00  0.00    +0.046 A 
ATOM     32  C   UNL     1      -2.225  -3.690  42.651  0.00  0.00    +0.001 A 
ATOM     33  C   UNL     1      -1.381  -3.414  41.575  0.00  0.00    +0.004 A 
BRANCH  29   5
ATOM      5  O   UNL     1      -2.539  -5.871  39.132  0.00  0.00    -0.495 OA
ATOM     34  C   UNL     1      -1.691  -5.470  38.056  0.00  0.00    +0.277 C 
ENDBRANCH  29   5
ENDBRANCH  27  28
ENDBRANCH  22  27
TORSDOF 5
ENDMDL
MODEL 7
REMARK VINA RESULT:      -6.4     12.208     15.441
REMARK  Name = 11865938
REMARK  6 active torsions:
REMARK  status: ('A' for Active; 'I' for Inactive)
REMARK    1  A    between atoms: O_5  and  C_29
REMARK    2  A    between atoms: O_5  and  C_34
REMARK    3  A    between atoms: N_9  and  C_13
REMARK    4  A    between atoms: C_20  and  C_21
REMARK    5  A    between atoms: C_22  and  C_27
REMARK    6  A    between atoms: C_27  and  C_28
REMARK                            x       y       z     vdW  Elec       q    Type
REMARK                         _______ _______ _______ _____ _____    ______ ____
ROOT
ATOM      1  O   UNL     1      12.545   6.777   7.276  0.00  0.00    -0.273 OA
ATOM      2  O   UNL     1      14.061  11.421   4.305  0.00  0.00    -0.274 OA
ATOM      4  O   UNL     1       8.318   7.435   7.791  0.00  0.00    -0.275 OA
ATOM      6  N   UNL     1      13.669   8.073   5.711  0.00  0.00    -0.287 N 
ATOM      7  N   UNL     1      10.332   8.469   7.323  0.00  0.00    -0.288 N 
ATOM      8  N   UNL     1      12.654  10.923   6.004  0.00  0.00    -0.309 N 
ATOM     10  C   UNL     1      11.466   8.771   6.447  0.00  0.00    +0.182 C 
ATOM     11  C   UNL     1      13.664   9.069   4.634  0.00  0.00    +0.164 C 
ATOM     12  C   UNL     1      12.059  10.070   7.010  0.00  0.00    +0.104 C 
ATOM     13  C   UNL     1      15.340   7.370   4.213  0.00  0.00    +0.092 C 
ATOM     14  C   UNL     1      14.998   8.824   3.902  0.00  0.00    +0.055 C 
ATOM     15  C   UNL     1      14.848   7.220   5.644  0.00  0.00    +0.131 C 
ATOM     16  C   UNL     1      10.878  10.709   7.734  0.00  0.00    +0.043 C 
ATOM     17  C   UNL     1      12.586   7.749   6.522  0.00  0.00    +0.239 C 
ATOM     18  C   UNL     1      10.181   9.501   8.340  0.00  0.00    +0.110 C 
ATOM     19  C   UNL     1      13.533  10.553   5.011  0.00  0.00    +0.234 C 
ATOM     22  C   UNL     1       9.359   7.500   7.133  0.00  0.00    +0.221 C 
ATOM     35  H   UNL     1      12.573  11.923   6.164  0.00  0.00    +0.149 HD
ENDROOT
BRANCH  13   9
ATOM      3  O   UNL     1      15.597   7.206   1.325  0.00  0.00    -0.276 OA
ATOM      9  N   UNL     1      14.656   6.463   3.320  0.00  0.00    -0.311 N 
ATOM     21  C   UNL     1      14.845   6.462   1.948  0.00  0.00    +0.216 C 
ATOM     36  H   UNL     1      13.995   5.810   3.730  0.00  0.00    +0.149 HD
BRANCH  21  20
ATOM     20  C   UNL     1      14.032   5.404   1.263  0.00  0.00    +0.075 C 
ATOM     23  C   UNL     1      14.369   4.022   1.805  0.00  0.00    +0.013 C 
ATOM     24  C   UNL     1      14.366   5.302  -0.218  0.00  0.00    +0.013 C 
ATOM     25  C   UNL     1      15.546   3.526   0.968  0.00  0.00    +0.001 C 
ATOM     26  C   UNL     1      15.599   4.407  -0.277  0.00  0.00    +0.001 C 
ENDBRANCH  21  20
ENDBRANCH  13   9
BRANCH  22  27
ATOM     27  C   UNL     1       9.631   6.480   6.055  0.00  0.00    +0.134 C 
BRANCH  27  28
ATOM     28  C   UNL     1       9.329   7.048   4.704  0.00  0.00    +0.003 A 
ATOM     29  C   UNL     1      10.102   6.700   3.599  0.00  0.00    +0.124 A 
ATOM     30  C   UNL     1       8.261   7.932   4.564  0.00  0.00    +0.008 A 
ATOM     31  C   UNL     1       9.806   7.239   2.347  0.00  0.00    +0.046 A 
ATOM     32  C   UNL     1       7.966   8.471   3.311  0.00  0.00    +0.001 A 
ATOM     33  C   UNL     1       8.739   8.125   2.203  0.00  0.00    +0.004 A 
BRANCH  29   5
ATOM      5  O   UNL     1      11.148   5.837   3.722  0.00  0.00    -0.495 OA
ATOM     34  C   UNL     1      10.962   4.516   3.215  0.00  0.00    +0.277 C 
ENDBRANCH  29   5
ENDBRANCH  27  28
ENDBRANCH  22  27
TORSDOF 5
ENDMDL
MODEL 8
REMARK VINA RESULT:      -6.4     27.121     31.204
REMARK  Name = 11865938
REMARK  6 active torsions:
REMARK  status: ('A' for Active; 'I' for Inactive)
REMARK    1  A    between atoms: O_5  and  C_29
REMARK    2  A    between atoms: O_5  and  C_34
REMARK    3  A    between atoms: N_9  and  C_13
REMARK    4  A    between atoms: C_20  and  C_21
REMARK    5  A    between atoms: C_22  and  C_27
REMARK    6  A    between atoms: C_27  and  C_28
REMARK                            x       y       z     vdW  Elec       q    Type
REMARK                         _______ _______ _______ _____ _____    ______ ____
ROOT
ATOM      1  O   UNL     1      -5.201  -9.617  13.959  0.00  0.00    -0.273 OA
ATOM      2  O   UNL     1      -4.861 -12.927  18.608  0.00  0.00    -0.274 OA
ATOM      4  O   UNL     1      -1.545 -10.635  11.918  0.00  0.00    -0.275 OA
ATOM      6  N   UNL     1      -5.904 -10.996  15.689  0.00  0.00    -0.287 N 
ATOM      7  N   UNL     1      -2.618 -10.661  13.965  0.00  0.00    -0.288 N 
ATOM      8  N   UNL     1      -3.450 -11.696  17.340  0.00  0.00    -0.309 N 
ATOM     10  C   UNL     1      -3.618 -11.176  14.903  0.00  0.00    +0.182 C 
ATOM     11  C   UNL     1      -5.762 -12.215  16.492  0.00  0.00    +0.164 C 
ATOM     12  C   UNL     1      -3.102 -10.765  16.288  0.00  0.00    +0.104 C 
ATOM     13  C   UNL     1      -8.103 -11.684  16.159  0.00  0.00    +0.092 C 
ATOM     14  C   UNL     1      -7.160 -12.410  17.114  0.00  0.00    +0.055 C 
ATOM     15  C   UNL     1      -7.270 -10.489  15.725  0.00  0.00    +0.131 C 
ATOM     16  C   UNL     1      -1.599 -10.619  16.074  0.00  0.00    +0.043 C 
ATOM     17  C   UNL     1      -4.979 -10.519  14.766  0.00  0.00    +0.239 C 
ATOM     18  C   UNL     1      -1.531 -10.008  14.683  0.00  0.00    +0.110 C 
ATOM     19  C   UNL     1      -4.688 -12.248  17.589  0.00  0.00    +0.234 C 
ATOM     22  C   UNL     1      -2.525 -10.924  12.607  0.00  0.00    +0.221 C 
ATOM     35  H   UNL     1      -2.768 -11.803  18.085  0.00  0.00    +0.149 HD
ENDROOT
BRANCH  13   9
ATOM      3  O   UNL     1     -10.146 -11.169  14.160  0.00  0.00    -0.276 OA
ATOM      9  N   UNL     1      -8.461 -12.517  15.034  0.00  0.00    -0.311 N 
ATOM     21  C   UNL     1      -9.457 -12.184  14.130  0.00  0.00    +0.216 C 
ATOM     36  H   UNL     1      -7.962 -13.394  14.921  0.00  0.00    +0.149 HD
BRANCH  21  20
ATOM     20  C   UNL     1      -9.606 -13.210  13.046  0.00  0.00    +0.075 C 
ATOM     23  C   UNL     1      -8.264 -13.845  12.709  0.00  0.00    +0.013 C 
ATOM     24  C   UNL     1     -10.051 -12.586  11.732  0.00  0.00    +0.013 C 
ATOM     25  C   UNL     1      -7.640 -12.947  11.643  0.00  0.00    +0.001 C 
ATOM     26  C   UNL     1      -8.765 -12.078  11.088  0.00  0.00    +0.001 C 
ENDBRANCH  21  20
ENDBRANCH  13   9
BRANCH  22  27
ATOM     27  C   UNL     1      -3.716 -11.598  11.973  0.00  0.00    +0.134 C 
BRANCH  27  28
ATOM     28  C   UNL     1      -4.111 -10.893  10.712  0.00  0.00    +0.003 A 
ATOM     29  C   UNL     1      -4.204 -11.589   9.510  0.00  0.00    +0.124 A 
ATOM     30  C   UNL     1      -4.386  -9.528  10.758  0.00  0.00    +0.008 A 
ATOM     31  C   UNL     1      -4.574 -10.916   8.345  0.00  0.00    +0.046 A 
ATOM     32  C   UNL     1      -4.756  -8.855   9.593  0.00  0.00    +0.001 A 
ATOM     33  C   UNL     1      -4.850  -9.549   8.386  0.00  0.00    +0.004 A 
BRANCH  29   5
ATOM      5  O   UNL     1      -3.938 -12.923   9.451  0.00  0.00    -0.495 OA
ATOM     34  C   UNL     1      -5.018 -13.784   9.093  0.00  0.00    +0.277 C 
ENDBRANCH  29   5
ENDBRANCH  27  28
ENDBRANCH  22  27
TORSDOF 5
ENDMDL
MODEL 9
REMARK VINA RESULT:      -6.3      3.561      7.113
REMARK  Name = 11865938
REMARK  6 active torsions:
REMARK  status: ('A' for Active; 'I' for Inactive)
REMARK    1  A    between atoms: O_5  and  C_29
REMARK    2  A    between atoms: O_5  and  C_34
REMARK    3  A    between atoms: N_9  and  C_13
REMARK    4  A    between atoms: C_20  and  C_21
REMARK    5  A    between atoms: C_22  and  C_27
REMARK    6  A    between atoms: C_27  and  C_28
REMARK                            x       y       z     vdW  Elec       q    Type
REMARK                         _______ _______ _______ _____ _____    ______ ____
ROOT
ATOM      1  O   UNL     1      15.601  12.108  23.280  0.00  0.00    -0.273 OA
ATOM      2  O   UNL     1      19.016  12.791  18.746  0.00  0.00    -0.274 OA
ATOM      4  O   UNL     1      11.716  12.742  21.526  0.00  0.00    -0.275 OA
ATOM      6  N   UNL     1      17.398  11.758  21.853  0.00  0.00    -0.287 N 
ATOM      7  N   UNL     1      13.981  13.115  21.250  0.00  0.00    -0.288 N 
ATOM      8  N   UNL     1      17.130  13.736  19.561  0.00  0.00    -0.309 N 
ATOM     10  C   UNL     1      15.345  12.674  20.947  0.00  0.00    +0.182 C 
ATOM     11  C   UNL     1      17.941  11.549  20.507  0.00  0.00    +0.164 C 
ATOM     12  C   UNL     1      16.087  13.953  20.540  0.00  0.00    +0.104 C 
ATOM     13  C   UNL     1      19.160  10.224  22.129  0.00  0.00    +0.092 C 
ATOM     14  C   UNL     1      19.309  10.884  20.761  0.00  0.00    +0.055 C 
ATOM     15  C   UNL     1      18.286  11.220  22.876  0.00  0.00    +0.131 C 
ATOM     16  C   UNL     1      14.969  14.868  20.049  0.00  0.00    +0.043 C 
ATOM     17  C   UNL     1      16.094  12.138  22.153  0.00  0.00    +0.239 C 
ATOM     18  C   UNL     1      13.843  14.548  21.021  0.00  0.00    +0.110 C 
ATOM     19  C   UNL     1      18.111  12.769  19.589  0.00  0.00    +0.234 C 
ATOM     22  C   UNL     1      12.873  12.317  21.488  0.00  0.00    +0.221 C 
ATOM     35  H   UNL     1      17.276  14.485  18.891  0.00  0.00    +0.149 HD
ENDROOT
BRANCH  13   9
ATOM      3  O   UNL     1      20.242   7.813  20.926  0.00  0.00    -0.276 OA
ATOM      9  N   UNL     1      18.523   8.932  22.027  0.00  0.00    -0.311 N 
ATOM     21  C   UNL     1      19.123   7.834  21.431  0.00  0.00    +0.216 C 
ATOM     36  H   UNL     1      17.583   8.841  22.401  0.00  0.00    +0.149 HD
BRANCH  21  20
ATOM     20  C   UNL     1      18.254   6.613  21.483  0.00  0.00    +0.075 C 
ATOM     23  C   UNL     1      18.520   5.705  20.290  0.00  0.00    +0.013 C 
ATOM     24  C   UNL     1      16.779   6.961  21.351  0.00  0.00    +0.013 C 
ATOM     25  C   UNL     1      17.594   6.200  19.181  0.00  0.00    +0.001 C 
ATOM     26  C   UNL     1      16.540   7.079  19.850  0.00  0.00    +0.001 C 
ENDBRANCH  21  20
ENDBRANCH  13   9
BRANCH  22  27
ATOM     27  C   UNL     1      13.142  10.850  21.718  0.00  0.00    +0.134 C 
BRANCH  27  28
ATOM     28  C   UNL     1      12.608  10.033  20.582  0.00  0.00    +0.003 A 
ATOM     29  C   UNL     1      11.561   9.138  20.783  0.00  0.00    +0.124 A 
ATOM     30  C   UNL     1      13.174  10.180  19.318  0.00  0.00    +0.008 A 
ATOM     31  C   UNL     1      11.076   8.385  19.714  0.00  0.00    +0.046 A 
ATOM     32  C   UNL     1      12.689   9.427  18.248  0.00  0.00    +0.001 A 
ATOM     33  C   UNL     1      11.640   8.529  18.446  0.00  0.00    +0.004 A 
BRANCH  29   5
ATOM      5  O   UNL     1      10.998   8.984  22.014  0.00  0.00    -0.495 OA
ATOM     34  C   UNL     1      10.320   7.755  22.268  0.00  0.00    +0.277 C 
ENDBRANCH  29   5
ENDBRANCH  27  28
ENDBRANCH  22  27
TORSDOF 5
ENDMDL
MODEL 10
REMARK VINA RESULT:      -6.3     14.294     17.789
REMARK  Name = 11865938
REMARK  6 active torsions:
REMARK  status: ('A' for Active; 'I' for Inactive)
REMARK    1  A    between atoms: O_5  and  C_29
REMARK    2  A    between atoms: O_5  and  C_34
REMARK    3  A    between atoms: N_9  and  C_13
REMARK    4  A    between atoms: C_20  and  C_21
REMARK    5  A    between atoms: C_22  and  C_27
REMARK    6  A    between atoms: C_27  and  C_28
REMARK                            x       y       z     vdW  Elec       q    Type
REMARK                         _______ _______ _______ _____ _____    ______ ____
ROOT
ATOM      1  O   UNL     1       9.840   4.753   4.498  0.00  0.00    -0.273 OA
ATOM      2  O   UNL     1      14.755   7.322   3.111  0.00  0.00    -0.274 OA
ATOM      4  O   UNL     1       7.945   7.781   6.909  0.00  0.00    -0.275 OA
ATOM      6  N   UNL     1      11.670   5.371   3.210  0.00  0.00    -0.287 N 
ATOM      7  N   UNL     1       9.971   7.049   6.071  0.00  0.00    -0.288 N 
ATOM      8  N   UNL     1      13.409   7.183   4.922  0.00  0.00    -0.309 N 
ATOM     10  C   UNL     1      10.934   6.849   4.986  0.00  0.00    +0.182 C 
ATOM     11  C   UNL     1      12.574   6.398   2.681  0.00  0.00    +0.164 C 
ATOM     12  C   UNL     1      12.288   6.686   5.690  0.00  0.00    +0.104 C 
ATOM     13  C   UNL     1      12.164   4.687   1.015  0.00  0.00    +0.092 C 
ATOM     14  C   UNL     1      13.190   5.737   1.432  0.00  0.00    +0.055 C 
ATOM     15  C   UNL     1      11.643   4.191   2.355  0.00  0.00    +0.131 C 
ATOM     16  C   UNL     1      12.084   7.414   7.015  0.00  0.00    +0.043 C 
ATOM     17  C   UNL     1      10.723   5.560   4.212  0.00  0.00    +0.239 C 
ATOM     18  C   UNL     1      10.647   7.053   7.362  0.00  0.00    +0.110 C 
ATOM     19  C   UNL     1      13.685   6.935   3.596  0.00  0.00    +0.234 C 
ATOM     22  C   UNL     1       8.642   7.424   5.956  0.00  0.00    +0.221 C 
ATOM     35  H   UNL     1      14.169   7.590   5.457  0.00  0.00    +0.149 HD
ENDROOT
BRANCH  13   9
ATOM      3  O   UNL     1      10.843   3.512  -1.289  0.00  0.00    -0.276 OA
ATOM      9  N   UNL     1      11.108   5.267   0.217  0.00  0.00    -0.311 N 
ATOM     21  C   UNL     1      10.538   4.625  -0.870  0.00  0.00    +0.216 C 
ATOM     36  H   UNL     1      10.787   6.197   0.468  0.00  0.00    +0.149 HD
BRANCH  21  20
ATOM     20  C   UNL     1       9.448   5.437  -1.504  0.00  0.00    +0.075 C 
ATOM     23  C   UNL     1       9.144   4.938  -2.909  0.00  0.00    +0.013 C 
ATOM     24  C   UNL     1       9.870   6.883  -1.717  0.00  0.00    +0.013 C 
ATOM     25  C   UNL     1      10.106   5.686  -3.830  0.00  0.00    +0.001 C 
ATOM     26  C   UNL     1      10.640   6.873  -3.033  0.00  0.00    +0.001 C 
ENDBRANCH  21  20
ENDBRANCH  13   9
BRANCH  22  27
ATOM     27  C   UNL     1       8.049   7.372   4.570  0.00  0.00    +0.134 C 
BRANCH  27  28
ATOM     28  C   UNL     1       7.905   8.752   4.006  0.00  0.00    +0.003 A 
ATOM     29  C   UNL     1       8.553   9.107   2.826  0.00  0.00    +0.124 A 
ATOM     30  C   UNL     1       7.112   9.679   4.679  0.00  0.00    +0.008 A 
ATOM     31  C   UNL     1       8.407  10.397   2.315  0.00  0.00    +0.046 A 
ATOM     32  C   UNL     1       6.966  10.969   4.168  0.00  0.00    +0.001 A 
ATOM     33  C   UNL     1       7.614  11.328   2.986  0.00  0.00    +0.004 A 
BRANCH  29   5
ATOM      5  O   UNL     1       9.331   8.211   2.158  0.00  0.00    -0.495 OA
ATOM     34  C   UNL     1      10.400   8.738   1.375  0.00  0.00    +0.277 C 
ENDBRANCH  29   5
ENDBRANCH  27  28
ENDBRANCH  22  27
TORSDOF 5
ENDMDL
