REMARK  Name = 26741971
REMARK  8 active torsions:
REMARK  status: ('A' for Active; 'I' for Inactive)
REMARK    1  A    between atoms: O_1  and  C_11
REMARK    2  A    between atoms: O_4  and  C_25
REMARK    3  A    between atoms: O_4  and  C_26
REMARK    4  A    between atoms: N_7  and  C_10
REMARK    5  A    between atoms: N_8  and  C_19
REMARK    6  A    between atoms: C_17  and  C_18
REMARK    7  A    between atoms: C_19  and  C_22
REMARK    8  A    between atoms: C_26  and  C_27
REMARK                            x       y       z     vdW  Elec       q    Type
REMARK                         _______ _______ _______ _____ _____    ______ ____
ROOT
ATOM      3  O   UNL     1      -0.540  -2.907  -1.342  0.00  0.00    -0.270 OA
ATOM      7  N   UNL     1      -1.192  -1.196   0.080  0.00  0.00    -0.305 N 
ATOM     17  C   UNL     1      -0.279  -1.908  -0.677  0.00  0.00    +0.244 C 
ATOM     28  H   UNL     1      -0.903  -0.384   0.613  0.00  0.00    +0.149 HD
ENDROOT
BRANCH   7  10
ATOM      2  O   UNL     1      -1.953   1.436  -1.387  0.00  0.00    -0.253 OA
ATOM      6  N   UNL     1      -3.901   0.387  -0.687  0.00  0.00    -0.284 N 
ATOM      8  N   UNL     1      -3.627   2.725  -0.483  0.00  0.00    -0.300 N 
ATOM     10  C   UNL     1      -2.591  -1.575   0.164  0.00  0.00    +0.119 C 
ATOM     11  C   UNL     1      -3.103  -1.284   1.587  0.00  0.00    +0.136 C 
ATOM     12  C   UNL     1      -4.627  -1.243   1.752  0.00  0.00    +0.035 C 
ATOM     13  C   UNL     1      -3.376  -0.943  -0.995  0.00  0.00    +0.134 C 
ATOM     14  C   UNL     1      -5.241   0.113   1.388  0.00  0.00    +0.022 C 
ATOM     15  C   UNL     1      -5.248   0.409  -0.106  0.00  0.00    +0.109 C 
ATOM     16  C   UNL     1      -3.082   1.512  -0.892  0.00  0.00    +0.302 C 
ATOM     30  H   UNL     1      -4.502   2.758   0.023  0.00  0.00    +0.150 HD
BRANCH  11   1
ATOM      1  O   UNL     1      -2.593  -2.327   2.428  0.00  0.00    -0.390 OA
ATOM     29  H   UNL     1      -2.817  -2.099   3.347  0.00  0.00    +0.210 HD
ENDBRANCH  11   1
BRANCH   8  19
ATOM     19  C   UNL     1      -2.910   3.973  -0.611  0.00  0.00    +0.102 C 
ATOM     22  C   UNL     1      -1.903   4.151   0.507  0.00  0.00    +0.024 C 
ENDBRANCH   8  19
ENDBRANCH   7  10
BRANCH  17  18
ATOM     18  C   UNL     1       1.119  -1.407  -0.637  0.00  0.00    +0.037 A 
ATOM     20  C   UNL     1       2.181  -2.286  -0.854  0.00  0.00    +0.016 A 
ATOM     21  C   UNL     1       1.371  -0.059  -0.380  0.00  0.00    +0.016 A 
ATOM     23  C   UNL     1       3.494  -1.817  -0.814  0.00  0.00    +0.046 A 
ATOM     24  C   UNL     1       2.683   0.410  -0.340  0.00  0.00    +0.046 A 
ATOM     25  C   UNL     1       3.745  -0.469  -0.557  0.00  0.00    +0.121 A 
BRANCH  25   4
ATOM      4  O   UNL     1       5.026  -0.010  -0.518  0.00  0.00    -0.483 OA
BRANCH   4  26
ATOM     26  C   UNL     1       5.293   1.099   0.339  0.00  0.00    +0.324 C 
BRANCH  26  27
ATOM      5  O   UNL     1       7.496   0.123   0.531  0.00  0.00    -0.272 OA
ATOM      9  N   UNL     1       7.041   2.072   1.667  0.00  0.00    -0.327 N 
ATOM     27  C   UNL     1       6.717   1.022   0.836  0.00  0.00    +0.248 C 
ATOM     31  H   UNL     1       6.376   2.803   1.902  0.00  0.00    +0.145 HD
ATOM     32  H   UNL     1       7.966   2.148   2.075  0.00  0.00    +0.145 HD
ENDBRANCH  26  27
ENDBRANCH   4  26
ENDBRANCH  25   4
ENDBRANCH  17  18
TORSDOF 7
