MODEL 1
REMARK VINA RESULT:      -6.6      0.000      0.000
REMARK  Name = 11867036
REMARK  9 active torsions:
REMARK  status: ('A' for Active; 'I' for Inactive)
REMARK    1  A    between atoms: O_3  and  C_13
REMARK    2  A    between atoms: O_4  and  C_18
REMARK    3  A    between atoms: N_7  and  C_25
REMARK    4  A    between atoms: C_8  and  C_16
REMARK    5  A    between atoms: C_10  and  C_18
REMARK    6  A    between atoms: C_10  and  C_19
REMARK    7  A    between atoms: C_11  and  C_21
REMARK    8  A    between atoms: C_21  and  C_22
REMARK    9  A    between atoms: C_23  and  C_24
REMARK                            x       y       z     vdW  Elec       q    Type
REMARK                         _______ _______ _______ _____ _____    ______ ____
ROOT
ATOM      1  S   UNL     1      10.221   8.184  -0.895  0.00  0.00    -0.072 S 
ATOM      6  N   UNL     1       9.903   7.376   1.542  0.00  0.00    -0.243 NA
ATOM      8  C   UNL     1      12.786   4.885   0.955  0.00  0.00    -0.020 C 
ATOM      9  C   UNL     1      13.513   5.850  -0.082  0.00  0.00    +0.011 C 
ATOM     10  C   UNL     1      14.793   5.284  -0.809  0.00  0.00    +0.021 C 
ATOM     11  C   UNL     1      11.826   5.777   1.869  0.00  0.00    +0.053 C 
ATOM     12  C   UNL     1      13.846   4.215   1.867  0.00  0.00    +0.010 C 
ATOM     13  C   UNL     1      15.723   4.610   0.239  0.00  0.00    +0.123 C 
ATOM     14  C   UNL     1      12.492   6.524  -1.044  0.00  0.00    +0.049 C 
ATOM     15  C   UNL     1      15.004   3.583   1.107  0.00  0.00    +0.032 C 
ATOM     16  C   UNL     1      11.954   3.776   0.263  0.00  0.00    +0.012 C 
ATOM     17  C   UNL     1      11.013   6.731   1.031  0.00  0.00    +0.056 A 
ATOM     19  C   UNL     1      15.585   6.467  -1.436  0.00  0.00    +0.016 C 
ATOM     20  C   UNL     1      11.341   7.066  -0.267  0.00  0.00    +0.014 A 
ATOM     23  C   UNL     1       9.400   8.161   0.613  0.00  0.00    +0.109 A 
ENDROOT
BRANCH  23  24
ATOM      2  S   UNL     1       6.301  10.204   2.082  0.00  0.00    -0.104 S 
ATOM     24  C   UNL     1       8.192   8.981   0.855  0.00  0.00    +0.014 A 
ATOM     26  C   UNL     1       7.414   9.607  -0.156  0.00  0.00    +0.018 A 
ATOM     27  C   UNL     1       7.704   9.221   2.118  0.00  0.00    +0.055 A 
ATOM     28  C   UNL     1       6.351  10.307   0.374  0.00  0.00    +0.046 A 
ENDBRANCH  23  24
BRANCH  13   3
ATOM      3  O   UNL     1      16.828   3.975  -0.403  0.00  0.00    -0.391 OA
ATOM     34  H   UNL     1      17.428   3.648   0.287  0.00  0.00    +0.210 HD
ENDBRANCH  13   3
BRANCH  10  18
ATOM     18  C   UNL     1      14.494   4.321  -1.978  0.00  0.00    +0.165 C 
BRANCH  18   4
ATOM      4  O   UNL     1      15.490   4.507  -2.958  0.00  0.00    -0.394 OA
ATOM     35  H   UNL     1      15.491   3.727  -3.540  0.00  0.00    +0.209 HD
ENDBRANCH  18   4
ENDBRANCH  10  18
BRANCH  11  21
ATOM     21  C   UNL     1      10.937   4.978   2.831  0.00  0.00    +0.106 C 
BRANCH  21  22
ATOM      5  O   UNL     1      11.836   6.338   4.603  0.00  0.00    -0.275 OA
ATOM      7  N   UNL     1      10.017   4.914   5.028  0.00  0.00    -0.285 N 
ATOM     22  C   UNL     1      11.007   5.507   4.248  0.00  0.00    +0.218 C 
ATOM     36  H   UNL     1       9.409   4.231   4.583  0.00  0.00    +0.155 HD
BRANCH   7  25
ATOM     25  C   UNL     1       9.749   5.138   6.399  0.00  0.00    +0.033 A 
ATOM     29  C   UNL     1       9.329   6.391   6.810  0.00  0.00    +0.023 A 
ATOM     30  C   UNL     1       9.915   4.099   7.300  0.00  0.00    +0.023 A 
ATOM     31  C   UNL     1       9.064   6.611   8.163  0.00  0.00    +0.002 A 
ATOM     32  C   UNL     1       9.650   4.320   8.651  0.00  0.00    +0.002 A 
ATOM     33  C   UNL     1       9.226   5.576   9.083  0.00  0.00    +0.000 A 
ENDBRANCH   7  25
ENDBRANCH  21  22
ENDBRANCH  11  21
TORSDOF 7
ENDMDL
MODEL 2
REMARK VINA RESULT:      -6.5      4.736      8.533
REMARK  Name = 11867036
REMARK  9 active torsions:
REMARK  status: ('A' for Active; 'I' for Inactive)
REMARK    1  A    between atoms: O_3  and  C_13
REMARK    2  A    between atoms: O_4  and  C_18
REMARK    3  A    between atoms: N_7  and  C_25
REMARK    4  A    between atoms: C_8  and  C_16
REMARK    5  A    between atoms: C_10  and  C_18
REMARK    6  A    between atoms: C_10  and  C_19
REMARK    7  A    between atoms: C_11  and  C_21
REMARK    8  A    between atoms: C_21  and  C_22
REMARK    9  A    between atoms: C_23  and  C_24
REMARK                            x       y       z     vdW  Elec       q    Type
REMARK                         _______ _______ _______ _____ _____    ______ ____
ROOT
ATOM      1  S   UNL     1      12.864   5.484   1.202  0.00  0.00    -0.072 S 
ATOM      6  N   UNL     1      14.858   6.547   2.462  0.00  0.00    -0.243 NA
ATOM      8  C   UNL     1      12.336   7.883   5.056  0.00  0.00    -0.020 C 
ATOM      9  C   UNL     1      11.350   6.651   4.849  0.00  0.00    +0.011 C 
ATOM     10  C   UNL     1       9.974   6.698   5.618  0.00  0.00    +0.021 C 
ATOM     11  C   UNL     1      13.791   7.438   4.568  0.00  0.00    +0.053 C 
ATOM     12  C   UNL     1      12.413   8.235   6.564  0.00  0.00    +0.010 C 
ATOM     13  C   UNL     1      10.228   7.108   7.096  0.00  0.00    +0.123 C 
ATOM     14  C   UNL     1      11.215   6.278   3.343  0.00  0.00    +0.049 C 
ATOM     15  C   UNL     1      11.053   8.382   7.233  0.00  0.00    +0.032 C 
ATOM     16  C   UNL     1      11.895   9.145   4.273  0.00  0.00    +0.012 C 
ATOM     17  C   UNL     1      13.726   6.743   3.232  0.00  0.00    +0.056 A 
ATOM     19  C   UNL     1       9.353   5.272   5.634  0.00  0.00    +0.016 C 
ATOM     20  C   UNL     1      12.563   6.214   2.711  0.00  0.00    +0.014 A 
ATOM     23  C   UNL     1      14.522   5.901   1.367  0.00  0.00    +0.109 A 
ENDROOT
BRANCH  23  24
ATOM      2  S   UNL     1      17.423   5.777  -1.372  0.00  0.00    -0.104 S 
ATOM     24  C   UNL     1      15.520   5.551   0.332  0.00  0.00    +0.014 A 
ATOM     26  C   UNL     1      15.705   4.254  -0.220  0.00  0.00    +0.018 A 
ATOM     27  C   UNL     1      16.386   6.476  -0.202  0.00  0.00    +0.055 A 
ATOM     28  C   UNL     1      16.711   4.234  -1.161  0.00  0.00    +0.046 A 
ENDBRANCH  23  24
BRANCH  13   3
ATOM      3  O   UNL     1       8.991   7.286   7.788  0.00  0.00    -0.391 OA
ATOM     34  H   UNL     1       8.463   6.480   7.670  0.00  0.00    +0.210 HD
ENDBRANCH  13   3
BRANCH  10  18
ATOM     18  C   UNL     1       8.908   7.608   4.970  0.00  0.00    +0.165 C 
BRANCH  18   4
ATOM      4  O   UNL     1       7.639   7.109   5.328  0.00  0.00    -0.394 OA
ATOM     35  H   UNL     1       7.215   7.758   5.915  0.00  0.00    +0.209 HD
ENDBRANCH  18   4
ENDBRANCH  10  18
BRANCH  11  21
ATOM     21  C   UNL     1      14.835   8.563   4.565  0.00  0.00    +0.106 C 
BRANCH  21  22
ATOM      5  O   UNL     1      15.895   7.811   6.594  0.00  0.00    -0.275 OA
ATOM      7  N   UNL     1      17.208   8.522   4.781  0.00  0.00    -0.285 N 
ATOM     22  C   UNL     1      16.021   8.246   5.454  0.00  0.00    +0.218 C 
ATOM     36  H   UNL     1      17.142   8.890   3.835  0.00  0.00    +0.155 HD
BRANCH   7  25
ATOM     25  C   UNL     1      18.529   8.363   5.261  0.00  0.00    +0.033 A 
ATOM     29  C   UNL     1      19.464   7.718   4.469  0.00  0.00    +0.023 A 
ATOM     30  C   UNL     1      18.859   8.854   6.514  0.00  0.00    +0.023 A 
ATOM     31  C   UNL     1      20.767   7.562   4.943  0.00  0.00    +0.002 A 
ATOM     32  C   UNL     1      20.161   8.697   6.986  0.00  0.00    +0.002 A 
ATOM     33  C   UNL     1      21.115   8.051   6.202  0.00  0.00    +0.000 A 
ENDBRANCH   7  25
ENDBRANCH  21  22
ENDBRANCH  11  21
TORSDOF 7
ENDMDL
MODEL 3
REMARK VINA RESULT:      -6.5     24.519     27.236
REMARK  Name = 11867036
REMARK  9 active torsions:
REMARK  status: ('A' for Active; 'I' for Inactive)
REMARK    1  A    between atoms: O_3  and  C_13
REMARK    2  A    between atoms: O_4  and  C_18
REMARK    3  A    between atoms: N_7  and  C_25
REMARK    4  A    between atoms: C_8  and  C_16
REMARK    5  A    between atoms: C_10  and  C_18
REMARK    6  A    between atoms: C_10  and  C_19
REMARK    7  A    between atoms: C_11  and  C_21
REMARK    8  A    between atoms: C_21  and  C_22
REMARK    9  A    between atoms: C_23  and  C_24
REMARK                            x       y       z     vdW  Elec       q    Type
REMARK                         _______ _______ _______ _____ _____    ______ ____
ROOT
ATOM      1  S   UNL     1      -6.097 -10.002  10.726  0.00  0.00    -0.072 S 
ATOM      6  N   UNL     1      -7.794  -9.567  12.629  0.00  0.00    -0.243 NA
ATOM      8  C   UNL     1      -5.176 -10.946  15.102  0.00  0.00    -0.020 C 
ATOM      9  C   UNL     1      -3.955 -10.437  14.216  0.00  0.00    +0.011 C 
ATOM     10  C   UNL     1      -2.507 -10.839  14.694  0.00  0.00    +0.021 C 
ATOM     11  C   UNL     1      -6.463 -10.085  14.709  0.00  0.00    +0.053 C 
ATOM     12  C   UNL     1      -4.863 -10.702  16.600  0.00  0.00    +0.010 C 
ATOM     13  C   UNL     1      -2.380 -10.573  16.220  0.00  0.00    +0.123 C 
ATOM     14  C   UNL     1      -4.208 -10.689  12.700  0.00  0.00    +0.049 C 
ATOM     15  C   UNL     1      -3.497 -11.213  17.037  0.00  0.00    +0.032 C 
ATOM     16  C   UNL     1      -5.482 -12.451  14.897  0.00  0.00    +0.012 C 
ATOM     17  C   UNL     1      -6.612  -9.983  13.212  0.00  0.00    +0.056 A 
ATOM     19  C   UNL     1      -1.467  -9.932  13.978  0.00  0.00    +0.016 C 
ATOM     20  C   UNL     1      -5.581 -10.241  12.331  0.00  0.00    +0.014 A 
ATOM     23  C   UNL     1      -7.641  -9.548  11.323  0.00  0.00    +0.109 A 
ENDROOT
BRANCH  23  24
ATOM      2  S   UNL     1      -9.988  -8.120   8.426  0.00  0.00    -0.104 S 
ATOM     24  C   UNL     1      -8.742  -9.153  10.415  0.00  0.00    +0.014 A 
ATOM     26  C   UNL     1     -10.113  -9.477  10.604  0.00  0.00    +0.018 A 
ATOM     27  C   UNL     1      -8.529  -8.419   9.272  0.00  0.00    +0.055 A 
ATOM     28  C   UNL     1     -10.903  -8.976   9.593  0.00  0.00    +0.046 A 
ENDBRANCH  23  24
BRANCH  13   3
ATOM      3  O   UNL     1      -1.125 -11.047  16.710  0.00  0.00    -0.391 OA
ATOM     34  H   UNL     1      -0.914 -10.555  17.520  0.00  0.00    +0.210 HD
ENDBRANCH  13   3
BRANCH  10  18
ATOM     18  C   UNL     1      -2.098 -12.288  14.351  0.00  0.00    +0.165 C 
BRANCH  18   4
ATOM      4  O   UNL     1      -1.384 -12.260  13.137  0.00  0.00    -0.394 OA
ATOM     35  H   UNL     1      -1.279 -11.331  12.870  0.00  0.00    +0.209 HD
ENDBRANCH  18   4
ENDBRANCH  10  18
BRANCH  11  21
ATOM     21  C   UNL     1      -7.767 -10.549  15.372  0.00  0.00    +0.106 C 
BRANCH  21  22
ATOM      5  O   UNL     1      -8.161  -8.835  17.018  0.00  0.00    -0.275 OA
ATOM      7  N   UNL     1      -9.669  -9.119  15.240  0.00  0.00    -0.285 N 
ATOM     22  C   UNL     1      -8.533  -9.400  15.995  0.00  0.00    +0.218 C 
ATOM     36  H   UNL     1      -9.844  -9.690  14.416  0.00  0.00    +0.155 HD
BRANCH   7  25
ATOM     25  C   UNL     1     -10.643  -8.123  15.484  0.00  0.00    +0.033 A 
ATOM     29  C   UNL     1     -10.246  -6.800  15.589  0.00  0.00    +0.023 A 
ATOM     30  C   UNL     1     -11.972  -8.491  15.615  0.00  0.00    +0.023 A 
ATOM     31  C   UNL     1     -11.207  -5.817  15.829  0.00  0.00    +0.002 A 
ATOM     32  C   UNL     1     -12.931  -7.508  15.856  0.00  0.00    +0.002 A 
ATOM     33  C   UNL     1     -12.549  -6.172  15.963  0.00  0.00    +0.000 A 
ENDBRANCH   7  25
ENDBRANCH  21  22
ENDBRANCH  11  21
TORSDOF 7
ENDMDL
MODEL 4
REMARK VINA RESULT:      -6.4     28.324     31.260
REMARK  Name = 11867036
REMARK  9 active torsions:
REMARK  status: ('A' for Active; 'I' for Inactive)
REMARK    1  A    between atoms: O_3  and  C_13
REMARK    2  A    between atoms: O_4  and  C_18
REMARK    3  A    between atoms: N_7  and  C_25
REMARK    4  A    between atoms: C_8  and  C_16
REMARK    5  A    between atoms: C_10  and  C_18
REMARK    6  A    between atoms: C_10  and  C_19
REMARK    7  A    between atoms: C_11  and  C_21
REMARK    8  A    between atoms: C_21  and  C_22
REMARK    9  A    between atoms: C_23  and  C_24
REMARK                            x       y       z     vdW  Elec       q    Type
REMARK                         _______ _______ _______ _____ _____    ______ ____
ROOT
ATOM      1  S   UNL     1     -10.251 -12.544  20.216  0.00  0.00    -0.072 S 
ATOM      6  N   UNL     1     -10.771 -10.469  18.760  0.00  0.00    -0.243 NA
ATOM      8  C   UNL     1      -7.162 -10.672  17.415  0.00  0.00    -0.020 C 
ATOM      9  C   UNL     1      -7.110 -12.256  17.570  0.00  0.00    +0.011 C 
ATOM     10  C   UNL     1      -5.733 -12.960  17.259  0.00  0.00    +0.021 C 
ATOM     11  C   UNL     1      -8.697 -10.234  17.342  0.00  0.00    +0.053 C 
ATOM     12  C   UNL     1      -6.473 -10.260  16.089  0.00  0.00    +0.010 C 
ATOM     13  C   UNL     1      -5.162 -12.401  15.925  0.00  0.00    +0.123 C 
ATOM     14  C   UNL     1      -7.764 -12.719  18.904  0.00  0.00    +0.049 C 
ATOM     15  C   UNL     1      -5.096 -10.878  15.892  0.00  0.00    +0.032 C 
ATOM     16  C   UNL     1      -6.471  -9.930  18.586  0.00  0.00    +0.012 C 
ATOM     17  C   UNL     1      -9.506 -10.912  18.418  0.00  0.00    +0.056 A 
ATOM     19  C   UNL     1      -5.978 -14.483  17.055  0.00  0.00    +0.016 C 
ATOM     20  C   UNL     1      -9.076 -12.037  19.093  0.00  0.00    +0.014 A 
ATOM     23  C   UNL     1     -11.255 -11.248  19.703  0.00  0.00    +0.109 A 
ENDROOT
BRANCH  23  24
ATOM      2  S   UNL     1     -14.780 -11.432  21.567  0.00  0.00    -0.104 S 
ATOM     24  C   UNL     1     -12.595 -11.022  20.289  0.00  0.00    +0.014 A 
ATOM     26  C   UNL     1     -13.341  -9.817  20.181  0.00  0.00    +0.018 A 
ATOM     27  C   UNL     1     -13.255 -11.985  21.015  0.00  0.00    +0.055 A 
ATOM     28  C   UNL     1     -14.552  -9.903  20.832  0.00  0.00    +0.046 A 
ENDBRANCH  23  24
BRANCH  13   3
ATOM      3  O   UNL     1      -3.856 -12.923  15.680  0.00  0.00    -0.391 OA
ATOM     34  H   UNL     1      -3.953 -13.826  15.336  0.00  0.00    +0.210 HD
ENDBRANCH  13   3
BRANCH  10  18
ATOM     18  C   UNL     1      -4.689 -12.856  18.391  0.00  0.00    +0.165 C 
BRANCH  18   4
ATOM      4  O   UNL     1      -4.034 -14.100  18.491  0.00  0.00    -0.394 OA
ATOM     35  H   UNL     1      -4.669 -14.748  18.842  0.00  0.00    +0.209 HD
ENDBRANCH  18   4
ENDBRANCH  10  18
BRANCH  11  21
ATOM     21  C   UNL     1      -8.928  -8.717  17.338  0.00  0.00    +0.106 C 
BRANCH  21  22
ATOM      5  O   UNL     1      -9.508  -8.605  15.002  0.00  0.00    -0.275 OA
ATOM      7  N   UNL     1     -10.804  -7.453  16.587  0.00  0.00    -0.285 N 
ATOM     22  C   UNL     1      -9.761  -8.268  16.154  0.00  0.00    +0.218 C 
ATOM     36  H   UNL     1     -10.872  -7.260  17.583  0.00  0.00    +0.155 HD
BRANCH   7  25
ATOM     25  C   UNL     1     -11.799  -6.833  15.796  0.00  0.00    +0.033 A 
ATOM     29  C   UNL     1     -13.116  -7.245  15.920  0.00  0.00    +0.023 A 
ATOM     30  C   UNL     1     -11.436  -5.829  14.913  0.00  0.00    +0.023 A 
ATOM     31  C   UNL     1     -14.098  -6.633  15.141  0.00  0.00    +0.002 A 
ATOM     32  C   UNL     1     -12.419  -5.218  14.135  0.00  0.00    +0.002 A 
ATOM     33  C   UNL     1     -13.749  -5.620  14.247  0.00  0.00    +0.000 A 
ENDBRANCH   7  25
ENDBRANCH  21  22
ENDBRANCH  11  21
TORSDOF 7
ENDMDL
MODEL 5
REMARK VINA RESULT:      -6.3     24.534     27.421
REMARK  Name = 11867036
REMARK  9 active torsions:
REMARK  status: ('A' for Active; 'I' for Inactive)
REMARK    1  A    between atoms: O_3  and  C_13
REMARK    2  A    between atoms: O_4  and  C_18
REMARK    3  A    between atoms: N_7  and  C_25
REMARK    4  A    between atoms: C_8  and  C_16
REMARK    5  A    between atoms: C_10  and  C_18
REMARK    6  A    between atoms: C_10  and  C_19
REMARK    7  A    between atoms: C_11  and  C_21
REMARK    8  A    between atoms: C_21  and  C_22
REMARK    9  A    between atoms: C_23  and  C_24
REMARK                            x       y       z     vdW  Elec       q    Type
REMARK                         _______ _______ _______ _____ _____    ______ ____
ROOT
ATOM      1  S   UNL     1      -2.964 -14.886  11.629  0.00  0.00    -0.072 S 
ATOM      6  N   UNL     1      -3.458 -13.535  13.780  0.00  0.00    -0.243 NA
ATOM      8  C   UNL     1      -4.637 -10.633  11.531  0.00  0.00    -0.020 C 
ATOM      9  C   UNL     1      -5.144 -11.620  10.390  0.00  0.00    +0.011 C 
ATOM     10  C   UNL     1      -5.667 -10.961   9.055  0.00  0.00    +0.021 C 
ATOM     11  C   UNL     1      -4.579 -11.453  12.902  0.00  0.00    +0.053 C 
ATOM     12  C   UNL     1      -5.651  -9.473  11.699  0.00  0.00    +0.010 C 
ATOM     13  C   UNL     1      -6.632  -9.794   9.405  0.00  0.00    +0.123 C 
ATOM     14  C   UNL     1      -4.142 -12.789  10.161  0.00  0.00    +0.049 C 
ATOM     15  C   UNL     1      -6.035  -8.796  10.390  0.00  0.00    +0.032 C 
ATOM     16  C   UNL     1      -3.240 -10.034  11.232  0.00  0.00    +0.012 C 
ATOM     17  C   UNL     1      -3.906 -12.788  12.707  0.00  0.00    +0.056 A 
ATOM     19  C   UNL     1      -6.487 -12.015   8.257  0.00  0.00    +0.016 C 
ATOM     20  C   UNL     1      -3.737 -13.377  11.470  0.00  0.00    +0.014 A 
ATOM     23  C   UNL     1      -2.936 -14.656  13.331  0.00  0.00    +0.109 A 
ENDROOT
BRANCH  23  24
ATOM      2  S   UNL     1      -0.692 -17.311  15.294  0.00  0.00    -0.104 S 
ATOM     24  C   UNL     1      -2.357 -15.667  14.243  0.00  0.00    +0.014 A 
ATOM     26  C   UNL     1      -3.023 -16.233  15.365  0.00  0.00    +0.018 A 
ATOM     27  C   UNL     1      -1.084 -16.161  14.086  0.00  0.00    +0.055 A 
ATOM     28  C   UNL     1      -2.231 -17.145  16.027  0.00  0.00    +0.046 A 
ENDBRANCH  23  24
BRANCH  13   3
ATOM      3  O   UNL     1      -7.023  -9.094   8.223  0.00  0.00    -0.391 OA
ATOM     34  H   UNL     1      -6.466  -8.302   8.146  0.00  0.00    +0.210 HD
ENDBRANCH  13   3
BRANCH  10  18
ATOM     18  C   UNL     1      -4.555 -10.488   8.095  0.00  0.00    +0.165 C 
BRANCH  18   4
ATOM      4  O   UNL     1      -4.959 -10.795   6.780  0.00  0.00    -0.394 OA
ATOM     35  H   UNL     1      -5.779 -10.306   6.594  0.00  0.00    +0.209 HD
ENDBRANCH  18   4
ENDBRANCH  10  18
BRANCH  11  21
ATOM     21  C   UNL     1      -3.968 -10.683  14.080  0.00  0.00    +0.106 C 
BRANCH  21  22
ATOM      5  O   UNL     1      -5.777  -9.608  15.253  0.00  0.00    -0.275 OA
ATOM      7  N   UNL     1      -4.751 -11.510  16.174  0.00  0.00    -0.285 N 
ATOM     22  C   UNL     1      -4.949 -10.513  15.223  0.00  0.00    +0.218 C 
ATOM     36  H   UNL     1      -4.011 -12.187  16.004  0.00  0.00    +0.155 HD
BRANCH   7  25
ATOM     25  C   UNL     1      -5.459 -11.701  17.384  0.00  0.00    +0.033 A 
ATOM     29  C   UNL     1      -6.609 -12.471  17.380  0.00  0.00    +0.023 A 
ATOM     30  C   UNL     1      -4.987 -11.111  18.545  0.00  0.00    +0.023 A 
ATOM     31  C   UNL     1      -7.307 -12.660  18.574  0.00  0.00    +0.002 A 
ATOM     32  C   UNL     1      -5.685 -11.300  19.738  0.00  0.00    +0.002 A 
ATOM     33  C   UNL     1      -6.845 -12.074  19.752  0.00  0.00    +0.000 A 
ENDBRANCH   7  25
ENDBRANCH  21  22
ENDBRANCH  11  21
TORSDOF 7
ENDMDL
MODEL 6
REMARK VINA RESULT:      -6.2     37.930     40.556
REMARK  Name = 11867036
REMARK  9 active torsions:
REMARK  status: ('A' for Active; 'I' for Inactive)
REMARK    1  A    between atoms: O_3  and  C_13
REMARK    2  A    between atoms: O_4  and  C_18
REMARK    3  A    between atoms: N_7  and  C_25
REMARK    4  A    between atoms: C_8  and  C_16
REMARK    5  A    between atoms: C_10  and  C_18
REMARK    6  A    between atoms: C_10  and  C_19
REMARK    7  A    between atoms: C_11  and  C_21
REMARK    8  A    between atoms: C_21  and  C_22
REMARK    9  A    between atoms: C_23  and  C_24
REMARK                            x       y       z     vdW  Elec       q    Type
REMARK                         _______ _______ _______ _____ _____    ______ ____
ROOT
ATOM      1  S   UNL     1      -6.333   8.249  41.724  0.00  0.00    -0.072 S 
ATOM      6  N   UNL     1      -6.584   9.458  39.451  0.00  0.00    -0.243 NA
ATOM      8  C   UNL     1      -2.866   8.690  38.780  0.00  0.00    -0.020 C 
ATOM      9  C   UNL     1      -2.911   7.340  39.623  0.00  0.00    +0.011 C 
ATOM     10  C   UNL     1      -1.546   6.576  39.823  0.00  0.00    +0.021 C 
ATOM     11  C   UNL     1      -4.359   9.045  38.336  0.00  0.00    +0.053 C 
ATOM     12  C   UNL     1      -2.015   8.472  37.502  0.00  0.00    +0.010 C 
ATOM     13  C   UNL     1      -0.805   6.485  38.460  0.00  0.00    +0.123 C 
ATOM     14  C   UNL     1      -3.730   7.517  40.935  0.00  0.00    +0.049 C 
ATOM     15  C   UNL     1      -0.658   7.834  37.765  0.00  0.00    +0.032 C 
ATOM     16  C   UNL     1      -2.270   9.877  39.577  0.00  0.00    +0.012 C 
ATOM     17  C   UNL     1      -5.315   8.913  39.495  0.00  0.00    +0.056 A 
ATOM     19  C   UNL     1      -1.844   5.120  40.285  0.00  0.00    +0.016 C 
ATOM     20  C   UNL     1      -5.018   8.207  40.643  0.00  0.00    +0.014 A 
ATOM     23  C   UNL     1      -7.208   9.178  40.575  0.00  0.00    +0.109 A 
ENDROOT
BRANCH  23  24
ATOM      2  S   UNL     1     -10.645  10.562  42.058  0.00  0.00    -0.104 S 
ATOM     24  C   UNL     1      -8.590   9.637  40.835  0.00  0.00    +0.014 A 
ATOM     26  C   UNL     1      -9.638   9.661  39.874  0.00  0.00    +0.018 A 
ATOM     27  C   UNL     1      -8.996  10.100  42.064  0.00  0.00    +0.055 A 
ATOM     28  C   UNL     1     -10.814  10.142  40.407  0.00  0.00    +0.046 A 
ENDBRANCH  23  24
BRANCH  13   3
ATOM      3  O   UNL     1       0.492   5.913  38.629  0.00  0.00    -0.391 OA
ATOM     34  H   UNL     1       0.784   5.572  37.768  0.00  0.00    +0.210 HD
ENDBRANCH  13   3
BRANCH  10  18
ATOM     18  C   UNL     1      -0.628   7.176  40.910  0.00  0.00    +0.165 C 
BRANCH  18   4
ATOM      4  O   UNL     1       0.049   6.112  41.539  0.00  0.00    -0.394 OA
ATOM     35  H   UNL     1       0.847   6.471  41.964  0.00  0.00    +0.209 HD
ENDBRANCH  18   4
ENDBRANCH  10  18
BRANCH  11  21
ATOM     21  C   UNL     1      -4.511  10.401  37.635  0.00  0.00    +0.106 C 
BRANCH  21  22
ATOM      5  O   UNL     1      -4.542   9.791  35.305  0.00  0.00    -0.275 OA
ATOM      7  N   UNL     1      -6.443  10.759  36.287  0.00  0.00    -0.285 N 
ATOM     22  C   UNL     1      -5.140  10.269  36.263  0.00  0.00    +0.218 C 
ATOM     36  H   UNL     1      -6.793  11.134  37.166  0.00  0.00    +0.155 HD
BRANCH   7  25
ATOM     25  C   UNL     1      -7.364  10.815  35.215  0.00  0.00    +0.033 A 
ATOM     29  C   UNL     1      -7.239  11.817  34.267  0.00  0.00    +0.023 A 
ATOM     30  C   UNL     1      -8.372   9.868  35.136  0.00  0.00    +0.023 A 
ATOM     31  C   UNL     1      -8.146  11.872  33.209  0.00  0.00    +0.002 A 
ATOM     32  C   UNL     1      -9.279   9.924  34.078  0.00  0.00    +0.002 A 
ATOM     33  C   UNL     1      -9.167  10.926  33.115  0.00  0.00    +0.000 A 
ENDBRANCH   7  25
ENDBRANCH  21  22
ENDBRANCH  11  21
TORSDOF 7
ENDMDL
MODEL 7
REMARK VINA RESULT:      -6.2     24.145     28.240
REMARK  Name = 11867036
REMARK  9 active torsions:
REMARK  status: ('A' for Active; 'I' for Inactive)
REMARK    1  A    between atoms: O_3  and  C_13
REMARK    2  A    between atoms: O_4  and  C_18
REMARK    3  A    between atoms: N_7  and  C_25
REMARK    4  A    between atoms: C_8  and  C_16
REMARK    5  A    between atoms: C_10  and  C_18
REMARK    6  A    between atoms: C_10  and  C_19
REMARK    7  A    between atoms: C_11  and  C_21
REMARK    8  A    between atoms: C_21  and  C_22
REMARK    9  A    between atoms: C_23  and  C_24
REMARK                            x       y       z     vdW  Elec       q    Type
REMARK                         _______ _______ _______ _____ _____    ______ ____
ROOT
ATOM      1  S   UNL     1      -7.576  -9.847  12.758  0.00  0.00    -0.072 S 
ATOM      6  N   UNL     1      -5.107 -10.620  12.780  0.00  0.00    -0.243 NA
ATOM      8  C   UNL     1      -5.383 -10.959  16.610  0.00  0.00    -0.020 C 
ATOM      9  C   UNL     1      -6.931 -11.328  16.545  0.00  0.00    +0.011 C 
ATOM     10  C   UNL     1      -7.689 -11.481  17.920  0.00  0.00    +0.021 C 
ATOM     11  C   UNL     1      -4.738 -11.284  15.186  0.00  0.00    +0.053 C 
ATOM     12  C   UNL     1      -4.687 -11.845  17.675  0.00  0.00    +0.010 C 
ATOM     13  C   UNL     1      -6.835 -12.356  18.880  0.00  0.00    +0.123 C 
ATOM     14  C   UNL     1      -7.683 -10.442  15.509  0.00  0.00    +0.049 C 
ATOM     15  C   UNL     1      -5.398 -11.867  19.021  0.00  0.00    +0.032 C 
ATOM     16  C   UNL     1      -5.134  -9.471  16.961  0.00  0.00    +0.012 C 
ATOM     17  C   UNL     1      -5.594 -10.744  14.067  0.00  0.00    +0.056 A 
ATOM     19  C   UNL     1      -9.029 -12.232  17.679  0.00  0.00    +0.016 C 
ATOM     20  C   UNL     1      -6.918 -10.390  14.231  0.00  0.00    +0.014 A 
ATOM     23  C   UNL     1      -6.061 -10.149  12.006  0.00  0.00    +0.109 A 
ENDROOT
BRANCH  23  24
ATOM      2  S   UNL     1      -6.319  -9.466   8.082  0.00  0.00    -0.104 S 
ATOM     24  C   UNL     1      -5.843  -9.894  10.565  0.00  0.00    +0.014 A 
ATOM     26  C   UNL     1      -4.571  -9.759   9.943  0.00  0.00    +0.018 A 
ATOM     27  C   UNL     1      -6.880  -9.757   9.674  0.00  0.00    +0.055 A 
ATOM     28  C   UNL     1      -4.684  -9.523   8.590  0.00  0.00    +0.046 A 
ENDBRANCH  23  24
BRANCH  13   3
ATOM      3  O   UNL     1      -7.431 -12.408  20.177  0.00  0.00    -0.391 OA
ATOM     34  H   UNL     1      -6.862 -12.949  20.747  0.00  0.00    +0.210 HD
ENDBRANCH  13   3
BRANCH  10  18
ATOM     18  C   UNL     1      -8.077 -10.146  18.590  0.00  0.00    +0.165 C 
BRANCH  18   4
ATOM      4  O   UNL     1      -9.152 -10.398  19.466  0.00  0.00    -0.394 OA
ATOM     35  H   UNL     1      -9.920 -10.665  18.931  0.00  0.00    +0.209 HD
ENDBRANCH  18   4
ENDBRANCH  10  18
BRANCH  11  21
ATOM     21  C   UNL     1      -3.275 -10.849  15.033  0.00  0.00    +0.106 C 
BRANCH  21  22
ATOM      5  O   UNL     1      -1.162 -11.975  14.776  0.00  0.00    -0.275 OA
ATOM      7  N   UNL     1      -3.138 -13.011  14.043  0.00  0.00    -0.285 N 
ATOM     22  C   UNL     1      -2.377 -11.994  14.613  0.00  0.00    +0.218 C 
ATOM     36  H   UNL     1      -4.143 -12.869  13.971  0.00  0.00    +0.155 HD
BRANCH   7  25
ATOM     25  C   UNL     1      -2.679 -14.246  13.525  0.00  0.00    +0.033 A 
ATOM     29  C   UNL     1      -2.569 -14.405  12.154  0.00  0.00    +0.023 A 
ATOM     30  C   UNL     1      -2.351 -15.268  14.401  0.00  0.00    +0.023 A 
ATOM     31  C   UNL     1      -2.116 -15.622  11.644  0.00  0.00    +0.002 A 
ATOM     32  C   UNL     1      -1.898 -16.484  13.890  0.00  0.00    +0.002 A 
ATOM     33  C   UNL     1      -1.781 -16.661  12.512  0.00  0.00    +0.000 A 
ENDBRANCH   7  25
ENDBRANCH  21  22
ENDBRANCH  11  21
TORSDOF 7
ENDMDL
MODEL 8
REMARK VINA RESULT:      -6.2     38.206     41.420
REMARK  Name = 11867036
REMARK  9 active torsions:
REMARK  status: ('A' for Active; 'I' for Inactive)
REMARK    1  A    between atoms: O_3  and  C_13
REMARK    2  A    between atoms: O_4  and  C_18
REMARK    3  A    between atoms: N_7  and  C_25
REMARK    4  A    between atoms: C_8  and  C_16
REMARK    5  A    between atoms: C_10  and  C_18
REMARK    6  A    between atoms: C_10  and  C_19
REMARK    7  A    between atoms: C_11  and  C_21
REMARK    8  A    between atoms: C_21  and  C_22
REMARK    9  A    between atoms: C_23  and  C_24
REMARK                            x       y       z     vdW  Elec       q    Type
REMARK                         _______ _______ _______ _____ _____    ______ ____
ROOT
ATOM      1  S   UNL     1      -5.856   7.905  42.470  0.00  0.00    -0.072 S 
ATOM      6  N   UNL     1      -7.102   8.813  40.392  0.00  0.00    -0.243 NA
ATOM      8  C   UNL     1      -3.693   9.022  38.602  0.00  0.00    -0.020 C 
ATOM      9  C   UNL     1      -3.104   7.783  39.409  0.00  0.00    +0.011 C 
ATOM     10  C   UNL     1      -1.584   7.433  39.174  0.00  0.00    +0.021 C 
ATOM     11  C   UNL     1      -5.287   8.925  38.643  0.00  0.00    +0.053 C 
ATOM     12  C   UNL     1      -3.236   8.938  37.123  0.00  0.00    +0.010 C 
ATOM     13  C   UNL     1      -1.289   7.435  37.648  0.00  0.00    +0.123 C 
ATOM     14  C   UNL     1      -3.510   7.839  40.912  0.00  0.00    +0.049 C 
ATOM     15  C   UNL     1      -1.740   8.713  36.951  0.00  0.00    +0.032 C 
ATOM     16  C   UNL     1      -3.246  10.387  39.183  0.00  0.00    +0.012 C 
ATOM     17  C   UNL     1      -5.777   8.636  40.039  0.00  0.00    +0.056 A 
ATOM     19  C   UNL     1      -1.309   5.994  39.696  0.00  0.00    +0.016 C 
ATOM     20  C   UNL     1      -4.966   8.131  41.036  0.00  0.00    +0.014 A 
ATOM     23  C   UNL     1      -7.257   8.468  41.652  0.00  0.00    +0.109 A 
ENDROOT
BRANCH  23  24
ATOM      2  S   UNL     1     -11.098   8.423  42.737  0.00  0.00    -0.104 S 
ATOM     24  C   UNL     1      -8.570   8.557  42.329  0.00  0.00    +0.014 A 
ATOM     26  C   UNL     1      -8.771   8.984  43.670  0.00  0.00    +0.018 A 
ATOM     27  C   UNL     1      -9.748   8.222  41.703  0.00  0.00    +0.055 A 
ATOM     28  C   UNL     1     -10.103   8.960  44.022  0.00  0.00    +0.046 A 
ENDBRANCH  23  24
BRANCH  13   3
ATOM      3  O   UNL     1       0.106   7.249  37.406  0.00  0.00    -0.391 OA
ATOM     34  H   UNL     1       0.449   6.642  38.082  0.00  0.00    +0.210 HD
ENDBRANCH  13   3
BRANCH  10  18
ATOM     18  C   UNL     1      -0.592   8.344  39.929  0.00  0.00    +0.165 C 
BRANCH  18   4
ATOM      4  O   UNL     1       0.630   7.652  40.041  0.00  0.00    -0.394 OA
ATOM     35  H   UNL     1       1.062   7.934  40.866  0.00  0.00    +0.209 HD
ENDBRANCH  18   4
ENDBRANCH  10  18
BRANCH  11  21
ATOM     21  C   UNL     1      -6.016  10.129  38.031  0.00  0.00    +0.106 C 
BRANCH  21  22
ATOM      5  O   UNL     1      -6.810   9.562  35.829  0.00  0.00    -0.275 OA
ATOM      7  N   UNL     1      -8.292   9.536  37.651  0.00  0.00    -0.285 N 
ATOM     22  C   UNL     1      -7.064   9.710  37.020  0.00  0.00    +0.218 C 
ATOM     36  H   UNL     1      -8.340   9.709  38.652  0.00  0.00    +0.155 HD
BRANCH   7  25
ATOM     25  C   UNL     1      -9.518   9.149  37.060  0.00  0.00    +0.033 A 
ATOM     29  C   UNL     1     -10.182   8.035  37.545  0.00  0.00    +0.023 A 
ATOM     30  C   UNL     1     -10.028   9.893  36.008  0.00  0.00    +0.023 A 
ATOM     31  C   UNL     1     -11.392   7.654  36.963  0.00  0.00    +0.002 A 
ATOM     32  C   UNL     1     -11.237   9.511  35.427  0.00  0.00    +0.002 A 
ATOM     33  C   UNL     1     -11.918   8.392  35.903  0.00  0.00    +0.000 A 
ENDBRANCH   7  25
ENDBRANCH  21  22
ENDBRANCH  11  21
TORSDOF 7
ENDMDL
MODEL 9
REMARK VINA RESULT:      -6.1     24.685     30.278
REMARK  Name = 11867036
REMARK  9 active torsions:
REMARK  status: ('A' for Active; 'I' for Inactive)
REMARK    1  A    between atoms: O_3  and  C_13
REMARK    2  A    between atoms: O_4  and  C_18
REMARK    3  A    between atoms: N_7  and  C_25
REMARK    4  A    between atoms: C_8  and  C_16
REMARK    5  A    between atoms: C_10  and  C_18
REMARK    6  A    between atoms: C_10  and  C_19
REMARK    7  A    between atoms: C_11  and  C_21
REMARK    8  A    between atoms: C_21  and  C_22
REMARK    9  A    between atoms: C_23  and  C_24
REMARK                            x       y       z     vdW  Elec       q    Type
REMARK                         _______ _______ _______ _____ _____    ______ ____
ROOT
ATOM      1  S   UNL     1      18.164  -2.217  31.723  0.00  0.00    -0.072 S 
ATOM      6  N   UNL     1      18.531  -2.887  29.251  0.00  0.00    -0.243 NA
ATOM      8  C   UNL     1      16.011  -5.755  29.790  0.00  0.00    -0.020 C 
ATOM      9  C   UNL     1      15.187  -4.933  30.876  0.00  0.00    +0.011 C 
ATOM     10  C   UNL     1      14.008  -5.688  31.602  0.00  0.00    +0.021 C 
ATOM     11  C   UNL     1      16.826  -4.712  28.895  0.00  0.00    +0.053 C 
ATOM     12  C   UNL     1      15.029  -6.525  28.870  0.00  0.00    +0.010 C 
ATOM     13  C   UNL     1      13.152  -6.439  30.544  0.00  0.00    +0.123 C 
ATOM     14  C   UNL     1      16.132  -4.165  31.846  0.00  0.00    +0.049 C 
ATOM     15  C   UNL     1      13.980  -7.330  29.624  0.00  0.00    +0.032 C 
ATOM     16  C   UNL     1      16.996  -6.769  30.424  0.00  0.00    +0.012 C 
ATOM     17  C   UNL     1      17.526  -3.690  29.756  0.00  0.00    +0.056 A 
ATOM     19  C   UNL     1      13.083  -4.642  32.288  0.00  0.00    +0.016 C 
ATOM     20  C   UNL     1      17.185  -3.449  31.071  0.00  0.00    +0.014 A 
ATOM     23  C   UNL     1      18.947  -2.078  30.201  0.00  0.00    +0.109 A 
ENDROOT
BRANCH  23  24
ATOM      2  S   UNL     1      21.677   0.830  30.362  0.00  0.00    -0.104 S 
ATOM     24  C   UNL     1      20.032  -1.098  29.971  0.00  0.00    +0.014 A 
ATOM     26  C   UNL     1      20.817  -1.010  28.789  0.00  0.00    +0.018 A 
ATOM     27  C   UNL     1      20.391  -0.159  30.910  0.00  0.00    +0.055 A 
ATOM     28  C   UNL     1      21.752  -0.001  28.867  0.00  0.00    +0.046 A 
ENDBRANCH  23  24
BRANCH  13   3
ATOM      3  O   UNL     1      12.154  -7.237  31.179  0.00  0.00    -0.391 OA
ATOM     34  H   UNL     1      12.125  -8.097  30.729  0.00  0.00    +0.210 HD
ENDBRANCH  13   3
BRANCH  10  18
ATOM     18  C   UNL     1      14.457  -6.645  32.727  0.00  0.00    +0.165 C 
BRANCH  18   4
ATOM      4  O   UNL     1      13.473  -6.617  33.736  0.00  0.00    -0.394 OA
ATOM     35  H   UNL     1      13.919  -6.716  34.595  0.00  0.00    +0.209 HD
ENDBRANCH  18   4
ENDBRANCH  10  18
BRANCH  11  21
ATOM     21  C   UNL     1      17.791  -5.352  27.888  0.00  0.00    +0.106 C 
BRANCH  21  22
ATOM      5  O   UNL     1      16.853  -5.773  25.709  0.00  0.00    -0.275 OA
ATOM      7  N   UNL     1      17.883  -3.711  26.163  0.00  0.00    -0.285 N 
ATOM     22  C   UNL     1      17.442  -4.999  26.457  0.00  0.00    +0.218 C 
ATOM     36  H   UNL     1      18.367  -3.197  26.895  0.00  0.00    +0.155 HD
BRANCH   7  25
ATOM     25  C   UNL     1      17.753  -3.013  24.939  0.00  0.00    +0.033 A 
ATOM     29  C   UNL     1      18.302  -3.555  23.789  0.00  0.00    +0.023 A 
ATOM     30  C   UNL     1      17.080  -1.802  24.918  0.00  0.00    +0.023 A 
ATOM     31  C   UNL     1      18.173  -2.867  22.582  0.00  0.00    +0.002 A 
ATOM     32  C   UNL     1      16.951  -1.115  23.711  0.00  0.00    +0.002 A 
ATOM     33  C   UNL     1      17.498  -1.647  22.544  0.00  0.00    +0.000 A 
ENDBRANCH   7  25
ENDBRANCH  21  22
ENDBRANCH  11  21
TORSDOF 7
ENDMDL
MODEL 10
REMARK VINA RESULT:      -6.0      3.897      5.758
REMARK  Name = 11867036
REMARK  9 active torsions:
REMARK  status: ('A' for Active; 'I' for Inactive)
REMARK    1  A    between atoms: O_3  and  C_13
REMARK    2  A    between atoms: O_4  and  C_18
REMARK    3  A    between atoms: N_7  and  C_25
REMARK    4  A    between atoms: C_8  and  C_16
REMARK    5  A    between atoms: C_10  and  C_18
REMARK    6  A    between atoms: C_10  and  C_19
REMARK    7  A    between atoms: C_11  and  C_21
REMARK    8  A    between atoms: C_21  and  C_22
REMARK    9  A    between atoms: C_23  and  C_24
REMARK                            x       y       z     vdW  Elec       q    Type
REMARK                         _______ _______ _______ _____ _____    ______ ____
ROOT
ATOM      1  S   UNL     1       9.918   4.950   3.031  0.00  0.00    -0.072 S 
ATOM      6  N   UNL     1      12.297   5.940   3.260  0.00  0.00    -0.243 NA
ATOM      8  C   UNL     1      13.023   4.680  -0.312  0.00  0.00    -0.020 C 
ATOM      9  C   UNL     1      11.508   4.855  -0.766  0.00  0.00    +0.011 C 
ATOM     10  C   UNL     1      11.132   4.352  -2.213  0.00  0.00    +0.021 C 
ATOM     11  C   UNL     1      13.271   5.624   0.953  0.00  0.00    +0.053 C 
ATOM     12  C   UNL     1      13.961   5.141  -1.456  0.00  0.00    +0.010 C 
ATOM     13  C   UNL     1      12.194   4.864  -3.225  0.00  0.00    +0.123 C 
ATOM     14  C   UNL     1      10.523   4.374   0.340  0.00  0.00    +0.049 C 
ATOM     15  C   UNL     1      13.625   4.536  -2.812  0.00  0.00    +0.032 C 
ATOM     16  C   UNL     1      13.375   3.218   0.060  0.00  0.00    +0.012 C 
ATOM     17  C   UNL     1      12.161   5.478   1.964  0.00  0.00    +0.056 A 
ATOM     19  C   UNL     1       9.765   4.969  -2.625  0.00  0.00    +0.016 C 
ATOM     20  C   UNL     1      10.930   4.932   1.661  0.00  0.00    +0.014 A 
ATOM     23  C   UNL     1      11.181   5.707   3.915  0.00  0.00    +0.109 A 
ENDROOT
BRANCH  23  24
ATOM      2  S   UNL     1      10.131   6.129   7.743  0.00  0.00    -0.104 S 
ATOM     24  C   UNL     1      11.020   6.080   5.338  0.00  0.00    +0.014 A 
ATOM     26  C   UNL     1      11.801   7.051   6.022  0.00  0.00    +0.018 A 
ATOM     27  C   UNL     1      10.076   5.499   6.151  0.00  0.00    +0.055 A 
ATOM     28  C   UNL     1      11.422   7.179   7.340  0.00  0.00    +0.046 A 
ENDBRANCH  23  24
BRANCH  13   3
ATOM      3  O   UNL     1      11.956   4.320  -4.523  0.00  0.00    -0.391 OA
ATOM     34  H   UNL     1      11.985   5.049  -5.164  0.00  0.00    +0.210 HD
ENDBRANCH  13   3
BRANCH  10  18
ATOM     18  C   UNL     1      10.949   2.823  -2.333  0.00  0.00    +0.165 C 
BRANCH  18   4
ATOM      4  O   UNL     1       9.788   2.586  -3.097  0.00  0.00    -0.394 OA
ATOM     35  H   UNL     1       9.863   1.700  -3.493  0.00  0.00    +0.209 HD
ENDBRANCH  18   4
ENDBRANCH  10  18
BRANCH  11  21
ATOM     21  C   UNL     1      14.649   5.465   1.608  0.00  0.00    +0.106 C 
BRANCH  21  22
ATOM      5  O   UNL     1      15.291   7.781   1.447  0.00  0.00    -0.275 OA
ATOM      7  N   UNL     1      15.509   6.644   3.491  0.00  0.00    -0.285 N 
ATOM     22  C   UNL     1      15.183   6.777   2.144  0.00  0.00    +0.218 C 
ATOM     36  H   UNL     1      15.369   5.735   3.926  0.00  0.00    +0.155 HD
BRANCH   7  25
ATOM     25  C   UNL     1      16.037   7.635   4.353  0.00  0.00    +0.033 A 
ATOM     29  C   UNL     1      17.368   7.996   4.234  0.00  0.00    +0.023 A 
ATOM     30  C   UNL     1      15.211   8.221   5.298  0.00  0.00    +0.023 A 
ATOM     31  C   UNL     1      17.888   8.973   5.083  0.00  0.00    +0.002 A 
ATOM     32  C   UNL     1      15.731   9.197   6.147  0.00  0.00    +0.002 A 
ATOM     33  C   UNL     1      17.069   9.573   6.040  0.00  0.00    +0.000 A 
ENDBRANCH   7  25
ENDBRANCH  21  22
ENDBRANCH  11  21
TORSDOF 7
ENDMDL
