MODEL 1
REMARK VINA RESULT:      -6.9      0.000      0.000
REMARK  Name = 7673876
REMARK  5 active torsions:
REMARK  status: ('A' for Active; 'I' for Inactive)
REMARK    1  A    between atoms: S_1  and  N_6
REMARK    2  A    between atoms: S_1  and  C_21
REMARK    3  A    between atoms: N_8  and  C_19
REMARK    4  A    between atoms: C_26  and  C_28
REMARK    5  A    between atoms: C_33  and  C_34
REMARK                            x       y       z     vdW  Elec       q    Type
REMARK                         _______ _______ _______ _____ _____    ______ ____
ROOT
ATOM      4  O   UNL     1      -6.627 -10.135  14.333  0.00  0.00    -0.266 OA
ATOM      6  N   UNL     1      -2.691 -12.943  13.130  0.00  0.00    -0.176 NA
ATOM      7  N   UNL     1      -4.318 -10.488  14.279  0.00  0.00    -0.310 N 
ATOM     10  C   UNL     1      -2.997 -10.692  12.095  0.00  0.00    +0.025 C 
ATOM     11  C   UNL     1      -1.832 -10.894  14.248  0.00  0.00    +0.052 C 
ATOM     12  C   UNL     1      -1.832 -10.152  12.914  0.00  0.00    +0.017 C 
ATOM     13  C   UNL     1      -2.829 -12.200  11.845  0.00  0.00    +0.114 C 
ATOM     14  C   UNL     1      -1.607 -12.398  14.000  0.00  0.00    +0.119 C 
ATOM     15  C   UNL     1      -4.309 -10.360  12.816  0.00  0.00    +0.130 C 
ATOM     16  C   UNL     1      -3.132 -10.672  14.997  0.00  0.00    +0.026 A 
ATOM     17  C   UNL     1      -3.149 -10.672  16.341  0.00  0.00    +0.024 A 
ATOM     18  C   UNL     1      -5.561 -10.316  14.922  0.00  0.00    +0.273 A 
ATOM     19  C   UNL     1      -5.540 -10.345  16.419  0.00  0.00    +0.099 A 
ATOM     20  C   UNL     1      -4.379 -10.506  17.063  0.00  0.00    +0.030 A 
ENDROOT
BRANCH  19   8
ATOM      5  O   UNL     1      -7.179 -12.446  17.440  0.00  0.00    -0.270 OA
ATOM      8  N   UNL     1      -6.723 -10.194  17.079  0.00  0.00    -0.277 N 
ATOM     26  C   UNL     1      -7.477 -11.260  17.553  0.00  0.00    +0.248 C 
ATOM     35  H   UNL     1      -7.101  -9.253  17.076  0.00  0.00    +0.155 HD
BRANCH  26  28
ATOM     28  C   UNL     1      -8.728 -10.897  18.267  0.00  0.00    +0.037 A 
ATOM     29  C   UNL     1      -9.061 -11.582  19.418  0.00  0.00    +0.014 A 
ATOM     30  C   UNL     1      -9.517  -9.887  17.758  0.00  0.00    +0.014 A 
ATOM     31  C   UNL     1     -10.235 -11.242  20.089  0.00  0.00    +0.019 A 
ATOM     32  C   UNL     1     -10.692  -9.547  18.429  0.00  0.00    +0.019 A 
ATOM     33  C   UNL     1     -11.051 -10.225  19.594  0.00  0.00    +0.052 A 
BRANCH  33  34
ATOM      9  N   UNL     1     -13.233  -9.592  20.839  0.00  0.00    -0.191 NA
ATOM     34  C   UNL     1     -12.255  -9.876  20.281  0.00  0.00    +0.099 C 
ENDBRANCH  33  34
ENDBRANCH  26  28
ENDBRANCH  19   8
BRANCH   6   1
ATOM      1  S   UNL     1      -2.753 -14.649  13.008  0.00  0.00    +0.061 S 
ATOM      2  O   UNL     1      -1.404 -15.169  12.948  0.00  0.00    -0.153 OA
ATOM      3  O   UNL     1      -3.737 -15.014  12.009  0.00  0.00    -0.153 OA
BRANCH   1  21
ATOM     21  C   UNL     1      -3.416 -15.049  14.594  0.00  0.00    +0.105 A 
ATOM     22  C   UNL     1      -3.033 -16.228  15.211  0.00  0.00    +0.028 A 
ATOM     23  C   UNL     1      -4.309 -14.177  15.195  0.00  0.00    +0.028 A 
ATOM     24  C   UNL     1      -3.558 -16.544  16.465  0.00  0.00    +0.002 A 
ATOM     25  C   UNL     1      -4.833 -14.492  16.448  0.00  0.00    +0.002 A 
ATOM     27  C   UNL     1      -4.457 -15.676  17.084  0.00  0.00    +0.000 A 
ENDBRANCH   1  21
ENDBRANCH   6   1
TORSDOF 5
ENDMDL
MODEL 2
REMARK VINA RESULT:      -6.9      3.764      5.650
REMARK  Name = 7673876
REMARK  5 active torsions:
REMARK  status: ('A' for Active; 'I' for Inactive)
REMARK    1  A    between atoms: S_1  and  N_6
REMARK    2  A    between atoms: S_1  and  C_21
REMARK    3  A    between atoms: N_8  and  C_19
REMARK    4  A    between atoms: C_26  and  C_28
REMARK    5  A    between atoms: C_33  and  C_34
REMARK                            x       y       z     vdW  Elec       q    Type
REMARK                         _______ _______ _______ _____ _____    ______ ____
ROOT
ATOM      4  O   UNL     1      -7.412  -8.849  16.859  0.00  0.00    -0.266 OA
ATOM      6  N   UNL     1      -3.489 -11.711  15.743  0.00  0.00    -0.176 NA
ATOM      7  N   UNL     1      -6.458 -10.955  16.522  0.00  0.00    -0.310 N 
ATOM     10  C   UNL     1      -4.571 -11.874  17.987  0.00  0.00    +0.025 C 
ATOM     11  C   UNL     1      -5.430 -13.220  16.120  0.00  0.00    +0.052 C 
ATOM     12  C   UNL     1      -5.140 -13.238  17.619  0.00  0.00    +0.017 C 
ATOM     13  C   UNL     1      -3.270 -11.605  17.214  0.00  0.00    +0.114 C 
ATOM     14  C   UNL     1      -4.117 -13.006  15.345  0.00  0.00    +0.119 C 
ATOM     15  C   UNL     1      -5.638 -10.804  17.730  0.00  0.00    +0.130 C 
ATOM     16  C   UNL     1      -6.432 -12.135  15.772  0.00  0.00    +0.026 A 
ATOM     17  C   UNL     1      -7.274 -12.297  14.737  0.00  0.00    +0.024 A 
ATOM     18  C   UNL     1      -7.341  -9.899  16.219  0.00  0.00    +0.273 A 
ATOM     19  C   UNL     1      -8.247 -10.110  15.045  0.00  0.00    +0.099 A 
ATOM     20  C   UNL     1      -8.197 -11.262  14.367  0.00  0.00    +0.030 A 
ENDROOT
BRANCH  19   8
ATOM      5  O   UNL     1     -10.946  -9.839  15.932  0.00  0.00    -0.270 OA
ATOM      8  N   UNL     1      -9.107  -9.106  14.711  0.00  0.00    -0.277 N 
ATOM     26  C   UNL     1     -10.413  -9.030  15.177  0.00  0.00    +0.248 C 
ATOM     35  H   UNL     1      -8.782  -8.487  13.976  0.00  0.00    +0.155 HD
BRANCH  26  28
ATOM     28  C   UNL     1     -11.192  -7.850  14.722  0.00  0.00    +0.037 A 
ATOM     29  C   UNL     1     -11.919  -7.942  13.553  0.00  0.00    +0.014 A 
ATOM     30  C   UNL     1     -11.163  -6.700  15.482  0.00  0.00    +0.014 A 
ATOM     31  C   UNL     1     -12.649  -6.835  13.125  0.00  0.00    +0.019 A 
ATOM     32  C   UNL     1     -11.894  -5.591  15.054  0.00  0.00    +0.019 A 
ATOM     33  C   UNL     1     -12.636  -5.659  13.875  0.00  0.00    +0.052 A 
BRANCH  33  34
ATOM      9  N   UNL     1     -13.993  -3.599  13.080  0.00  0.00    -0.191 NA
ATOM     34  C   UNL     1     -13.385  -4.522  13.437  0.00  0.00    +0.099 C 
ENDBRANCH  33  34
ENDBRANCH  26  28
ENDBRANCH  19   8
BRANCH   6   1
ATOM      1  S   UNL     1      -2.189 -11.186  14.762  0.00  0.00    +0.061 S 
ATOM      2  O   UNL     1      -1.404 -12.334  14.361  0.00  0.00    -0.153 OA
ATOM      3  O   UNL     1      -1.564 -10.037  15.383  0.00  0.00    -0.153 OA
BRANCH   1  21
ATOM     21  C   UNL     1      -3.079 -10.620  13.346  0.00  0.00    +0.105 A 
ATOM     22  C   UNL     1      -2.411 -10.461  12.144  0.00  0.00    +0.028 A 
ATOM     23  C   UNL     1      -4.432 -10.344  13.462  0.00  0.00    +0.028 A 
ATOM     24  C   UNL     1      -3.114 -10.013  11.026  0.00  0.00    +0.002 A 
ATOM     25  C   UNL     1      -5.136  -9.896  12.344  0.00  0.00    +0.002 A 
ATOM     27  C   UNL     1      -4.477  -9.731  11.125  0.00  0.00    +0.000 A 
ENDBRANCH   1  21
ENDBRANCH   6   1
TORSDOF 5
ENDMDL
MODEL 3
REMARK VINA RESULT:      -6.9     27.441     30.343
REMARK  Name = 7673876
REMARK  5 active torsions:
REMARK  status: ('A' for Active; 'I' for Inactive)
REMARK    1  A    between atoms: S_1  and  N_6
REMARK    2  A    between atoms: S_1  and  C_21
REMARK    3  A    between atoms: N_8  and  C_19
REMARK    4  A    between atoms: C_26  and  C_28
REMARK    5  A    between atoms: C_33  and  C_34
REMARK                            x       y       z     vdW  Elec       q    Type
REMARK                         _______ _______ _______ _____ _____    ______ ____
ROOT
ATOM      4  O   UNL     1      13.578   8.844  15.347  0.00  0.00    -0.266 OA
ATOM      6  N   UNL     1      12.917   8.250  20.249  0.00  0.00    -0.176 NA
ATOM      7  N   UNL     1      14.355   9.025  17.543  0.00  0.00    -0.310 N 
ATOM     10  C   UNL     1      14.715   6.993  19.058  0.00  0.00    +0.025 C 
ATOM     11  C   UNL     1      15.170   9.249  19.916  0.00  0.00    +0.052 C 
ATOM     12  C   UNL     1      15.772   7.859  19.730  0.00  0.00    +0.017 C 
ATOM     13  C   UNL     1      13.457   6.896  19.936  0.00  0.00    +0.114 C 
ATOM     14  C   UNL     1      13.943   9.159  20.842  0.00  0.00    +0.119 C 
ATOM     15  C   UNL     1      14.416   7.563  17.666  0.00  0.00    +0.130 C 
ATOM     16  C   UNL     1      14.780   9.858  18.582  0.00  0.00    +0.026 A 
ATOM     17  C   UNL     1      14.824  11.190  18.406  0.00  0.00    +0.024 A 
ATOM     18  C   UNL     1      13.944   9.539  16.295  0.00  0.00    +0.273 A 
ATOM     19  C   UNL     1      13.986  11.029  16.148  0.00  0.00    +0.099 A 
ATOM     20  C   UNL     1      14.417  11.784  17.164  0.00  0.00    +0.030 A 
ENDROOT
BRANCH  19   8
ATOM      5  O   UNL     1      15.679  11.739  13.963  0.00  0.00    -0.270 OA
ATOM      8  N   UNL     1      13.585  11.566  14.961  0.00  0.00    -0.277 N 
ATOM     26  C   UNL     1      14.461  11.891  13.933  0.00  0.00    +0.248 C 
ATOM     35  H   UNL     1      12.614  11.855  14.925  0.00  0.00    +0.155 HD
BRANCH  26  28
ATOM     28  C   UNL     1      13.835  12.445  12.705  0.00  0.00    +0.037 A 
ATOM     29  C   UNL     1      12.461  12.561  12.652  0.00  0.00    +0.014 A 
ATOM     30  C   UNL     1      14.646  12.826  11.657  0.00  0.00    +0.014 A 
ATOM     31  C   UNL     1      11.872  13.081  11.500  0.00  0.00    +0.019 A 
ATOM     32  C   UNL     1      14.058  13.345  10.503  0.00  0.00    +0.019 A 
ATOM     33  C   UNL     1      12.671  13.473  10.425  0.00  0.00    +0.052 A 
BRANCH  33  34
ATOM      9  N   UNL     1      11.580  14.438   8.282  0.00  0.00    -0.191 NA
ATOM     34  C   UNL     1      12.068  14.005   9.243  0.00  0.00    +0.099 C 
ENDBRANCH  33  34
ENDBRANCH  26  28
ENDBRANCH  19   8
BRANCH   6   1
ATOM      1  S   UNL     1      11.380   8.276  21.002  0.00  0.00    +0.061 S 
ATOM      2  O   UNL     1      11.375   7.336  22.102  0.00  0.00    -0.153 OA
ATOM      3  O   UNL     1      10.354   8.233  19.981  0.00  0.00    -0.153 OA
BRANCH   1  21
ATOM     21  C   UNL     1      11.399   9.905  21.685  0.00  0.00    +0.105 A 
ATOM     22  C   UNL     1      11.066  10.085  23.017  0.00  0.00    +0.028 A 
ATOM     23  C   UNL     1      11.745  10.974  20.876  0.00  0.00    +0.028 A 
ATOM     24  C   UNL     1      11.081  11.372  23.556  0.00  0.00    +0.002 A 
ATOM     25  C   UNL     1      11.760  12.261  21.415  0.00  0.00    +0.002 A 
ATOM     27  C   UNL     1      11.428  12.460  22.755  0.00  0.00    +0.000 A 
ENDBRANCH   1  21
ENDBRANCH   6   1
TORSDOF 5
ENDMDL
MODEL 4
REMARK VINA RESULT:      -6.6      5.673      9.276
REMARK  Name = 7673876
REMARK  5 active torsions:
REMARK  status: ('A' for Active; 'I' for Inactive)
REMARK    1  A    between atoms: S_1  and  N_6
REMARK    2  A    between atoms: S_1  and  C_21
REMARK    3  A    between atoms: N_8  and  C_19
REMARK    4  A    between atoms: C_26  and  C_28
REMARK    5  A    between atoms: C_33  and  C_34
REMARK                            x       y       z     vdW  Elec       q    Type
REMARK                         _______ _______ _______ _____ _____    ______ ____
ROOT
ATOM      4  O   UNL     1      -4.911 -12.309   8.420  0.00  0.00    -0.266 OA
ATOM      6  N   UNL     1      -4.803 -11.533  13.341  0.00  0.00    -0.176 NA
ATOM      7  N   UNL     1      -3.848 -11.479  10.328  0.00  0.00    -0.310 N 
ATOM     10  C   UNL     1      -3.084 -12.981  12.255  0.00  0.00    +0.025 C 
ATOM     11  C   UNL     1      -2.726 -10.554  12.386  0.00  0.00    +0.052 C 
ATOM     12  C   UNL     1      -2.028 -11.908  12.485  0.00  0.00    +0.017 C 
ATOM     13  C   UNL     1      -4.188 -12.891  13.321  0.00  0.00    +0.114 C 
ATOM     14  C   UNL     1      -3.793 -10.444  13.490  0.00  0.00    +0.119 C 
ATOM     15  C   UNL     1      -3.632 -12.842  10.830  0.00  0.00    +0.130 C 
ATOM     16  C   UNL     1      -3.358 -10.366  11.019  0.00  0.00    +0.026 A 
ATOM     17  C   UNL     1      -3.466  -9.137  10.486  0.00  0.00    +0.024 A 
ATOM     18  C   UNL     1      -4.479 -11.358   9.073  0.00  0.00    +0.273 A 
ATOM     19  C   UNL     1      -4.600  -9.970   8.524  0.00  0.00    +0.099 A 
ATOM     20  C   UNL     1      -4.101  -8.938   9.214  0.00  0.00    +0.030 A 
ENDROOT
BRANCH  19   8
ATOM      5  O   UNL     1      -7.375  -9.449   8.105  0.00  0.00    -0.270 OA
ATOM      8  N   UNL     1      -5.216  -9.810   7.318  0.00  0.00    -0.277 N 
ATOM     26  C   UNL     1      -6.575  -9.558   7.180  0.00  0.00    +0.248 C 
ATOM     35  H   UNL     1      -4.645 -10.034   6.511  0.00  0.00    +0.155 HD
BRANCH  26  28
ATOM     28  C   UNL     1      -7.059  -9.390   5.786  0.00  0.00    +0.037 A 
ATOM     29  C   UNL     1      -7.601  -8.178   5.410  0.00  0.00    +0.014 A 
ATOM     30  C   UNL     1      -6.954 -10.451   4.911  0.00  0.00    +0.014 A 
ATOM     31  C   UNL     1      -8.057  -8.020   4.102  0.00  0.00    +0.019 A 
ATOM     32  C   UNL     1      -7.410 -10.294   3.602  0.00  0.00    +0.019 A 
ATOM     33  C   UNL     1      -7.962  -9.078   3.198  0.00  0.00    +0.052 A 
BRANCH  33  34
ATOM      9  N   UNL     1      -8.811  -8.786   0.767  0.00  0.00    -0.191 NA
ATOM     34  C   UNL     1      -8.430  -8.917   1.856  0.00  0.00    +0.099 C 
ENDBRANCH  33  34
ENDBRANCH  26  28
ENDBRANCH  19   8
BRANCH   6   1
ATOM      1  S   UNL     1      -6.211 -11.374  14.300  0.00  0.00    +0.061 S 
ATOM      2  O   UNL     1      -7.122 -12.455  13.988  0.00  0.00    -0.153 OA
ATOM      3  O   UNL     1      -6.652  -9.995  14.264  0.00  0.00    -0.153 OA
BRANCH   1  21
ATOM     21  C   UNL     1      -5.532 -11.686  15.900  0.00  0.00    +0.105 A 
ATOM     22  C   UNL     1      -5.511 -12.982  16.387  0.00  0.00    +0.028 A 
ATOM     23  C   UNL     1      -5.032 -10.628  16.641  0.00  0.00    +0.028 A 
ATOM     24  C   UNL     1      -4.975 -13.228  17.651  0.00  0.00    +0.002 A 
ATOM     25  C   UNL     1      -4.496 -10.873  17.905  0.00  0.00    +0.002 A 
ATOM     27  C   UNL     1      -4.467 -12.174  18.410  0.00  0.00    +0.000 A 
ENDBRANCH   1  21
ENDBRANCH   6   1
TORSDOF 5
ENDMDL
MODEL 5
REMARK VINA RESULT:      -6.5     30.558     33.273
REMARK  Name = 7673876
REMARK  5 active torsions:
REMARK  status: ('A' for Active; 'I' for Inactive)
REMARK    1  A    between atoms: S_1  and  N_6
REMARK    2  A    between atoms: S_1  and  C_21
REMARK    3  A    between atoms: N_8  and  C_19
REMARK    4  A    between atoms: C_26  and  C_28
REMARK    5  A    between atoms: C_33  and  C_34
REMARK                            x       y       z     vdW  Elec       q    Type
REMARK                         _______ _______ _______ _____ _____    ______ ____
ROOT
ATOM      4  O   UNL     1      21.107   3.042  20.859  0.00  0.00    -0.266 OA
ATOM      6  N   UNL     1      25.005   3.470  23.932  0.00  0.00    -0.176 NA
ATOM      7  N   UNL     1      23.348   3.580  21.243  0.00  0.00    -0.310 N 
ATOM     10  C   UNL     1      25.073   1.858  22.027  0.00  0.00    +0.025 C 
ATOM     11  C   UNL     1      25.754   4.191  21.673  0.00  0.00    +0.052 C 
ATOM     12  C   UNL     1      26.078   2.746  21.305  0.00  0.00    +0.017 C 
ATOM     13  C   UNL     1      25.185   2.040  23.549  0.00  0.00    +0.114 C 
ATOM     14  C   UNL     1      25.922   4.387  23.191  0.00  0.00    +0.119 C 
ATOM     15  C   UNL     1      23.666   2.170  21.502  0.00  0.00    +0.130 C 
ATOM     16  C   UNL     1      24.345   4.560  21.246  0.00  0.00    +0.026 A 
ATOM     17  C   UNL     1      24.053   5.823  20.893  0.00  0.00    +0.024 A 
ATOM     18  C   UNL     1      22.014   3.874  20.892  0.00  0.00    +0.273 A 
ATOM     19  C   UNL     1      21.725   5.298  20.528  0.00  0.00    +0.099 A 
ATOM     20  C   UNL     1      22.715   6.197  20.529  0.00  0.00    +0.030 A 
ENDROOT
BRANCH  19   8
ATOM      5  O   UNL     1      19.787   6.484  22.255  0.00  0.00    -0.270 OA
ATOM      8  N   UNL     1      20.444   5.626  20.196  0.00  0.00    -0.277 N 
ATOM     26  C   UNL     1      19.546   6.203  21.084  0.00  0.00    +0.248 C 
ATOM     35  H   UNL     1      20.133   5.286  19.292  0.00  0.00    +0.155 HD
BRANCH  26  28
ATOM     28  C   UNL     1      18.201   6.510  20.532  0.00  0.00    +0.037 A 
ATOM     29  C   UNL     1      17.782   5.851  19.395  0.00  0.00    +0.014 A 
ATOM     30  C   UNL     1      17.416   7.445  21.173  0.00  0.00    +0.014 A 
ATOM     31  C   UNL     1      16.520   6.139  18.876  0.00  0.00    +0.019 A 
ATOM     32  C   UNL     1      16.154   7.734  20.654  0.00  0.00    +0.019 A 
ATOM     33  C   UNL     1      15.706   7.081  19.505  0.00  0.00    +0.052 A 
BRANCH  33  34
ATOM      9  N   UNL     1      13.362   7.618  18.540  0.00  0.00    -0.191 NA
ATOM     34  C   UNL     1      14.412   7.377  18.973  0.00  0.00    +0.099 C 
ENDBRANCH  33  34
ENDBRANCH  26  28
ENDBRANCH  19   8
BRANCH   6   1
ATOM      1  S   UNL     1      24.853   3.773  25.610  0.00  0.00    +0.061 S 
ATOM      2  O   UNL     1      26.158   4.077  26.156  0.00  0.00    -0.153 OA
ATOM      3  O   UNL     1      24.020   2.747  26.200  0.00  0.00    -0.153 OA
BRANCH   1  21
ATOM     21  C   UNL     1      23.922   5.272  25.570  0.00  0.00    +0.105 A 
ATOM     22  C   UNL     1      22.878   5.399  24.669  0.00  0.00    +0.028 A 
ATOM     23  C   UNL     1      24.251   6.298  26.442  0.00  0.00    +0.028 A 
ATOM     24  C   UNL     1      22.143   6.583  24.637  0.00  0.00    +0.002 A 
ATOM     25  C   UNL     1      23.516   7.482  26.411  0.00  0.00    +0.002 A 
ATOM     27  C   UNL     1      22.461   7.625  25.509  0.00  0.00    +0.000 A 
ENDBRANCH   1  21
ENDBRANCH   6   1
TORSDOF 5
ENDMDL
MODEL 6
REMARK VINA RESULT:      -6.5     26.394     29.608
REMARK  Name = 7673876
REMARK  5 active torsions:
REMARK  status: ('A' for Active; 'I' for Inactive)
REMARK    1  A    between atoms: S_1  and  N_6
REMARK    2  A    between atoms: S_1  and  C_21
REMARK    3  A    between atoms: N_8  and  C_19
REMARK    4  A    between atoms: C_26  and  C_28
REMARK    5  A    between atoms: C_33  and  C_34
REMARK                            x       y       z     vdW  Elec       q    Type
REMARK                         _______ _______ _______ _____ _____    ______ ____
ROOT
ATOM      4  O   UNL     1       9.714   6.816   0.995  0.00  0.00    -0.266 OA
ATOM      6  N   UNL     1      11.052   7.917   5.667  0.00  0.00    -0.176 NA
ATOM      7  N   UNL     1       9.646   6.379   3.290  0.00  0.00    -0.310 N 
ATOM     10  C   UNL     1       8.653   8.020   4.985  0.00  0.00    +0.025 C 
ATOM     11  C   UNL     1       9.607   5.895   5.762  0.00  0.00    +0.052 C 
ATOM     12  C   UNL     1       8.360   6.773   5.808  0.00  0.00    +0.017 C 
ATOM     13  C   UNL     1       9.846   8.789   5.574  0.00  0.00    +0.114 C 
ATOM     14  C   UNL     1      10.789   6.645   6.404  0.00  0.00    +0.119 C 
ATOM     15  C   UNL     1       8.882   7.611   3.525  0.00  0.00    +0.130 C 
ATOM     16  C   UNL     1       9.944   5.500   4.336  0.00  0.00    +0.026 A 
ATOM     17  C   UNL     1      10.543   4.324   4.081  0.00  0.00    +0.024 A 
ATOM     18  C   UNL     1       9.971   6.081   1.950  0.00  0.00    +0.273 A 
ATOM     19  C   UNL     1      10.658   4.772   1.712  0.00  0.00    +0.099 A 
ATOM     20  C   UNL     1      10.907   3.957   2.742  0.00  0.00    +0.030 A 
ENDROOT
BRANCH  19   8
ATOM      5  O   UNL     1      13.271   4.094   0.785  0.00  0.00    -0.270 OA
ATOM      8  N   UNL     1      11.000   4.453   0.431  0.00  0.00    -0.277 N 
ATOM     26  C   UNL     1      12.294   4.131   0.042  0.00  0.00    +0.248 C 
ATOM     35  H   UNL     1      10.275   4.609  -0.260  0.00  0.00    +0.155 HD
BRANCH  26  28
ATOM     28  C   UNL     1      12.468   3.789  -1.393  0.00  0.00    +0.037 A 
ATOM     29  C   UNL     1      13.387   4.497  -2.140  0.00  0.00    +0.014 A 
ATOM     30  C   UNL     1      11.706   2.775  -1.933  0.00  0.00    +0.014 A 
ATOM     31  C   UNL     1      13.551   4.177  -3.487  0.00  0.00    +0.019 A 
ATOM     32  C   UNL     1      11.869   2.455  -3.282  0.00  0.00    +0.019 A 
ATOM     33  C   UNL     1      12.791   3.156  -4.058  0.00  0.00    +0.052 A 
BRANCH  33  34
ATOM      9  N   UNL     1      13.093   2.561  -6.562  0.00  0.00    -0.191 NA
ATOM     34  C   UNL     1      12.958   2.827  -5.440  0.00  0.00    +0.099 C 
ENDBRANCH  33  34
ENDBRANCH  26  28
ENDBRANCH  19   8
BRANCH   6   1
ATOM      1  S   UNL     1      12.513   8.714   6.065  0.00  0.00    +0.061 S 
ATOM      2  O   UNL     1      12.947   8.281   7.376  0.00  0.00    -0.153 OA
ATOM      3  O   UNL     1      12.382  10.122   5.752  0.00  0.00    -0.153 OA
BRANCH   1  21
ATOM     21  C   UNL     1      13.595   7.991   4.872  0.00  0.00    +0.105 A 
ATOM     22  C   UNL     1      14.948   7.900   5.151  0.00  0.00    +0.028 A 
ATOM     23  C   UNL     1      13.072   7.528   3.675  0.00  0.00    +0.028 A 
ATOM     24  C   UNL     1      15.803   7.329   4.208  0.00  0.00    +0.002 A 
ATOM     25  C   UNL     1      13.926   6.957   2.732  0.00  0.00    +0.002 A 
ATOM     27  C   UNL     1      15.292   6.857   2.999  0.00  0.00    +0.000 A 
ENDBRANCH   1  21
ENDBRANCH   6   1
TORSDOF 5
ENDMDL
MODEL 7
REMARK VINA RESULT:      -6.5      4.536      8.231
REMARK  Name = 7673876
REMARK  5 active torsions:
REMARK  status: ('A' for Active; 'I' for Inactive)
REMARK    1  A    between atoms: S_1  and  N_6
REMARK    2  A    between atoms: S_1  and  C_21
REMARK    3  A    between atoms: N_8  and  C_19
REMARK    4  A    between atoms: C_26  and  C_28
REMARK    5  A    between atoms: C_33  and  C_34
REMARK                            x       y       z     vdW  Elec       q    Type
REMARK                         _______ _______ _______ _____ _____    ______ ____
ROOT
ATOM      4  O   UNL     1      -5.244 -12.518  10.272  0.00  0.00    -0.266 OA
ATOM      6  N   UNL     1      -3.597 -12.084  14.954  0.00  0.00    -0.176 NA
ATOM      7  N   UNL     1      -3.493 -12.274  11.800  0.00  0.00    -0.310 N 
ATOM     10  C   UNL     1      -2.933 -14.046  13.561  0.00  0.00    +0.025 C 
ATOM     11  C   UNL     1      -1.616 -11.976  13.454  0.00  0.00    +0.052 C 
ATOM     12  C   UNL     1      -1.516 -13.499  13.456  0.00  0.00    +0.017 C 
ATOM     13  C   UNL     1      -3.601 -13.572  14.861  0.00  0.00    +0.114 C 
ATOM     14  C   UNL     1      -2.234 -11.498  14.781  0.00  0.00    +0.119 C 
ATOM     15  C   UNL     1      -3.721 -13.632  12.312  0.00  0.00    +0.130 C 
ATOM     16  C   UNL     1      -2.443 -11.485  12.280  0.00  0.00    +0.026 A 
ATOM     17  C   UNL     1      -2.183 -10.293  11.718  0.00  0.00    +0.024 A 
ATOM     18  C   UNL     1      -4.319 -11.851  10.738  0.00  0.00    +0.273 A 
ATOM     19  C   UNL     1      -4.009 -10.507  10.155  0.00  0.00    +0.099 A 
ATOM     20  C   UNL     1      -2.984  -9.796  10.635  0.00  0.00    +0.030 A 
ENDROOT
BRANCH  19   8
ATOM      5  O   UNL     1      -6.286  -8.804  10.402  0.00  0.00    -0.270 OA
ATOM      8  N   UNL     1      -4.793 -10.057   9.134  0.00  0.00    -0.277 N 
ATOM     26  C   UNL     1      -5.891  -9.227   9.319  0.00  0.00    +0.248 C 
ATOM     35  H   UNL     1      -4.614 -10.486   8.233  0.00  0.00    +0.155 HD
BRANCH  26  28
ATOM     28  C   UNL     1      -6.608  -8.823   8.083  0.00  0.00    +0.037 A 
ATOM     29  C   UNL     1      -6.339  -9.491   6.907  0.00  0.00    +0.014 A 
ATOM     30  C   UNL     1      -7.521  -7.790   8.150  0.00  0.00    +0.014 A 
ATOM     31  C   UNL     1      -7.011  -9.112   5.746  0.00  0.00    +0.019 A 
ATOM     32  C   UNL     1      -8.194  -7.410   6.989  0.00  0.00    +0.019 A 
ATOM     33  C   UNL     1      -7.938  -8.070   5.787  0.00  0.00    +0.052 A 
BRANCH  33  34
ATOM      9  N   UNL     1      -9.188  -7.363   3.630  0.00  0.00    -0.191 NA
ATOM     34  C   UNL     1      -8.628  -7.680   4.597  0.00  0.00    +0.099 C 
ENDBRANCH  33  34
ENDBRANCH  26  28
ENDBRANCH  19   8
BRANCH   6   1
ATOM      1  S   UNL     1      -4.532 -11.419  16.223  0.00  0.00    +0.061 S 
ATOM      2  O   UNL     1      -3.836 -10.278  16.778  0.00  0.00    -0.153 OA
ATOM      3  O   UNL     1      -5.000 -12.492  17.075  0.00  0.00    -0.153 OA
BRANCH   1  21
ATOM     21  C   UNL     1      -5.914 -10.814  15.305  0.00  0.00    +0.105 A 
ATOM     22  C   UNL     1      -5.855 -10.801  13.921  0.00  0.00    +0.028 A 
ATOM     23  C   UNL     1      -7.033 -10.361  15.985  0.00  0.00    +0.028 A 
ATOM     24  C   UNL     1      -6.947 -10.323  13.197  0.00  0.00    +0.002 A 
ATOM     25  C   UNL     1      -8.124  -9.883  15.260  0.00  0.00    +0.002 A 
ATOM     27  C   UNL     1      -8.082  -9.864  13.866  0.00  0.00    +0.000 A 
ENDBRANCH   1  21
ENDBRANCH   6   1
TORSDOF 5
ENDMDL
MODEL 8
REMARK VINA RESULT:      -6.5     26.744     29.208
REMARK  Name = 7673876
REMARK  5 active torsions:
REMARK  status: ('A' for Active; 'I' for Inactive)
REMARK    1  A    between atoms: S_1  and  N_6
REMARK    2  A    between atoms: S_1  and  C_21
REMARK    3  A    between atoms: N_8  and  C_19
REMARK    4  A    between atoms: C_26  and  C_28
REMARK    5  A    between atoms: C_33  and  C_34
REMARK                            x       y       z     vdW  Elec       q    Type
REMARK                         _______ _______ _______ _____ _____    ______ ____
ROOT
ATOM      4  O   UNL     1      10.198   4.895   3.277  0.00  0.00    -0.266 OA
ATOM      6  N   UNL     1      10.850   8.768   6.342  0.00  0.00    -0.176 NA
ATOM      7  N   UNL     1      11.562   6.181   4.671  0.00  0.00    -0.310 N 
ATOM     10  C   UNL     1      11.134   6.435   7.182  0.00  0.00    +0.025 C 
ATOM     11  C   UNL     1      13.035   7.596   6.147  0.00  0.00    +0.052 C 
ATOM     12  C   UNL     1      12.639   6.646   7.274  0.00  0.00    +0.017 C 
ATOM     13  C   UNL     1      10.390   7.770   7.348  0.00  0.00    +0.114 C 
ATOM     14  C   UNL     1      12.332   8.952   6.346  0.00  0.00    +0.119 C 
ATOM     15  C   UNL     1      10.808   5.744   5.852  0.00  0.00    +0.130 C 
ATOM     16  C   UNL     1      12.681   7.012   4.791  0.00  0.00    +0.026 A 
ATOM     17  C   UNL     1      13.424   7.307   3.711  0.00  0.00    +0.024 A 
ATOM     18  C   UNL     1      11.164   5.642   3.430  0.00  0.00    +0.273 A 
ATOM     19  C   UNL     1      12.005   6.014   2.248  0.00  0.00    +0.099 A 
ATOM     20  C   UNL     1      13.076   6.797   2.415  0.00  0.00    +0.030 A 
ENDROOT
BRANCH  19   8
ATOM      5  O   UNL     1      12.909   3.570   1.082  0.00  0.00    -0.270 OA
ATOM      8  N   UNL     1      11.646   5.523   1.027  0.00  0.00    -0.277 N 
ATOM     26  C   UNL     1      12.122   4.323   0.514  0.00  0.00    +0.248 C 
ATOM     35  H   UNL     1      11.118   6.163   0.444  0.00  0.00    +0.155 HD
BRANCH  26  28
ATOM     28  C   UNL     1      11.599   3.943  -0.823  0.00  0.00    +0.037 A 
ATOM     29  C   UNL     1      10.558   4.669  -1.363  0.00  0.00    +0.014 A 
ATOM     30  C   UNL     1      12.170   2.874  -1.483  0.00  0.00    +0.014 A 
ATOM     31  C   UNL     1      10.065   4.312  -2.617  0.00  0.00    +0.019 A 
ATOM     32  C   UNL     1      11.678   2.517  -2.738  0.00  0.00    +0.019 A 
ATOM     33  C   UNL     1      10.626   3.235  -3.305  0.00  0.00    +0.052 A 
BRANCH  33  34
ATOM      9  N   UNL     1       9.711   2.569  -5.636  0.00  0.00    -0.191 NA
ATOM     34  C   UNL     1      10.121   2.868  -4.592  0.00  0.00    +0.099 C 
ENDBRANCH  33  34
ENDBRANCH  26  28
ENDBRANCH  19   8
BRANCH   6   1
ATOM      1  S   UNL     1       9.927  10.207   6.251  0.00  0.00    +0.061 S 
ATOM      2  O   UNL     1      10.783  11.294   5.827  0.00  0.00    -0.153 OA
ATOM      3  O   UNL     1       9.115  10.321   7.445  0.00  0.00    -0.153 OA
BRANCH   1  21
ATOM     21  C   UNL     1       8.859   9.804   4.905  0.00  0.00    +0.105 A 
ATOM     22  C   UNL     1       9.275   8.879   3.962  0.00  0.00    +0.028 A 
ATOM     23  C   UNL     1       7.621  10.421   4.814  0.00  0.00    +0.028 A 
ATOM     24  C   UNL     1       8.430   8.561   2.898  0.00  0.00    +0.002 A 
ATOM     25  C   UNL     1       6.777  10.103   3.750  0.00  0.00    +0.002 A 
ATOM     27  C   UNL     1       7.181   9.173   2.792  0.00  0.00    +0.000 A 
ENDBRANCH   1  21
ENDBRANCH   6   1
TORSDOF 5
ENDMDL
MODEL 9
REMARK VINA RESULT:      -6.4     21.899     24.713
REMARK  Name = 7673876
REMARK  5 active torsions:
REMARK  status: ('A' for Active; 'I' for Inactive)
REMARK    1  A    between atoms: S_1  and  N_6
REMARK    2  A    between atoms: S_1  and  C_21
REMARK    3  A    between atoms: N_8  and  C_19
REMARK    4  A    between atoms: C_26  and  C_28
REMARK    5  A    between atoms: C_33  and  C_34
REMARK                            x       y       z     vdW  Elec       q    Type
REMARK                         _______ _______ _______ _____ _____    ______ ____
ROOT
ATOM      4  O   UNL     1      -9.572   9.330  17.747  0.00  0.00    -0.266 OA
ATOM      6  N   UNL     1     -14.302   8.694  19.178  0.00  0.00    -0.176 NA
ATOM      7  N   UNL     1     -11.315   9.725  19.252  0.00  0.00    -0.310 N 
ATOM     10  C   UNL     1     -12.431   7.859  20.603  0.00  0.00    +0.025 C 
ATOM     11  C   UNL     1     -13.210  10.175  20.850  0.00  0.00    +0.052 C 
ATOM     12  C   UNL     1     -12.710   8.956  21.621  0.00  0.00    +0.017 C 
ATOM     13  C   UNL     1     -13.712   7.493  19.837  0.00  0.00    +0.114 C 
ATOM     14  C   UNL     1     -14.524   9.824  20.128  0.00  0.00    +0.119 C 
ATOM     15  C   UNL     1     -11.302   8.318  19.673  0.00  0.00    +0.130 C 
ATOM     16  C   UNL     1     -12.171  10.653  19.853  0.00  0.00    +0.026 A 
ATOM     17  C   UNL     1     -12.087  11.956  19.534  0.00  0.00    +0.024 A 
ATOM     18  C   UNL     1     -10.357  10.108  18.290  0.00  0.00    +0.273 A 
ATOM     19  C   UNL     1     -10.311  11.564  17.946  0.00  0.00    +0.099 A 
ATOM     20  C   UNL     1     -11.138  12.417  18.560  0.00  0.00    +0.030 A 
ENDROOT
BRANCH  19   8
ATOM      5  O   UNL     1      -9.169  14.171  17.732  0.00  0.00    -0.270 OA
ATOM      8  N   UNL     1      -9.407  11.973  17.011  0.00  0.00    -0.277 N 
ATOM     26  C   UNL     1      -8.887  13.260  16.959  0.00  0.00    +0.248 C 
ATOM     35  H   UNL     1      -9.244  11.317  16.255  0.00  0.00    +0.155 HD
BRANCH  26  28
ATOM     28  C   UNL     1      -7.896  13.511  15.882  0.00  0.00    +0.037 A 
ATOM     29  C   UNL     1      -6.554  13.345  16.159  0.00  0.00    +0.014 A 
ATOM     30  C   UNL     1      -8.348  13.902  14.639  0.00  0.00    +0.014 A 
ATOM     31  C   UNL     1      -5.623  13.582  15.149  0.00  0.00    +0.019 A 
ATOM     32  C   UNL     1      -7.416  14.139  13.628  0.00  0.00    +0.019 A 
ATOM     33  C   UNL     1      -6.054  13.979  13.883  0.00  0.00    +0.052 A 
BRANCH  33  34
ATOM      9  N   UNL     1      -4.326  14.419  12.003  0.00  0.00    -0.191 NA
ATOM     34  C   UNL     1      -5.100  14.222  12.846  0.00  0.00    +0.099 C 
ENDBRANCH  33  34
ENDBRANCH  26  28
ENDBRANCH  19   8
BRANCH   6   1
ATOM      1  S   UNL     1     -15.583   8.383  18.086  0.00  0.00    +0.061 S 
ATOM      2  O   UNL     1     -16.407   9.567  17.973  0.00  0.00    -0.153 OA
ATOM      3  O   UNL     1     -16.167   7.095  18.400  0.00  0.00    -0.153 OA
BRANCH   1  21
ATOM     21  C   UNL     1     -14.673   8.214  16.582  0.00  0.00    +0.105 A 
ATOM     22  C   UNL     1     -15.264   7.583  15.500  0.00  0.00    +0.028 A 
ATOM     23  C   UNL     1     -13.384   8.715  16.511  0.00  0.00    +0.028 A 
ATOM     24  C   UNL     1     -14.545   7.449  14.312  0.00  0.00    +0.002 A 
ATOM     25  C   UNL     1     -12.664   8.581  15.323  0.00  0.00    +0.002 A 
ATOM     27  C   UNL     1     -13.245   7.949  14.223  0.00  0.00    +0.000 A 
ENDBRANCH   1  21
ENDBRANCH   6   1
TORSDOF 5
ENDMDL
MODEL 10
REMARK VINA RESULT:      -6.4     27.525     30.941
REMARK  Name = 7673876
REMARK  5 active torsions:
REMARK  status: ('A' for Active; 'I' for Inactive)
REMARK    1  A    between atoms: S_1  and  N_6
REMARK    2  A    between atoms: S_1  and  C_21
REMARK    3  A    between atoms: N_8  and  C_19
REMARK    4  A    between atoms: C_26  and  C_28
REMARK    5  A    between atoms: C_33  and  C_34
REMARK                            x       y       z     vdW  Elec       q    Type
REMARK                         _______ _______ _______ _____ _____    ______ ____
ROOT
ATOM      4  O   UNL     1      11.899   9.576  17.173  0.00  0.00    -0.266 OA
ATOM      6  N   UNL     1      11.923   9.853  22.148  0.00  0.00    -0.176 NA
ATOM      7  N   UNL     1      12.482   8.698  19.259  0.00  0.00    -0.310 N 
ATOM     10  C   UNL     1      10.744   7.978  20.995  0.00  0.00    +0.025 C 
ATOM     11  C   UNL     1      13.138   7.778  21.511  0.00  0.00    +0.052 C 
ATOM     12  C   UNL     1      11.821   7.008  21.462  0.00  0.00    +0.017 C 
ATOM     13  C   UNL     1      10.616   9.156  21.975  0.00  0.00    +0.114 C 
ATOM     14  C   UNL     1      13.026   8.924  22.534  0.00  0.00    +0.119 C 
ATOM     15  C   UNL     1      11.071   8.435  19.568  0.00  0.00    +0.130 C 
ATOM     16  C   UNL     1      13.500   8.325  20.142  0.00  0.00    +0.026 A 
ATOM     17  C   UNL     1      14.788   8.471  19.790  0.00  0.00    +0.024 A 
ATOM     18  C   UNL     1      12.760   9.248  17.990  0.00  0.00    +0.273 A 
ATOM     19  C   UNL     1      14.208   9.415  17.645  0.00  0.00    +0.099 A 
ATOM     20  C   UNL     1      15.146   9.028  18.516  0.00  0.00    +0.030 A 
ENDROOT
BRANCH  19   8
ATOM      5  O   UNL     1      15.191  12.054  17.178  0.00  0.00    -0.270 OA
ATOM      8  N   UNL     1      14.519   9.955  16.432  0.00  0.00    -0.277 N 
ATOM     26  C   UNL     1      14.994  11.250  16.270  0.00  0.00    +0.248 C 
ATOM     35  H   UNL     1      14.241   9.401  15.630  0.00  0.00    +0.155 HD
BRANCH  26  28
ATOM     28  C   UNL     1      15.299  11.653  14.873  0.00  0.00    +0.037 A 
ATOM     29  C   UNL     1      16.617  11.718  14.471  0.00  0.00    +0.014 A 
ATOM     30  C   UNL     1      14.255  11.951  14.023  0.00  0.00    +0.014 A 
ATOM     31  C   UNL     1      16.905  12.098  13.161  0.00  0.00    +0.019 A 
ATOM     32  C   UNL     1      14.542  12.330  12.711  0.00  0.00    +0.019 A 
ATOM     33  C   UNL     1      15.867  12.404  12.281  0.00  0.00    +0.052 A 
BRANCH  33  34
ATOM      9  N   UNL     1      16.400  13.110   9.845  0.00  0.00    -0.191 NA
ATOM     34  C   UNL     1      16.160  12.794  10.936  0.00  0.00    +0.099 C 
ENDBRANCH  33  34
ENDBRANCH  26  28
ENDBRANCH  19   8
BRANCH   6   1
ATOM      1  S   UNL     1      11.865  11.331  23.009  0.00  0.00    +0.061 S 
ATOM      2  O   UNL     1      13.073  11.471  23.792  0.00  0.00    -0.153 OA
ATOM      3  O   UNL     1      10.560  11.467  23.622  0.00  0.00    -0.153 OA
BRANCH   1  21
ATOM     21  C   UNL     1      11.955  12.474  21.667  0.00  0.00    +0.105 A 
ATOM     22  C   UNL     1      11.152  13.603  21.682  0.00  0.00    +0.028 A 
ATOM     23  C   UNL     1      12.828  12.224  20.621  0.00  0.00    +0.028 A 
ATOM     24  C   UNL     1      11.224  14.506  20.622  0.00  0.00    +0.002 A 
ATOM     25  C   UNL     1      12.900  13.127  19.561  0.00  0.00    +0.002 A 
ATOM     27  C   UNL     1      12.098  14.269  19.561  0.00  0.00    +0.000 A 
ENDBRANCH   1  21
ENDBRANCH   6   1
TORSDOF 5
ENDMDL
