MODEL 1
REMARK VINA RESULT:      -6.0      0.000      0.000
REMARK  Name = 51137103
REMARK  2 active torsions:
REMARK  status: ('A' for Active; 'I' for Inactive)
REMARK    1  A    between atoms: N_2  and  C_10
REMARK    2  A    between atoms: C_5  and  C_9
REMARK                            x       y       z     vdW  Elec       q    Type
REMARK                         _______ _______ _______ _____ _____    ______ ____
ROOT
ATOM      1  F   UNL     1       9.236   4.575  10.322  0.00  0.00    -0.205 F 
ATOM      3  N   UNL     1      10.250   4.398   5.556  0.00  0.00    -0.341 N 
ATOM      4  N   UNL     1       9.684   6.518   5.207  0.00  0.00    -0.232 NA
ATOM      9  C   UNL     1      10.128   5.414   4.649  0.00  0.00    +0.113 A 
ATOM     11  C   UNL     1       9.859   4.878   6.779  0.00  0.00    +0.069 A 
ATOM     12  C   UNL     1       9.511   6.203   6.535  0.00  0.00    +0.089 A 
ATOM     13  C   UNL     1       9.783   4.285   8.039  0.00  0.00    +0.066 A 
ATOM     14  C   UNL     1       9.057   7.000   7.600  0.00  0.00    +0.032 A 
ATOM     15  C   UNL     1       9.329   5.091   9.088  0.00  0.00    +0.125 A 
ATOM     16  C   UNL     1       8.971   6.425   8.874  0.00  0.00    +0.040 A 
ATOM     17  H   UNL     1      10.572   3.458   5.362  0.00  0.00    +0.167 HD
ENDROOT
BRANCH   9   5
ATOM      2  N   UNL     1      12.028   4.169   1.774  0.00  0.00    -0.305 NA
ATOM      5  C   UNL     1      10.482   5.215   3.194  0.00  0.00    +0.070 C 
ATOM      6  C   UNL     1      11.441   6.268   2.611  0.00  0.00    +0.028 C 
ATOM      7  C   UNL     1      11.171   3.871   2.924  0.00  0.00    +0.095 C 
ATOM      8  C   UNL     1      12.623   5.471   2.075  0.00  0.00    +0.085 C 
ATOM     10  C   UNL     1      13.032   3.140   1.548  0.00  0.00    +0.104 C 
ENDBRANCH   9   5
TORSDOF 1
ENDMDL
MODEL 2
REMARK VINA RESULT:      -5.9     13.356     16.013
REMARK  Name = 51137103
REMARK  2 active torsions:
REMARK  status: ('A' for Active; 'I' for Inactive)
REMARK    1  A    between atoms: N_2  and  C_10
REMARK    2  A    between atoms: C_5  and  C_9
REMARK                            x       y       z     vdW  Elec       q    Type
REMARK                         _______ _______ _______ _____ _____    ______ ____
ROOT
ATOM      1  F   UNL     1      19.863   6.265  21.115  0.00  0.00    -0.205 F 
ATOM      3  N   UNL     1      15.184   6.211  19.744  0.00  0.00    -0.341 N 
ATOM      4  N   UNL     1      14.753   8.208  20.616  0.00  0.00    -0.232 NA
ATOM      9  C   UNL     1      14.251   7.186  19.962  0.00  0.00    +0.113 A 
ATOM     11  C   UNL     1      16.367   6.633  20.294  0.00  0.00    +0.069 A 
ATOM     12  C   UNL     1      16.072   7.882  20.832  0.00  0.00    +0.089 A 
ATOM     13  C   UNL     1      17.631   6.046  20.364  0.00  0.00    +0.066 A 
ATOM     14  C   UNL     1      17.087   8.604  21.484  0.00  0.00    +0.032 A 
ATOM     15  C   UNL     1      18.628   6.779  21.016  0.00  0.00    +0.125 A 
ATOM     16  C   UNL     1      18.363   8.035  21.568  0.00  0.00    +0.040 A 
ATOM     17  H   UNL     1      15.033   5.333  19.263  0.00  0.00    +0.167 HD
ENDROOT
BRANCH   9   5
ATOM      2  N   UNL     1      11.258   7.932  17.985  0.00  0.00    -0.305 NA
ATOM      5  C   UNL     1      12.828   7.033  19.477  0.00  0.00    +0.070 C 
ATOM      6  C   UNL     1      11.786   7.854  20.258  0.00  0.00    +0.028 C 
ATOM      7  C   UNL     1      12.645   7.464  18.015  0.00  0.00    +0.095 C 
ATOM      8  C   UNL     1      11.098   8.717  19.208  0.00  0.00    +0.085 C 
ATOM     10  C   UNL     1      10.958   8.704  16.788  0.00  0.00    +0.104 C 
ENDBRANCH   9   5
TORSDOF 1
ENDMDL
MODEL 3
REMARK VINA RESULT:      -5.9     15.427     17.992
REMARK  Name = 51137103
REMARK  2 active torsions:
REMARK  status: ('A' for Active; 'I' for Inactive)
REMARK    1  A    between atoms: N_2  and  C_10
REMARK    2  A    between atoms: C_5  and  C_9
REMARK                            x       y       z     vdW  Elec       q    Type
REMARK                         _______ _______ _______ _____ _____    ______ ____
ROOT
ATOM      1  F   UNL     1      10.538  13.637  26.160  0.00  0.00    -0.205 F 
ATOM      3  N   UNL     1      11.383   9.589  23.576  0.00  0.00    -0.341 N 
ATOM      4  N   UNL     1      11.319  10.647  21.623  0.00  0.00    -0.232 NA
ATOM      9  C   UNL     1      11.482   9.486  22.216  0.00  0.00    +0.113 A 
ATOM     11  C   UNL     1      11.141  10.904  23.880  0.00  0.00    +0.069 A 
ATOM     12  C   UNL     1      11.106  11.544  22.644  0.00  0.00    +0.089 A 
ATOM     13  C   UNL     1      10.955  11.568  25.092  0.00  0.00    +0.066 A 
ATOM     14  C   UNL     1      10.872  12.929  22.596  0.00  0.00    +0.032 A 
ATOM     15  C   UNL     1      10.724  12.946  25.026  0.00  0.00    +0.125 A 
ATOM     16  C   UNL     1      10.682  13.616  23.801  0.00  0.00    +0.040 A 
ATOM     17  H   UNL     1      11.472   8.833  24.243  0.00  0.00    +0.167 HD
ENDROOT
BRANCH   9   5
ATOM      2  N   UNL     1      13.414   6.918  20.457  0.00  0.00    -0.305 NA
ATOM      5  C   UNL     1      11.749   8.158  21.547  0.00  0.00    +0.070 C 
ATOM      6  C   UNL     1      11.461   8.125  20.036  0.00  0.00    +0.028 C 
ATOM      7  C   UNL     1      13.210   7.707  21.674  0.00  0.00    +0.095 C 
ATOM      8  C   UNL     1      12.772   7.690  19.394  0.00  0.00    +0.085 C 
ATOM     10  C   UNL     1      14.822   6.667  20.187  0.00  0.00    +0.104 C 
ENDBRANCH   9   5
TORSDOF 1
ENDMDL
MODEL 4
REMARK VINA RESULT:      -5.9     22.355     23.976
REMARK  Name = 51137103
REMARK  2 active torsions:
REMARK  status: ('A' for Active; 'I' for Inactive)
REMARK    1  A    between atoms: N_2  and  C_10
REMARK    2  A    between atoms: C_5  and  C_9
REMARK                            x       y       z     vdW  Elec       q    Type
REMARK                         _______ _______ _______ _____ _____    ______ ____
ROOT
ATOM      1  F   UNL     1      -5.236  -3.050  23.507  0.00  0.00    -0.205 F 
ATOM      3  N   UNL     1      -2.748   0.952  24.760  0.00  0.00    -0.341 N 
ATOM      4  N   UNL     1      -0.931  -0.183  25.347  0.00  0.00    -0.232 NA
ATOM      9  C   UNL     1      -1.470   1.010  25.242  0.00  0.00    +0.113 A 
ATOM     11  C   UNL     1      -3.053  -0.366  24.539  0.00  0.00    +0.069 A 
ATOM     12  C   UNL     1      -1.903  -1.055  24.913  0.00  0.00    +0.089 A 
ATOM     13  C   UNL     1      -4.202  -0.996  24.059  0.00  0.00    +0.066 A 
ATOM     14  C   UNL     1      -1.879  -2.456  24.809  0.00  0.00    +0.032 A 
ATOM     15  C   UNL     1      -4.161  -2.390  23.962  0.00  0.00    +0.125 A 
ATOM     16  C   UNL     1      -3.021  -3.110  24.331  0.00  0.00    +0.040 A 
ATOM     17  H   UNL     1      -3.362   1.739  24.594  0.00  0.00    +0.167 HD
ENDROOT
BRANCH   9   5
ATOM      2  N   UNL     1      -1.063   4.650  25.351  0.00  0.00    -0.305 NA
ATOM      5  C   UNL     1      -0.821   2.329  25.591  0.00  0.00    +0.070 C 
ATOM      6  C   UNL     1       0.190   2.848  24.553  0.00  0.00    +0.028 C 
ATOM      7  C   UNL     1      -1.834   3.471  25.749  0.00  0.00    +0.095 C 
ATOM      8  C   UNL     1      -0.319   4.229  24.163  0.00  0.00    +0.085 C 
ATOM     10  C   UNL     1      -1.907   5.807  25.095  0.00  0.00    +0.104 C 
ENDBRANCH   9   5
TORSDOF 1
ENDMDL
MODEL 5
REMARK VINA RESULT:      -5.8     15.317     16.778
REMARK  Name = 51137103
REMARK  2 active torsions:
REMARK  status: ('A' for Active; 'I' for Inactive)
REMARK    1  A    between atoms: N_2  and  C_10
REMARK    2  A    between atoms: C_5  and  C_9
REMARK                            x       y       z     vdW  Elec       q    Type
REMARK                         _______ _______ _______ _____ _____    ______ ____
ROOT
ATOM      1  F   UNL     1      -3.456  -2.366  -7.008  0.00  0.00    -0.205 F 
ATOM      3  N   UNL     1       0.425   0.300  -5.739  0.00  0.00    -0.341 N 
ATOM      4  N   UNL     1      -0.071   1.954  -7.137  0.00  0.00    -0.232 NA
ATOM      9  C   UNL     1       0.779   1.525  -6.231  0.00  0.00    +0.113 A 
ATOM     11  C   UNL     1      -0.730  -0.087  -6.368  0.00  0.00    +0.069 A 
ATOM     12  C   UNL     1      -1.020   0.963  -7.236  0.00  0.00    +0.089 A 
ATOM     13  C   UNL     1      -1.523  -1.230  -6.257  0.00  0.00    +0.066 A 
ATOM     14  C   UNL     1      -2.164   0.885  -8.048  0.00  0.00    +0.032 A 
ATOM     15  C   UNL     1      -2.657  -1.291  -7.072  0.00  0.00    +0.125 A 
ATOM     16  C   UNL     1      -2.973  -0.254  -7.954  0.00  0.00    +0.040 A 
ATOM     17  H   UNL     1       0.923  -0.230  -5.036  0.00  0.00    +0.167 HD
ENDROOT
BRANCH   9   5
ATOM      2  N   UNL     1       2.838   4.353  -5.143  0.00  0.00    -0.305 NA
ATOM      5  C   UNL     1       2.017   2.240  -5.742  0.00  0.00    +0.070 C 
ATOM      6  C   UNL     1       2.941   2.768  -6.854  0.00  0.00    +0.028 C 
ATOM      7  C   UNL     1       1.697   3.472  -4.886  0.00  0.00    +0.095 C 
ATOM      8  C   UNL     1       3.068   4.262  -6.585  0.00  0.00    +0.085 C 
ATOM     10  C   UNL     1       2.595   5.720  -4.706  0.00  0.00    +0.104 C 
ENDBRANCH   9   5
TORSDOF 1
ENDMDL
MODEL 6
REMARK VINA RESULT:      -5.7     15.886     16.519
REMARK  Name = 51137103
REMARK  2 active torsions:
REMARK  status: ('A' for Active; 'I' for Inactive)
REMARK    1  A    between atoms: N_2  and  C_10
REMARK    2  A    between atoms: C_5  and  C_9
REMARK                            x       y       z     vdW  Elec       q    Type
REMARK                         _______ _______ _______ _____ _____    ______ ____
ROOT
ATOM      1  F   UNL     1       9.420   6.339  22.156  0.00  0.00    -0.205 F 
ATOM      3  N   UNL     1      14.043   6.720  20.655  0.00  0.00    -0.341 N 
ATOM      4  N   UNL     1      14.235   8.835  21.307  0.00  0.00    -0.232 NA
ATOM      9  C   UNL     1      14.851   7.820  20.745  0.00  0.00    +0.113 A 
ATOM     11  C   UNL     1      12.827   7.047  21.195  0.00  0.00    +0.069 A 
ATOM     12  C   UNL     1      12.972   8.373  21.595  0.00  0.00    +0.089 A 
ATOM     13  C   UNL     1      11.648   6.320  21.364  0.00  0.00    +0.066 A 
ATOM     14  C   UNL     1      11.886   9.029  22.201  0.00  0.00    +0.032 A 
ATOM     15  C   UNL     1      10.578   6.988  21.968  0.00  0.00    +0.125 A 
ATOM     16  C   UNL     1      10.692   8.318  22.379  0.00  0.00    +0.040 A 
ATOM     17  H   UNL     1      14.295   5.822  20.261  0.00  0.00    +0.167 HD
ENDROOT
BRANCH   9   5
ATOM      2  N   UNL     1      18.100   6.370  19.871  0.00  0.00    -0.305 NA
ATOM      5  C   UNL     1      16.273   7.794  20.235  0.00  0.00    +0.070 C 
ATOM      6  C   UNL     1      17.348   8.053  21.305  0.00  0.00    +0.028 C 
ATOM      7  C   UNL     1      16.661   6.447  19.612  0.00  0.00    +0.095 C 
ATOM      8  C   UNL     1      18.260   6.834  21.249  0.00  0.00    +0.085 C 
ATOM     10  C   UNL     1      18.630   5.029  19.672  0.00  0.00    +0.104 C 
ENDBRANCH   9   5
TORSDOF 1
ENDMDL
MODEL 7
REMARK VINA RESULT:      -5.6     16.581     18.495
REMARK  Name = 51137103
REMARK  2 active torsions:
REMARK  status: ('A' for Active; 'I' for Inactive)
REMARK    1  A    between atoms: N_2  and  C_10
REMARK    2  A    between atoms: C_5  and  C_9
REMARK                            x       y       z     vdW  Elec       q    Type
REMARK                         _______ _______ _______ _____ _____    ______ ____
ROOT
ATOM      1  F   UNL     1      15.915   6.258  18.469  0.00  0.00    -0.205 F 
ATOM      3  N   UNL     1      20.281   4.785  20.065  0.00  0.00    -0.341 N 
ATOM      4  N   UNL     1      20.300   6.208  21.772  0.00  0.00    -0.232 NA
ATOM      9  C   UNL     1      20.963   5.258  21.151  0.00  0.00    +0.113 A 
ATOM     11  C   UNL     1      19.099   5.475  19.979  0.00  0.00    +0.069 A 
ATOM     12  C   UNL     1      19.134   6.357  21.056  0.00  0.00    +0.089 A 
ATOM     13  C   UNL     1      18.035   5.405  19.080  0.00  0.00    +0.066 A 
ATOM     14  C   UNL     1      18.052   7.229  21.263  0.00  0.00    +0.032 A 
ATOM     15  C   UNL     1      16.966   6.280  19.301  0.00  0.00    +0.125 A 
ATOM     16  C   UNL     1      16.973   7.177  20.373  0.00  0.00    +0.040 A 
ATOM     17  H   UNL     1      20.589   4.057  19.434  0.00  0.00    +0.167 HD
ENDROOT
BRANCH   9   5
ATOM      2  N   UNL     1      24.177   3.567  20.667  0.00  0.00    -0.305 NA
ATOM      5  C   UNL     1      22.317   4.705  21.530  0.00  0.00    +0.070 C 
ATOM      6  C   UNL     1      22.304   3.247  22.024  0.00  0.00    +0.028 C 
ATOM      7  C   UNL     1      23.314   4.711  20.364  0.00  0.00    +0.095 C 
ATOM      8  C   UNL     1      23.264   2.510  21.100  0.00  0.00    +0.085 C 
ATOM     10  C   UNL     1      24.990   3.167  19.528  0.00  0.00    +0.104 C 
ENDBRANCH   9   5
TORSDOF 1
ENDMDL
MODEL 8
REMARK VINA RESULT:      -5.5     22.611     24.305
REMARK  Name = 51137103
REMARK  2 active torsions:
REMARK  status: ('A' for Active; 'I' for Inactive)
REMARK    1  A    between atoms: N_2  and  C_10
REMARK    2  A    between atoms: C_5  and  C_9
REMARK                            x       y       z     vdW  Elec       q    Type
REMARK                         _______ _______ _______ _____ _____    ______ ____
ROOT
ATOM      1  F   UNL     1      -5.785 -11.474  20.815  0.00  0.00    -0.205 F 
ATOM      3  N   UNL     1      -3.177 -11.479  16.695  0.00  0.00    -0.341 N 
ATOM      4  N   UNL     1      -4.718 -10.363  15.546  0.00  0.00    -0.232 NA
ATOM      9  C   UNL     1      -3.533 -10.930  15.494  0.00  0.00    +0.113 A 
ATOM     11  C   UNL     1      -4.199 -11.250  17.579  0.00  0.00    +0.069 A 
ATOM     12  C   UNL     1      -5.149 -10.552  16.838  0.00  0.00    +0.089 A 
ATOM     13  C   UNL     1      -4.370 -11.584  18.923  0.00  0.00    +0.066 A 
ATOM     14  C   UNL     1      -6.346 -10.155  17.459  0.00  0.00    +0.032 A 
ATOM     15  C   UNL     1      -5.567 -11.181  19.525  0.00  0.00    +0.125 A 
ATOM     16  C   UNL     1      -6.539 -10.480  18.807  0.00  0.00    +0.040 A 
ATOM     17  H   UNL     1      -2.315 -11.966  16.898  0.00  0.00    +0.167 HD
ENDROOT
BRANCH   9   5
ATOM      2  N   UNL     1      -2.599 -11.425  11.986  0.00  0.00    -0.305 NA
ATOM      5  C   UNL     1      -2.619 -11.006  14.294  0.00  0.00    +0.070 C 
ATOM      6  C   UNL     1      -2.016 -12.397  14.028  0.00  0.00    +0.028 C 
ATOM      7  C   UNL     1      -3.321 -10.630  12.982  0.00  0.00    +0.095 C 
ATOM      8  C   UNL     1      -2.431 -12.740  12.603  0.00  0.00    +0.085 C 
ATOM     10  C   UNL     1      -3.302 -11.494  10.714  0.00  0.00    +0.104 C 
ENDBRANCH   9   5
TORSDOF 1
ENDMDL
MODEL 9
REMARK VINA RESULT:      -5.5     25.040     26.965
REMARK  Name = 51137103
REMARK  2 active torsions:
REMARK  status: ('A' for Active; 'I' for Inactive)
REMARK    1  A    between atoms: N_2  and  C_10
REMARK    2  A    between atoms: C_5  and  C_9
REMARK                            x       y       z     vdW  Elec       q    Type
REMARK                         _______ _______ _______ _____ _____    ______ ____
ROOT
ATOM      1  F   UNL     1      -3.548 -12.379  19.722  0.00  0.00    -0.205 F 
ATOM      3  N   UNL     1      -7.595  -9.899  18.602  0.00  0.00    -0.341 N 
ATOM      4  N   UNL     1      -6.912  -9.427  16.541  0.00  0.00    -0.232 NA
ATOM      9  C   UNL     1      -7.882  -9.284  17.415  0.00  0.00    +0.113 A 
ATOM     11  C   UNL     1      -6.357 -10.476  18.486  0.00  0.00    +0.069 A 
ATOM     12  C   UNL     1      -5.951 -10.168  17.191  0.00  0.00    +0.089 A 
ATOM     13  C   UNL     1      -5.581 -11.219  19.376  0.00  0.00    +0.066 A 
ATOM     14  C   UNL     1      -4.699 -10.619  16.739  0.00  0.00    +0.032 A 
ATOM     15  C   UNL     1      -4.338 -11.660  18.910  0.00  0.00    +0.125 A 
ATOM     16  C   UNL     1      -3.903 -11.366  17.615  0.00  0.00    +0.040 A 
ATOM     17  H   UNL     1      -8.187  -9.925  19.422  0.00  0.00    +0.167 HD
ENDROOT
BRANCH   9   5
ATOM      2  N   UNL     1     -11.511  -8.842  17.164  0.00  0.00    -0.305 NA
ATOM      5  C   UNL     1      -9.185  -8.547  17.208  0.00  0.00    +0.070 C 
ATOM      6  C   UNL     1      -9.682  -8.508  15.752  0.00  0.00    +0.028 C 
ATOM      7  C   UNL     1     -10.350  -9.156  17.999  0.00  0.00    +0.095 C 
ATOM      8  C   UNL     1     -11.076  -9.119  15.795  0.00  0.00    +0.085 C 
ATOM     10  C   UNL     1     -12.689  -9.611  17.538  0.00  0.00    +0.104 C 
ENDBRANCH   9   5
TORSDOF 1
ENDMDL
MODEL 10
REMARK VINA RESULT:      -5.4     34.725     36.686
REMARK  Name = 51137103
REMARK  2 active torsions:
REMARK  status: ('A' for Active; 'I' for Inactive)
REMARK    1  A    between atoms: N_2  and  C_10
REMARK    2  A    between atoms: C_5  and  C_9
REMARK                            x       y       z     vdW  Elec       q    Type
REMARK                         _______ _______ _______ _____ _____    ______ ____
ROOT
ATOM      1  F   UNL     1     -13.772   6.332  35.985  0.00  0.00    -0.205 F 
ATOM      3  N   UNL     1     -14.851   2.407  33.301  0.00  0.00    -0.341 N 
ATOM      4  N   UNL     1     -14.692   3.499  31.373  0.00  0.00    -0.232 NA
ATOM      9  C   UNL     1     -14.939   2.339  31.939  0.00  0.00    +0.113 A 
ATOM     11  C   UNL     1     -14.526   3.695  33.637  0.00  0.00    +0.069 A 
ATOM     12  C   UNL     1     -14.432   4.358  32.416  0.00  0.00    +0.089 A 
ATOM     13  C   UNL     1     -14.311   4.319  34.866  0.00  0.00    +0.066 A 
ATOM     14  C   UNL     1     -14.106   5.725  32.402  0.00  0.00    +0.032 A 
ATOM     15  C   UNL     1     -13.989   5.680  34.833  0.00  0.00    +0.125 A 
ATOM     16  C   UNL     1     -13.888   6.372  33.624  0.00  0.00    +0.040 A 
ATOM     17  H   UNL     1     -14.999   1.644  33.950  0.00  0.00    +0.167 HD
ENDROOT
BRANCH   9   5
ATOM      2  N   UNL     1     -14.451  -0.533  29.717  0.00  0.00    -0.305 NA
ATOM      5  C   UNL     1     -15.284   1.046  31.237  0.00  0.00    +0.070 C 
ATOM      6  C   UNL     1     -15.990   1.215  29.880  0.00  0.00    +0.028 C 
ATOM      7  C   UNL     1     -14.052   0.185  30.929  0.00  0.00    +0.095 C 
ATOM      8  C   UNL     1     -15.110   0.472  28.883  0.00  0.00    +0.085 C 
ATOM     10  C   UNL     1     -13.322  -1.158  29.044  0.00  0.00    +0.104 C 
ENDBRANCH   9   5
TORSDOF 1
ENDMDL
