MODEL 1
REMARK VINA RESULT:      -6.5      0.000      0.000
REMARK  Name = 71693183
REMARK  15 active torsions:
REMARK  status: ('A' for Active; 'I' for Inactive)
REMARK    1  A    between atoms: O_2  and  C_31
REMARK    2  A    between atoms: O_2  and  C_32
REMARK    3  A    between atoms: N_4  and  C_15
REMARK    4  A    between atoms: N_7  and  C_24
REMARK    5  A    between atoms: N_7  and  C_29
REMARK    6  A    between atoms: N_7  and  C_30
REMARK    7  A    between atoms: C_8  and  C_12
REMARK    8  A    between atoms: C_9  and  C_15
REMARK    9  A    between atoms: C_11  and  C_16
REMARK   10  A    between atoms: C_12  and  C_17
REMARK   11  A    between atoms: C_12  and  C_18
REMARK   12  A    between atoms: C_13  and  C_19
REMARK   13  A    between atoms: C_16  and  C_20
REMARK   14  A    between atoms: C_21  and  C_24
REMARK   15  A    between atoms: C_27  and  C_31
REMARK                            x       y       z     vdW  Elec       q    Type
REMARK                         _______ _______ _______ _____ _____    ______ ____
ROOT
ATOM      8  C   UNL     1      21.474   5.539  21.851  0.00  0.00    +0.000 C 
ATOM      9  C   UNL     1      22.190   6.854  22.247  0.00  0.00    +0.032 C 
ATOM     10  C   UNL     1      20.596   5.760  20.609  0.00  0.00    +0.012 C 
ATOM     11  C   UNL     1      19.529   6.847  20.836  0.00  0.00    +0.022 C 
ATOM     13  C   UNL     1      20.116   8.087  21.479  0.00  0.00    -0.073 C 
ATOM     14  C   UNL     1      21.313   8.074  22.093  0.00  0.00    -0.022 C 
ATOM     19  C   UNL     1      19.317   9.355  21.359  0.00  0.00    +0.039 C 
ENDROOT
BRANCH   8  12
ATOM     12  C   UNL     1      22.471   4.406  21.587  0.00  0.00    -0.013 C 
ATOM     17  C   UNL     1      23.458   4.810  20.496  0.00  0.00    +0.007 C 
ATOM     18  C   UNL     1      21.733   3.127  21.201  0.00  0.00    +0.007 C 
ENDBRANCH   8  12
BRANCH   9  15
ATOM     15  C   UNL     1      22.720   6.785  23.684  0.00  0.00    +0.112 C 
BRANCH  15   4
ATOM      1  O   UNL     1      21.725   5.446  26.049  0.00  0.00    -0.274 OA
ATOM      4  N   UNL     1      21.743   7.270  24.609  0.00  0.00    -0.314 N 
ATOM     21  C   UNL     1      21.315   6.560  25.732  0.00  0.00    +0.227 C 
ATOM     33  H   UNL     1      21.386   8.211  24.469  0.00  0.00    +0.149 HD
BRANCH  21  24
ATOM     24  C   UNL     1      20.252   7.302  26.515  0.00  0.00    +0.180 C 
BRANCH  24   7
ATOM      7  N   UNL     1      20.819   8.547  27.012  0.00  0.00    -0.300 NA
ATOM     29  C   UNL     1      21.695   8.296  28.159  0.00  0.00    +0.105 C 
ATOM     30  C   UNL     1      19.759   9.488  27.382  0.00  0.00    +0.105 C 
ENDBRANCH  24   7
ENDBRANCH  21  24
ENDBRANCH  15   4
ENDBRANCH   9  15
BRANCH  11  16
ATOM     16  C   UNL     1      18.355   6.305  21.661  0.00  0.00    +0.082 C 
BRANCH  16  20
ATOM      5  N   UNL     1      15.886   6.698  21.753  0.00  0.00    -0.342 N 
ATOM      6  N   UNL     1      16.825   6.888  19.747  0.00  0.00    -0.232 NA
ATOM     20  C   UNL     1      17.037   6.635  21.019  0.00  0.00    +0.109 A 
ATOM     22  C   UNL     1      14.862   7.016  20.898  0.00  0.00    +0.067 A 
ATOM     23  C   UNL     1      15.473   7.129  19.652  0.00  0.00    +0.089 A 
ATOM     25  C   UNL     1      13.495   7.207  21.101  0.00  0.00    +0.042 A 
ATOM     26  C   UNL     1      14.690   7.450  18.532  0.00  0.00    +0.030 A 
ATOM     27  C   UNL     1      12.729   7.527  19.974  0.00  0.00    +0.061 A 
ATOM     28  C   UNL     1      13.315   7.647  18.711  0.00  0.00    +0.017 A 
ATOM     34  H   UNL     1      15.802   6.542  22.748  0.00  0.00    +0.167 HD
BRANCH  27  31
ATOM      3  O   UNL     1      10.624   8.493  19.412  0.00  0.00    -0.245 OA
ATOM     31  C   UNL     1      11.297   7.738  20.123  0.00  0.00    +0.339 C 
BRANCH  31   2
ATOM      2  O   UNL     1      10.786   6.994  21.151  0.00  0.00    -0.464 OA
ATOM     32  C   UNL     1      10.243   7.716  22.263  0.00  0.00    +0.280 C 
ENDBRANCH  31   2
ENDBRANCH  27  31
ENDBRANCH  16  20
ENDBRANCH  11  16
TORSDOF 9
ENDMDL
MODEL 2
REMARK VINA RESULT:      -6.5     28.148     31.774
REMARK  Name = 71693183
REMARK  15 active torsions:
REMARK  status: ('A' for Active; 'I' for Inactive)
REMARK    1  A    between atoms: O_2  and  C_31
REMARK    2  A    between atoms: O_2  and  C_32
REMARK    3  A    between atoms: N_4  and  C_15
REMARK    4  A    between atoms: N_7  and  C_24
REMARK    5  A    between atoms: N_7  and  C_29
REMARK    6  A    between atoms: N_7  and  C_30
REMARK    7  A    between atoms: C_8  and  C_12
REMARK    8  A    between atoms: C_9  and  C_15
REMARK    9  A    between atoms: C_11  and  C_16
REMARK   10  A    between atoms: C_12  and  C_17
REMARK   11  A    between atoms: C_12  and  C_18
REMARK   12  A    between atoms: C_13  and  C_19
REMARK   13  A    between atoms: C_16  and  C_20
REMARK   14  A    between atoms: C_21  and  C_24
REMARK   15  A    between atoms: C_27  and  C_31
REMARK                            x       y       z     vdW  Elec       q    Type
REMARK                         _______ _______ _______ _____ _____    ______ ____
ROOT
ATOM      8  C   UNL     1      -6.668 -10.855  17.889  0.00  0.00    +0.000 C 
ATOM      9  C   UNL     1      -5.784 -11.140  16.649  0.00  0.00    +0.032 C 
ATOM     10  C   UNL     1      -8.156 -10.996  17.530  0.00  0.00    +0.012 C 
ATOM     11  C   UNL     1      -8.575 -10.037  16.400  0.00  0.00    +0.022 C 
ATOM     13  C   UNL     1      -7.595 -10.065  15.245  0.00  0.00    -0.073 C 
ATOM     14  C   UNL     1      -6.357 -10.574  15.371  0.00  0.00    -0.022 C 
ATOM     19  C   UNL     1      -8.087  -9.536  13.926  0.00  0.00    +0.039 C 
ENDROOT
BRANCH   8  12
ATOM     12  C   UNL     1      -6.326 -11.784  19.058  0.00  0.00    -0.013 C 
ATOM     17  C   UNL     1      -7.533 -12.642  19.426  0.00  0.00    +0.007 C 
ATOM     18  C   UNL     1      -5.851 -10.974  20.260  0.00  0.00    +0.007 C 
ENDBRANCH   8  12
BRANCH   9  15
ATOM     15  C   UNL     1      -4.360 -10.608  16.850  0.00  0.00    +0.112 C 
BRANCH  15   4
ATOM      1  O   UNL     1      -1.526 -10.825  16.306  0.00  0.00    -0.274 OA
ATOM      4  N   UNL     1      -3.703 -10.430  15.593  0.00  0.00    -0.314 N 
ATOM     21  C   UNL     1      -2.325 -10.553  15.412  0.00  0.00    +0.227 C 
ATOM     33  H   UNL     1      -4.283 -10.262  14.776  0.00  0.00    +0.149 HD
BRANCH  21  24
ATOM     24  C   UNL     1      -1.902 -10.281  13.983  0.00  0.00    +0.180 C 
BRANCH  24   7
ATOM      7  N   UNL     1      -2.705 -11.105  13.091  0.00  0.00    -0.300 NA
ATOM     29  C   UNL     1      -2.061 -12.402  12.866  0.00  0.00    +0.105 C 
ATOM     30  C   UNL     1      -2.928 -10.423  11.814  0.00  0.00    +0.105 C 
ENDBRANCH  24   7
ENDBRANCH  21  24
ENDBRANCH  15   4
ENDBRANCH   9  15
BRANCH  11  16
ATOM     16  C   UNL     1      -8.762  -8.609  16.927  0.00  0.00    +0.082 C 
BRANCH  16  20
ATOM      5  N   UNL     1      -9.982  -6.927  15.534  0.00  0.00    -0.342 N 
ATOM      6  N   UNL     1     -11.254  -8.357  16.664  0.00  0.00    -0.232 NA
ATOM     20  C   UNL     1     -10.022  -7.989  16.393  0.00  0.00    +0.109 A 
ATOM     22  C   UNL     1     -11.274  -6.587  15.228  0.00  0.00    +0.067 A 
ATOM     23  C   UNL     1     -12.050  -7.494  15.945  0.00  0.00    +0.089 A 
ATOM     25  C   UNL     1     -11.816  -5.595  14.411  0.00  0.00    +0.042 A 
ATOM     26  C   UNL     1     -13.449  -7.422  15.854  0.00  0.00    +0.030 A 
ATOM     27  C   UNL     1     -13.212  -5.537  14.331  0.00  0.00    +0.061 A 
ATOM     28  C   UNL     1     -14.016  -6.433  15.040  0.00  0.00    +0.017 A 
ATOM     34  H   UNL     1      -9.150  -6.472  15.183  0.00  0.00    +0.167 HD
BRANCH  27  31
ATOM      3  O   UNL     1     -15.012  -4.555  13.115  0.00  0.00    -0.245 OA
ATOM     31  C   UNL     1     -13.835  -4.522  13.495  0.00  0.00    +0.339 C 
BRANCH  31   2
ATOM      2  O   UNL     1     -12.956  -3.523  13.179  0.00  0.00    -0.464 OA
ATOM     32  C   UNL     1     -12.598  -3.390  11.799  0.00  0.00    +0.280 C 
ENDBRANCH  31   2
ENDBRANCH  27  31
ENDBRANCH  16  20
ENDBRANCH  11  16
TORSDOF 9
ENDMDL
MODEL 3
REMARK VINA RESULT:      -6.2     16.799     21.376
REMARK  Name = 71693183
REMARK  15 active torsions:
REMARK  status: ('A' for Active; 'I' for Inactive)
REMARK    1  A    between atoms: O_2  and  C_31
REMARK    2  A    between atoms: O_2  and  C_32
REMARK    3  A    between atoms: N_4  and  C_15
REMARK    4  A    between atoms: N_7  and  C_24
REMARK    5  A    between atoms: N_7  and  C_29
REMARK    6  A    between atoms: N_7  and  C_30
REMARK    7  A    between atoms: C_8  and  C_12
REMARK    8  A    between atoms: C_9  and  C_15
REMARK    9  A    between atoms: C_11  and  C_16
REMARK   10  A    between atoms: C_12  and  C_17
REMARK   11  A    between atoms: C_12  and  C_18
REMARK   12  A    between atoms: C_13  and  C_19
REMARK   13  A    between atoms: C_16  and  C_20
REMARK   14  A    between atoms: C_21  and  C_24
REMARK   15  A    between atoms: C_27  and  C_31
REMARK                            x       y       z     vdW  Elec       q    Type
REMARK                         _______ _______ _______ _____ _____    ______ ____
ROOT
ATOM      8  C   UNL     1       8.735   8.540   5.219  0.00  0.00    +0.000 C 
ATOM      9  C   UNL     1       8.429   7.766   6.526  0.00  0.00    +0.032 C 
ATOM     10  C   UNL     1       8.532   7.630   3.997  0.00  0.00    +0.012 C 
ATOM     11  C   UNL     1       9.430   6.379   4.046  0.00  0.00    +0.022 C 
ATOM     13  C   UNL     1       9.388   5.708   5.404  0.00  0.00    -0.073 C 
ATOM     14  C   UNL     1       8.924   6.339   6.498  0.00  0.00    -0.022 C 
ATOM     19  C   UNL     1       9.847   4.278   5.468  0.00  0.00    +0.039 C 
ENDROOT
BRANCH   8  12
ATOM     12  C   UNL     1       7.866   9.793   5.083  0.00  0.00    -0.013 C 
ATOM     17  C   UNL     1       6.854   9.618   3.955  0.00  0.00    +0.007 C 
ATOM     18  C   UNL     1       8.737  11.022   4.841  0.00  0.00    +0.007 C 
ENDBRANCH   8  12
BRANCH   9  15
ATOM     15  C   UNL     1       9.015   8.486   7.746  0.00  0.00    +0.112 C 
BRANCH  15   4
ATOM      1  O   UNL     1      10.398  11.019   7.959  0.00  0.00    -0.274 OA
ATOM      4  N   UNL     1      10.413   8.727   7.569  0.00  0.00    -0.314 N 
ATOM     21  C   UNL     1      11.006   9.985   7.691  0.00  0.00    +0.227 C 
ATOM     33  H   UNL     1      11.014   7.925   7.404  0.00  0.00    +0.149 HD
BRANCH  21  24
ATOM     24  C   UNL     1      12.496   9.951   7.420  0.00  0.00    +0.180 C 
BRANCH  24   7
ATOM      7  N   UNL     1      12.739   9.135   6.239  0.00  0.00    -0.300 NA
ATOM     29  C   UNL     1      14.071   8.526   6.295  0.00  0.00    +0.105 C 
ATOM     30  C   UNL     1      12.602   9.936   5.020  0.00  0.00    +0.105 C 
ENDBRANCH  24   7
ENDBRANCH  21  24
ENDBRANCH  15   4
ENDBRANCH   9  15
BRANCH  11  16
ATOM     16  C   UNL     1      10.871   6.717   3.646  0.00  0.00    +0.082 C 
BRANCH  16  20
ATOM      5  N   UNL     1      10.518   5.529   1.474  0.00  0.00    -0.342 N 
ATOM      6  N   UNL     1      12.535   5.312   2.382  0.00  0.00    -0.232 NA
ATOM     20  C   UNL     1      11.343   5.849   2.515  0.00  0.00    +0.109 A 
ATOM     22  C   UNL     1      11.225   4.733   0.609  0.00  0.00    +0.067 A 
ATOM     23  C   UNL     1      12.481   4.612   1.198  0.00  0.00    +0.089 A 
ATOM     25  C   UNL     1      10.884   4.126  -0.600  0.00  0.00    +0.042 A 
ATOM     26  C   UNL     1      13.467   3.844   0.558  0.00  0.00    +0.030 A 
ATOM     27  C   UNL     1      11.878   3.365  -1.225  0.00  0.00    +0.061 A 
ATOM     28  C   UNL     1      13.147   3.226  -0.657  0.00  0.00    +0.017 A 
ATOM     34  H   UNL     1       9.559   5.826   1.357  0.00  0.00    +0.167 HD
BRANCH  27  31
ATOM      3  O   UNL     1      12.421   2.468  -3.366  0.00  0.00    -0.245 OA
ATOM     31  C   UNL     1      11.582   2.707  -2.488  0.00  0.00    +0.339 C 
BRANCH  31   2
ATOM      2  O   UNL     1      10.256   2.386  -2.587  0.00  0.00    -0.464 OA
ATOM     32  C   UNL     1       9.639   2.574  -3.866  0.00  0.00    +0.280 C 
ENDBRANCH  31   2
ENDBRANCH  27  31
ENDBRANCH  16  20
ENDBRANCH  11  16
TORSDOF 9
ENDMDL
MODEL 4
REMARK VINA RESULT:      -6.2      3.975      9.206
REMARK  Name = 71693183
REMARK  15 active torsions:
REMARK  status: ('A' for Active; 'I' for Inactive)
REMARK    1  A    between atoms: O_2  and  C_31
REMARK    2  A    between atoms: O_2  and  C_32
REMARK    3  A    between atoms: N_4  and  C_15
REMARK    4  A    between atoms: N_7  and  C_24
REMARK    5  A    between atoms: N_7  and  C_29
REMARK    6  A    between atoms: N_7  and  C_30
REMARK    7  A    between atoms: C_8  and  C_12
REMARK    8  A    between atoms: C_9  and  C_15
REMARK    9  A    between atoms: C_11  and  C_16
REMARK   10  A    between atoms: C_12  and  C_17
REMARK   11  A    between atoms: C_12  and  C_18
REMARK   12  A    between atoms: C_13  and  C_19
REMARK   13  A    between atoms: C_16  and  C_20
REMARK   14  A    between atoms: C_21  and  C_24
REMARK   15  A    between atoms: C_27  and  C_31
REMARK                            x       y       z     vdW  Elec       q    Type
REMARK                         _______ _______ _______ _____ _____    ______ ____
ROOT
ATOM      8  C   UNL     1      12.539   9.069  18.751  0.00  0.00    +0.000 C 
ATOM      9  C   UNL     1      12.950  10.367  19.490  0.00  0.00    +0.032 C 
ATOM     10  C   UNL     1      11.099   8.677  19.117  0.00  0.00    +0.012 C 
ATOM     11  C   UNL     1      10.922   8.454  20.631  0.00  0.00    +0.022 C 
ATOM     13  C   UNL     1      11.546   9.572  21.441  0.00  0.00    -0.073 C 
ATOM     14  C   UNL     1      12.439  10.426  20.910  0.00  0.00    -0.022 C 
ATOM     19  C   UNL     1      11.083   9.718  22.865  0.00  0.00    +0.039 C 
ENDROOT
BRANCH   8  12
ATOM     12  C   UNL     1      12.667   9.214  17.232  0.00  0.00    -0.013 C 
ATOM     17  C   UNL     1      11.337   8.902  16.554  0.00  0.00    +0.007 C 
ATOM     18  C   UNL     1      13.770   8.302  16.702  0.00  0.00    +0.007 C 
ENDBRANCH   8  12
BRANCH   9  15
ATOM     15  C   UNL     1      14.472  10.548  19.486  0.00  0.00    +0.112 C 
BRANCH  15   4
ATOM      1  O   UNL     1      14.638  13.436  19.403  0.00  0.00    -0.274 OA
ATOM      4  N   UNL     1      14.884  11.360  18.385  0.00  0.00    -0.314 N 
ATOM     21  C   UNL     1      14.937  12.755  18.425  0.00  0.00    +0.227 C 
ATOM     33  H   UNL     1      15.212  10.890  17.546  0.00  0.00    +0.149 HD
BRANCH  21  24
ATOM     24  C   UNL     1      15.379  13.355  17.106  0.00  0.00    +0.180 C 
BRANCH  24   7
ATOM      7  N   UNL     1      15.346  12.318  16.085  0.00  0.00    -0.300 NA
ATOM     29  C   UNL     1      16.638  12.222  15.401  0.00  0.00    +0.105 C 
ATOM     30  C   UNL     1      14.280  12.580  15.115  0.00  0.00    +0.105 C 
ENDBRANCH  24   7
ENDBRANCH  21  24
ENDBRANCH  15   4
ENDBRANCH   9  15
BRANCH  11  16
ATOM     16  C   UNL     1      11.479   7.091  21.058  0.00  0.00    +0.082 C 
BRANCH  16  20
ATOM      5  N   UNL     1      13.867   7.411  21.730  0.00  0.00    -0.342 N 
ATOM      6  N   UNL     1      13.535   6.538  19.713  0.00  0.00    -0.232 NA
ATOM     20  C   UNL     1      12.956   6.997  20.799  0.00  0.00    +0.109 A 
ATOM     22  C   UNL     1      15.119   7.203  21.211  0.00  0.00    +0.067 A 
ATOM     23  C   UNL     1      14.885   6.658  19.951  0.00  0.00    +0.089 A 
ATOM     25  C   UNL     1      16.397   7.438  21.718  0.00  0.00    +0.042 A 
ATOM     26  C   UNL     1      15.979   6.322  19.136  0.00  0.00    +0.030 A 
ATOM     27  C   UNL     1      17.475   7.097  20.893  0.00  0.00    +0.061 A 
ATOM     28  C   UNL     1      17.271   6.549  19.625  0.00  0.00    +0.017 A 
ATOM     34  H   UNL     1      13.659   7.799  22.640  0.00  0.00    +0.167 HD
BRANCH  27  31
ATOM      3  O   UNL     1      19.123   7.989  22.367  0.00  0.00    -0.245 OA
ATOM     31  C   UNL     1      18.832   7.320  21.368  0.00  0.00    +0.339 C 
BRANCH  31   2
ATOM      2  O   UNL     1      19.751   6.696  20.570  0.00  0.00    -0.464 OA
ATOM     32  C   UNL     1      20.638   5.770  21.208  0.00  0.00    +0.280 C 
ENDBRANCH  31   2
ENDBRANCH  27  31
ENDBRANCH  16  20
ENDBRANCH  11  16
TORSDOF 9
ENDMDL
MODEL 5
REMARK VINA RESULT:      -6.2      4.082      8.018
REMARK  Name = 71693183
REMARK  15 active torsions:
REMARK  status: ('A' for Active; 'I' for Inactive)
REMARK    1  A    between atoms: O_2  and  C_31
REMARK    2  A    between atoms: O_2  and  C_32
REMARK    3  A    between atoms: N_4  and  C_15
REMARK    4  A    between atoms: N_7  and  C_24
REMARK    5  A    between atoms: N_7  and  C_29
REMARK    6  A    between atoms: N_7  and  C_30
REMARK    7  A    between atoms: C_8  and  C_12
REMARK    8  A    between atoms: C_9  and  C_15
REMARK    9  A    between atoms: C_11  and  C_16
REMARK   10  A    between atoms: C_12  and  C_17
REMARK   11  A    between atoms: C_12  and  C_18
REMARK   12  A    between atoms: C_13  and  C_19
REMARK   13  A    between atoms: C_16  and  C_20
REMARK   14  A    between atoms: C_21  and  C_24
REMARK   15  A    between atoms: C_27  and  C_31
REMARK                            x       y       z     vdW  Elec       q    Type
REMARK                         _______ _______ _______ _____ _____    ______ ____
ROOT
ATOM      8  C   UNL     1      12.595   9.125  18.598  0.00  0.00    +0.000 C 
ATOM      9  C   UNL     1      13.018  10.381  19.400  0.00  0.00    +0.032 C 
ATOM     10  C   UNL     1      11.139   8.751  18.917  0.00  0.00    +0.012 C 
ATOM     11  C   UNL     1      10.925   8.469  20.416  0.00  0.00    +0.022 C 
ATOM     13  C   UNL     1      11.555   9.538  21.286  0.00  0.00    -0.073 C 
ATOM     14  C   UNL     1      12.478  10.392  20.811  0.00  0.00    -0.022 C 
ATOM     19  C   UNL     1      11.064   9.633  22.704  0.00  0.00    +0.039 C 
ENDROOT
BRANCH   8  12
ATOM     12  C   UNL     1      12.760   9.331  17.089  0.00  0.00    -0.013 C 
ATOM     17  C   UNL     1      11.450   9.035  16.366  0.00  0.00    +0.007 C 
ATOM     18  C   UNL     1      13.884   8.450  16.552  0.00  0.00    +0.007 C 
ENDBRANCH   8  12
BRANCH   9  15
ATOM     15  C   UNL     1      14.544  10.528  19.436  0.00  0.00    +0.112 C 
BRANCH  15   4
ATOM      1  O   UNL     1      17.059  11.933  19.709  0.00  0.00    -0.274 OA
ATOM      4  N   UNL     1      14.946  11.383  20.508  0.00  0.00    -0.314 N 
ATOM     21  C   UNL     1      16.183  12.028  20.566  0.00  0.00    +0.227 C 
ATOM     33  H   UNL     1      14.268  11.577  21.239  0.00  0.00    +0.149 HD
BRANCH  21  24
ATOM     24  C   UNL     1      16.351  12.845  21.830  0.00  0.00    +0.180 C 
BRANCH  24   7
ATOM      7  N   UNL     1      16.619  11.942  22.940  0.00  0.00    -0.300 NA
ATOM     29  C   UNL     1      15.560  12.033  23.949  0.00  0.00    +0.105 C 
ATOM     30  C   UNL     1      17.920  12.236  23.545  0.00  0.00    +0.105 C 
ENDBRANCH  24   7
ENDBRANCH  21  24
ENDBRANCH  15   4
ENDBRANCH   9  15
BRANCH  11  16
ATOM     16  C   UNL     1      11.442   7.077  20.796  0.00  0.00    +0.082 C 
BRANCH  16  20
ATOM      5  N   UNL     1      13.783   7.320  21.642  0.00  0.00    -0.342 N 
ATOM      6  N   UNL     1      13.578   6.588  19.553  0.00  0.00    -0.232 NA
ATOM     20  C   UNL     1      12.932   6.981  20.628  0.00  0.00    +0.109 A 
ATOM     22  C   UNL     1      15.065   7.131  21.192  0.00  0.00    +0.067 A 
ATOM     23  C   UNL     1      14.910   6.675  19.886  0.00  0.00    +0.089 A 
ATOM     25  C   UNL     1      16.309   7.315  21.796  0.00  0.00    +0.042 A 
ATOM     26  C   UNL     1      16.052   6.380  19.123  0.00  0.00    +0.030 A 
ATOM     27  C   UNL     1      17.436   7.017  21.023  0.00  0.00    +0.061 A 
ATOM     28  C   UNL     1      17.311   6.557  19.709  0.00  0.00    +0.017 A 
ATOM     34  H   UNL     1      13.519   7.649  22.561  0.00  0.00    +0.167 HD
BRANCH  27  31
ATOM      3  O   UNL     1      19.657   6.337  21.560  0.00  0.00    -0.245 OA
ATOM     31  C   UNL     1      18.761   7.190  21.598  0.00  0.00    +0.339 C 
BRANCH  31   2
ATOM      2  O   UNL     1      18.894   8.416  22.190  0.00  0.00    -0.464 OA
ATOM     32  C   UNL     1      19.174   9.523  21.326  0.00  0.00    +0.280 C 
ENDBRANCH  31   2
ENDBRANCH  27  31
ENDBRANCH  16  20
ENDBRANCH  11  16
TORSDOF 9
ENDMDL
MODEL 6
REMARK VINA RESULT:      -6.2     16.502     20.409
REMARK  Name = 71693183
REMARK  15 active torsions:
REMARK  status: ('A' for Active; 'I' for Inactive)
REMARK    1  A    between atoms: O_2  and  C_31
REMARK    2  A    between atoms: O_2  and  C_32
REMARK    3  A    between atoms: N_4  and  C_15
REMARK    4  A    between atoms: N_7  and  C_24
REMARK    5  A    between atoms: N_7  and  C_29
REMARK    6  A    between atoms: N_7  and  C_30
REMARK    7  A    between atoms: C_8  and  C_12
REMARK    8  A    between atoms: C_9  and  C_15
REMARK    9  A    between atoms: C_11  and  C_16
REMARK   10  A    between atoms: C_12  and  C_17
REMARK   11  A    between atoms: C_12  and  C_18
REMARK   12  A    between atoms: C_13  and  C_19
REMARK   13  A    between atoms: C_16  and  C_20
REMARK   14  A    between atoms: C_21  and  C_24
REMARK   15  A    between atoms: C_27  and  C_31
REMARK                            x       y       z     vdW  Elec       q    Type
REMARK                         _______ _______ _______ _____ _____    ______ ____
ROOT
ATOM      8  C   UNL     1       9.137   8.161   5.062  0.00  0.00    +0.000 C 
ATOM      9  C   UNL     1       8.780   8.945   6.350  0.00  0.00    +0.032 C 
ATOM     10  C   UNL     1       8.556   6.740   5.120  0.00  0.00    +0.012 C 
ATOM     11  C   UNL     1       9.075   5.947   6.334  0.00  0.00    +0.022 C 
ATOM     13  C   UNL     1       9.004   6.760   7.611  0.00  0.00    -0.073 C 
ATOM     14  C   UNL     1       8.857   8.097   7.598  0.00  0.00    -0.022 C 
ATOM     19  C   UNL     1       9.057   5.996   8.905  0.00  0.00    +0.039 C 
ENDROOT
BRANCH   8  12
ATOM     12  C   UNL     1       8.636   8.876   3.804  0.00  0.00    -0.013 C 
ATOM     17  C   UNL     1       7.168   9.260   3.960  0.00  0.00    +0.007 C 
ATOM     18  C   UNL     1       8.836   7.994   2.575  0.00  0.00    +0.007 C 
ENDBRANCH   8  12
BRANCH   9  15
ATOM     15  C   UNL     1       9.674  10.179   6.514  0.00  0.00    +0.112 C 
BRANCH  15   4
ATOM      1  O   UNL     1      11.862  10.476   8.385  0.00  0.00    -0.274 OA
ATOM      4  N   UNL     1      11.047   9.841   6.302  0.00  0.00    -0.314 N 
ATOM     21  C   UNL     1      12.047  10.015   7.261  0.00  0.00    +0.227 C 
ATOM     33  H   UNL     1      11.295   9.396   5.423  0.00  0.00    +0.149 HD
BRANCH  21  24
ATOM     24  C   UNL     1      13.414   9.603   6.753  0.00  0.00    +0.180 C 
BRANCH  24   7
ATOM      7  N   UNL     1      13.281   8.357   6.011  0.00  0.00    -0.300 NA
ATOM     29  C   UNL     1      13.651   7.213   6.848  0.00  0.00    +0.105 C 
ATOM     30  C   UNL     1      14.105   8.384   4.800  0.00  0.00    +0.105 C 
ENDBRANCH  24   7
ENDBRANCH  21  24
ENDBRANCH  15   4
ENDBRANCH   9  15
BRANCH  11  16
ATOM     16  C   UNL     1      10.499   5.433   6.090  0.00  0.00    +0.082 C 
BRANCH  16  20
ATOM      5  N   UNL     1      11.787   5.981   4.017  0.00  0.00    -0.342 N 
ATOM      6  N   UNL     1      10.144   4.503   3.777  0.00  0.00    -0.232 NA
ATOM     20  C   UNL     1      10.783   5.280   4.623  0.00  0.00    +0.109 A 
ATOM     22  C   UNL     1      11.799   5.633   2.691  0.00  0.00    +0.067 A 
ATOM     23  C   UNL     1      10.764   4.710   2.566  0.00  0.00    +0.089 A 
ATOM     25  C   UNL     1      12.600   6.034   1.621  0.00  0.00    +0.042 A 
ATOM     26  C   UNL     1      10.499   4.144   1.308  0.00  0.00    +0.030 A 
ATOM     27  C   UNL     1      12.322   5.461   0.376  0.00  0.00    +0.061 A 
ATOM     28  C   UNL     1      11.290   4.532   0.220  0.00  0.00    +0.017 A 
ATOM     34  H   UNL     1      12.412   6.638   4.464  0.00  0.00    +0.167 HD
BRANCH  27  31
ATOM      3  O   UNL     1      13.458   7.002  -1.045  0.00  0.00    -0.245 OA
ATOM     31  C   UNL     1      13.124   5.841  -0.777  0.00  0.00    +0.339 C 
BRANCH  31   2
ATOM      2  O   UNL     1      13.465   4.752  -1.532  0.00  0.00    -0.464 OA
ATOM     32  C   UNL     1      14.798   4.251  -1.378  0.00  0.00    +0.280 C 
ENDBRANCH  31   2
ENDBRANCH  27  31
ENDBRANCH  16  20
ENDBRANCH  11  16
TORSDOF 9
ENDMDL
MODEL 7
REMARK VINA RESULT:      -6.0     29.246     33.452
REMARK  Name = 71693183
REMARK  15 active torsions:
REMARK  status: ('A' for Active; 'I' for Inactive)
REMARK    1  A    between atoms: O_2  and  C_31
REMARK    2  A    between atoms: O_2  and  C_32
REMARK    3  A    between atoms: N_4  and  C_15
REMARK    4  A    between atoms: N_7  and  C_24
REMARK    5  A    between atoms: N_7  and  C_29
REMARK    6  A    between atoms: N_7  and  C_30
REMARK    7  A    between atoms: C_8  and  C_12
REMARK    8  A    between atoms: C_9  and  C_15
REMARK    9  A    between atoms: C_11  and  C_16
REMARK   10  A    between atoms: C_12  and  C_17
REMARK   11  A    between atoms: C_12  and  C_18
REMARK   12  A    between atoms: C_13  and  C_19
REMARK   13  A    between atoms: C_16  and  C_20
REMARK   14  A    between atoms: C_21  and  C_24
REMARK   15  A    between atoms: C_27  and  C_31
REMARK                            x       y       z     vdW  Elec       q    Type
REMARK                         _______ _______ _______ _____ _____    ______ ____
ROOT
ATOM      8  C   UNL     1     -14.961   7.972  21.206  0.00  0.00    +0.000 C 
ATOM      9  C   UNL     1     -13.518   7.815  20.664  0.00  0.00    +0.032 C 
ATOM     10  C   UNL     1     -15.023   7.573  22.689  0.00  0.00    +0.012 C 
ATOM     11  C   UNL     1     -14.570   6.119  22.920  0.00  0.00    +0.022 C 
ATOM     13  C   UNL     1     -13.280   5.808  22.189  0.00  0.00    -0.073 C 
ATOM     14  C   UNL     1     -12.819   6.585  21.193  0.00  0.00    -0.022 C 
ATOM     19  C   UNL     1     -12.506   4.608  22.660  0.00  0.00    +0.039 C 
ENDROOT
BRANCH   8  12
ATOM     12  C   UNL     1     -15.481   9.402  21.031  0.00  0.00    -0.013 C 
ATOM     17  C   UNL     1     -14.934  10.305  22.132  0.00  0.00    +0.007 C 
ATOM     18  C   UNL     1     -17.007   9.417  21.029  0.00  0.00    +0.007 C 
ENDBRANCH   8  12
BRANCH   9  15
ATOM     15  C   UNL     1     -13.502   7.792  19.131  0.00  0.00    +0.112 C 
BRANCH  15   4
ATOM      1  O   UNL     1     -10.949   6.767  18.232  0.00  0.00    -0.274 OA
ATOM      4  N   UNL     1     -12.396   8.544  18.624  0.00  0.00    -0.314 N 
ATOM     21  C   UNL     1     -11.193   7.972  18.208  0.00  0.00    +0.227 C 
ATOM     33  H   UNL     1     -12.519   9.546  18.507  0.00  0.00    +0.149 HD
BRANCH  21  24
ATOM     24  C   UNL     1     -10.188   9.008  17.748  0.00  0.00    +0.180 C 
BRANCH  24   7
ATOM      7  N   UNL     1     -10.904  10.219  17.371  0.00  0.00    -0.300 NA
ATOM     29  C   UNL     1     -10.871  10.408  15.918  0.00  0.00    +0.105 C 
ATOM     30  C   UNL     1     -10.335  11.388  18.045  0.00  0.00    +0.105 C 
ENDBRANCH  24   7
ENDBRANCH  21  24
ENDBRANCH  15   4
ENDBRANCH   9  15
BRANCH  11  16
ATOM     16  C   UNL     1     -15.674   5.128  22.532  0.00  0.00    +0.082 C 
BRANCH  16  20
ATOM      5  N   UNL     1     -15.756   4.500  24.951  0.00  0.00    -0.342 N 
ATOM      6  N   UNL     1     -16.394   2.925  23.518  0.00  0.00    -0.232 NA
ATOM     20  C   UNL     1     -15.953   4.157  23.643  0.00  0.00    +0.109 A 
ATOM     22  C   UNL     1     -16.094   3.417  25.723  0.00  0.00    +0.067 A 
ATOM     23  C   UNL     1     -16.488   2.448  24.805  0.00  0.00    +0.089 A 
ATOM     25  C   UNL     1     -16.088   3.209  27.102  0.00  0.00    +0.042 A 
ATOM     26  C   UNL     1     -16.904   1.190  25.272  0.00  0.00    +0.030 A 
ATOM     27  C   UNL     1     -16.506   1.951  27.551  0.00  0.00    +0.061 A 
ATOM     28  C   UNL     1     -16.906   0.958  26.653  0.00  0.00    +0.017 A 
ATOM     34  H   UNL     1     -15.424   5.391  25.293  0.00  0.00    +0.167 HD
BRANCH  27  31
ATOM      3  O   UNL     1     -16.859   2.489  29.846  0.00  0.00    -0.245 OA
ATOM     31  C   UNL     1     -16.520   1.674  28.979  0.00  0.00    +0.339 C 
BRANCH  31   2
ATOM      2  O   UNL     1     -16.111   0.396  29.246  0.00  0.00    -0.464 OA
ATOM     32  C   UNL     1     -14.815   0.243  29.836  0.00  0.00    +0.280 C 
ENDBRANCH  31   2
ENDBRANCH  27  31
ENDBRANCH  16  20
ENDBRANCH  11  16
TORSDOF 9
ENDMDL
MODEL 8
REMARK VINA RESULT:      -6.0     29.026     32.253
REMARK  Name = 71693183
REMARK  15 active torsions:
REMARK  status: ('A' for Active; 'I' for Inactive)
REMARK    1  A    between atoms: O_2  and  C_31
REMARK    2  A    between atoms: O_2  and  C_32
REMARK    3  A    between atoms: N_4  and  C_15
REMARK    4  A    between atoms: N_7  and  C_24
REMARK    5  A    between atoms: N_7  and  C_29
REMARK    6  A    between atoms: N_7  and  C_30
REMARK    7  A    between atoms: C_8  and  C_12
REMARK    8  A    between atoms: C_9  and  C_15
REMARK    9  A    between atoms: C_11  and  C_16
REMARK   10  A    between atoms: C_12  and  C_17
REMARK   11  A    between atoms: C_12  and  C_18
REMARK   12  A    between atoms: C_13  and  C_19
REMARK   13  A    between atoms: C_16  and  C_20
REMARK   14  A    between atoms: C_21  and  C_24
REMARK   15  A    between atoms: C_27  and  C_31
REMARK                            x       y       z     vdW  Elec       q    Type
REMARK                         _______ _______ _______ _____ _____    ______ ____
ROOT
ATOM      8  C   UNL     1      -6.537  -9.547   9.551  0.00  0.00    +0.000 C 
ATOM      9  C   UNL     1      -5.482  -9.162   8.483  0.00  0.00    +0.032 C 
ATOM     10  C   UNL     1      -6.174  -8.929  10.910  0.00  0.00    +0.012 C 
ATOM     11  C   UNL     1      -4.789  -9.386  11.406  0.00  0.00    +0.022 C 
ATOM     13  C   UNL     1      -3.741  -9.288  10.317  0.00  0.00    -0.073 C 
ATOM     14  C   UNL     1      -4.069  -9.175   9.018  0.00  0.00    -0.022 C 
ATOM     19  C   UNL     1      -2.303  -9.276  10.759  0.00  0.00    +0.039 C 
ENDROOT
BRANCH   8  12
ATOM     12  C   UNL     1      -7.946  -9.108   9.141  0.00  0.00    -0.013 C 
ATOM     17  C   UNL     1      -7.931  -7.665   8.645  0.00  0.00    +0.007 C 
ATOM     18  C   UNL     1      -8.914  -9.268  10.310  0.00  0.00    +0.007 C 
ENDBRANCH   8  12
BRANCH   9  15
ATOM     15  C   UNL     1      -5.573 -10.080   7.259  0.00  0.00    +0.112 C 
BRANCH  15   4
ATOM      1  O   UNL     1      -4.113 -11.787   5.434  0.00  0.00    -0.274 OA
ATOM      4  N   UNL     1      -5.001 -11.359   7.540  0.00  0.00    -0.314 N 
ATOM     21  C   UNL     1      -4.307 -12.124   6.601  0.00  0.00    +0.227 C 
ATOM     33  H   UNL     1      -5.054 -11.701   8.495  0.00  0.00    +0.149 HD
BRANCH  21  24
ATOM     24  C   UNL     1      -3.838 -13.449   7.166  0.00  0.00    +0.180 C 
BRANCH  24   7
ATOM      7  N   UNL     1      -3.822 -14.435   6.095  0.00  0.00    -0.300 NA
ATOM     29  C   UNL     1      -5.079 -15.188   6.065  0.00  0.00    +0.105 C 
ATOM     30  C   UNL     1      -2.689 -15.351   6.251  0.00  0.00    +0.105 C 
ENDBRANCH  24   7
ENDBRANCH  21  24
ENDBRANCH  15   4
ENDBRANCH   9  15
BRANCH  11  16
ATOM     16  C   UNL     1      -4.849 -10.805  11.984  0.00  0.00    +0.082 C 
BRANCH  16  20
ATOM      5  N   UNL     1      -6.103 -10.732  14.147  0.00  0.00    -0.342 N 
ATOM      6  N   UNL     1      -3.888 -10.805  14.312  0.00  0.00    -0.232 NA
ATOM     20  C   UNL     1      -4.909 -10.783  13.485  0.00  0.00    +0.109 A 
ATOM     22  C   UNL     1      -5.836 -10.723  15.492  0.00  0.00    +0.067 A 
ATOM     23  C   UNL     1      -4.446 -10.768  15.569  0.00  0.00    +0.089 A 
ATOM     25  C   UNL     1      -6.664 -10.679  16.614  0.00  0.00    +0.042 A 
ATOM     26  C   UNL     1      -3.830 -10.771  16.831  0.00  0.00    +0.030 A 
ATOM     27  C   UNL     1      -6.034 -10.682  17.863  0.00  0.00    +0.061 A 
ATOM     28  C   UNL     1      -4.642 -10.727  17.971  0.00  0.00    +0.017 A 
ATOM     34  H   UNL     1      -7.021 -10.709  13.724  0.00  0.00    +0.167 HD
BRANCH  27  31
ATOM      3  O   UNL     1      -6.396 -10.732  20.219  0.00  0.00    -0.245 OA
ATOM     31  C   UNL     1      -6.845 -10.637  19.070  0.00  0.00    +0.339 C 
BRANCH  31   2
ATOM      2  O   UNL     1      -8.172 -10.475  18.776  0.00  0.00    -0.464 OA
ATOM     32  C   UNL     1      -9.106 -11.190  19.593  0.00  0.00    +0.280 C 
ENDBRANCH  31   2
ENDBRANCH  27  31
ENDBRANCH  16  20
ENDBRANCH  11  16
TORSDOF 9
ENDMDL
MODEL 9
REMARK VINA RESULT:      -6.0     15.507     20.243
REMARK  Name = 71693183
REMARK  15 active torsions:
REMARK  status: ('A' for Active; 'I' for Inactive)
REMARK    1  A    between atoms: O_2  and  C_31
REMARK    2  A    between atoms: O_2  and  C_32
REMARK    3  A    between atoms: N_4  and  C_15
REMARK    4  A    between atoms: N_7  and  C_24
REMARK    5  A    between atoms: N_7  and  C_29
REMARK    6  A    between atoms: N_7  and  C_30
REMARK    7  A    between atoms: C_8  and  C_12
REMARK    8  A    between atoms: C_9  and  C_15
REMARK    9  A    between atoms: C_11  and  C_16
REMARK   10  A    between atoms: C_12  and  C_17
REMARK   11  A    between atoms: C_12  and  C_18
REMARK   12  A    between atoms: C_13  and  C_19
REMARK   13  A    between atoms: C_16  and  C_20
REMARK   14  A    between atoms: C_21  and  C_24
REMARK   15  A    between atoms: C_27  and  C_31
REMARK                            x       y       z     vdW  Elec       q    Type
REMARK                         _______ _______ _______ _____ _____    ______ ____
ROOT
ATOM      8  C   UNL     1       9.108   8.241   5.288  0.00  0.00    +0.000 C 
ATOM      9  C   UNL     1       8.709   8.768   6.689  0.00  0.00    +0.032 C 
ATOM     10  C   UNL     1       8.641   6.788   5.109  0.00  0.00    +0.012 C 
ATOM     11  C   UNL     1       9.240   5.848   6.173  0.00  0.00    +0.022 C 
ATOM     13  C   UNL     1       9.124   6.429   7.567  0.00  0.00    -0.073 C 
ATOM     14  C   UNL     1       8.872   7.733   7.778  0.00  0.00    -0.022 C 
ATOM     19  C   UNL     1       9.256   5.467   8.716  0.00  0.00    +0.039 C 
ENDROOT
BRANCH   8  12
ATOM     12  C   UNL     1       8.533   9.112   4.168  0.00  0.00    -0.013 C 
ATOM     17  C   UNL     1       7.089   9.494   4.479  0.00  0.00    +0.007 C 
ATOM     18  C   UNL     1       8.624   8.387   2.829  0.00  0.00    +0.007 C 
ENDBRANCH   8  12
BRANCH   9  15
ATOM     15  C   UNL     1       9.506  10.025   7.056  0.00  0.00    +0.112 C 
BRANCH  15   4
ATOM      1  O   UNL     1       8.937  12.525   8.398  0.00  0.00    -0.274 OA
ATOM      4  N   UNL     1       9.460  10.261   8.465  0.00  0.00    -0.314 N 
ATOM     21  C   UNL     1       9.176  11.503   9.036  0.00  0.00    +0.227 C 
ATOM     33  H   UNL     1       9.585   9.464   9.083  0.00  0.00    +0.149 HD
BRANCH  21  24
ATOM     24  C   UNL     1       9.227  11.469  10.550  0.00  0.00    +0.180 C 
BRANCH  24   7
ATOM      7  N   UNL     1       9.997  12.612  11.019  0.00  0.00    -0.300 NA
ATOM     29  C   UNL     1      11.136  12.172  11.829  0.00  0.00    +0.105 C 
ATOM     30  C   UNL     1       9.150  13.525  11.791  0.00  0.00    +0.105 C 
ENDBRANCH  24   7
ENDBRANCH  21  24
ENDBRANCH  15   4
ENDBRANCH   9  15
BRANCH  11  16
ATOM     16  C   UNL     1      10.697   5.498   5.844  0.00  0.00    +0.082 C 
BRANCH  16  20
ATOM      5  N   UNL     1      10.352   4.614   3.530  0.00  0.00    -0.342 N 
ATOM      6  N   UNL     1      11.717   6.359   3.709  0.00  0.00    -0.232 NA
ATOM     20  C   UNL     1      10.945   5.521   4.363  0.00  0.00    +0.109 A 
ATOM     22  C   UNL     1      10.768   4.886   2.252  0.00  0.00    +0.067 A 
ATOM     23  C   UNL     1      11.620   5.979   2.390  0.00  0.00    +0.089 A 
ATOM     25  C   UNL     1      10.484   4.288   1.024  0.00  0.00    +0.042 A 
ATOM     26  C   UNL     1      12.231   6.520   1.248  0.00  0.00    +0.030 A 
ATOM     27  C   UNL     1      11.100   4.840  -0.104  0.00  0.00    +0.061 A 
ATOM     28  C   UNL     1      11.959   5.936   0.004  0.00  0.00    +0.017 A 
ATOM     34  H   UNL     1       9.718   3.875   3.803  0.00  0.00    +0.167 HD
BRANCH  27  31
ATOM      3  O   UNL     1       9.729   4.219  -1.953  0.00  0.00    -0.245 OA
ATOM     31  C   UNL     1      10.842   4.258  -1.412  0.00  0.00    +0.339 C 
BRANCH  31   2
ATOM      2  O   UNL     1      11.985   3.758  -1.973  0.00  0.00    -0.464 OA
ATOM     32  C   UNL     1      12.022   2.347  -2.213  0.00  0.00    +0.280 C 
ENDBRANCH  31   2
ENDBRANCH  27  31
ENDBRANCH  16  20
ENDBRANCH  11  16
TORSDOF 9
ENDMDL
MODEL 10
REMARK VINA RESULT:      -5.9     29.786     32.441
REMARK  Name = 71693183
REMARK  15 active torsions:
REMARK  status: ('A' for Active; 'I' for Inactive)
REMARK    1  A    between atoms: O_2  and  C_31
REMARK    2  A    between atoms: O_2  and  C_32
REMARK    3  A    between atoms: N_4  and  C_15
REMARK    4  A    between atoms: N_7  and  C_24
REMARK    5  A    between atoms: N_7  and  C_29
REMARK    6  A    between atoms: N_7  and  C_30
REMARK    7  A    between atoms: C_8  and  C_12
REMARK    8  A    between atoms: C_9  and  C_15
REMARK    9  A    between atoms: C_11  and  C_16
REMARK   10  A    between atoms: C_12  and  C_17
REMARK   11  A    between atoms: C_12  and  C_18
REMARK   12  A    between atoms: C_13  and  C_19
REMARK   13  A    between atoms: C_16  and  C_20
REMARK   14  A    between atoms: C_21  and  C_24
REMARK   15  A    between atoms: C_27  and  C_31
REMARK                            x       y       z     vdW  Elec       q    Type
REMARK                         _______ _______ _______ _____ _____    ______ ____
ROOT
ATOM      8  C   UNL     1     -12.803  10.425  21.244  0.00  0.00    +0.000 C 
ATOM      9  C   UNL     1     -11.581  10.622  20.312  0.00  0.00    +0.032 C 
ATOM     10  C   UNL     1     -12.735   9.052  21.933  0.00  0.00    +0.012 C 
ATOM     11  C   UNL     1     -12.702   7.893  20.919  0.00  0.00    +0.022 C 
ATOM     13  C   UNL     1     -11.700   8.143  19.810  0.00  0.00    -0.073 C 
ATOM     14  C   UNL     1     -11.200   9.367  19.563  0.00  0.00    -0.022 C 
ATOM     19  C   UNL     1     -11.250   6.946  19.020  0.00  0.00    +0.039 C 
ENDROOT
BRANCH   8  12
ATOM     12  C   UNL     1     -12.898  11.531  22.299  0.00  0.00    -0.013 C 
ATOM     17  C   UNL     1     -12.099  11.150  23.542  0.00  0.00    +0.007 C 
ATOM     18  C   UNL     1     -14.356  11.802  22.656  0.00  0.00    +0.007 C 
ENDBRANCH   8  12
BRANCH   9  15
ATOM     15  C   UNL     1     -11.825  11.759  19.313  0.00  0.00    +0.112 C 
BRANCH  15   4
ATOM      1  O   UNL     1      -9.751  12.670  17.511  0.00  0.00    -0.274 OA
ATOM      4  N   UNL     1     -11.586  11.319  17.975  0.00  0.00    -0.314 N 
ATOM     21  C   UNL     1     -10.559  11.809  17.166  0.00  0.00    +0.227 C 
ATOM     33  H   UNL     1     -12.162  10.563  17.615  0.00  0.00    +0.149 HD
BRANCH  21  24
ATOM     24  C   UNL     1     -10.561  11.186  15.786  0.00  0.00    +0.180 C 
BRANCH  24   7
ATOM      7  N   UNL     1     -11.405  10.000  15.809  0.00  0.00    -0.300 NA
ATOM     29  C   UNL     1     -10.590   8.783  15.766  0.00  0.00    +0.105 C 
ATOM     30  C   UNL     1     -12.350  10.015  14.689  0.00  0.00    +0.105 C 
ENDBRANCH  24   7
ENDBRANCH  21  24
ENDBRANCH  15   4
ENDBRANCH   9  15
BRANCH  11  16
ATOM     16  C   UNL     1     -14.097   7.619  20.347  0.00  0.00    +0.082 C 
BRANCH  16  20
ATOM      5  N   UNL     1     -14.249   5.999  22.247  0.00  0.00    -0.342 N 
ATOM      6  N   UNL     1     -16.022   6.095  20.910  0.00  0.00    -0.232 NA
ATOM     20  C   UNL     1     -14.821   6.573  21.146  0.00  0.00    +0.109 A 
ATOM     22  C   UNL     1     -15.142   5.091  22.757  0.00  0.00    +0.067 A 
ATOM     23  C   UNL     1     -16.240   5.170  21.905  0.00  0.00    +0.089 A 
ATOM     25  C   UNL     1     -15.085   4.234  23.856  0.00  0.00    +0.042 A 
ATOM     26  C   UNL     1     -17.356   4.352  22.148  0.00  0.00    +0.030 A 
ATOM     27  C   UNL     1     -16.205   3.427  24.084  0.00  0.00    +0.061 A 
ATOM     28  C   UNL     1     -17.322   3.484  23.246  0.00  0.00    +0.017 A 
ATOM     34  H   UNL     1     -13.334   6.206  22.622  0.00  0.00    +0.167 HD
BRANCH  27  31
ATOM      3  O   UNL     1     -16.396   1.293  25.129  0.00  0.00    -0.245 OA
ATOM     31  C   UNL     1     -16.204   2.512  25.216  0.00  0.00    +0.339 C 
BRANCH  31   2
ATOM      2  O   UNL     1     -15.965   3.169  26.391  0.00  0.00    -0.464 OA
ATOM     32  C   UNL     1     -16.358   2.501  27.596  0.00  0.00    +0.280 C 
ENDBRANCH  31   2
ENDBRANCH  27  31
ENDBRANCH  16  20
ENDBRANCH  11  16
TORSDOF 9
ENDMDL
