REMARK  Name = 45360936
REMARK  11 active torsions:
REMARK  status: ('A' for Active; 'I' for Inactive)
REMARK    1  A    between atoms: O_3  and  C_26
REMARK    2  A    between atoms: O_4  and  C_33
REMARK    3  A    between atoms: O_4  and  C_34
REMARK    4  A    between atoms: N_5  and  C_16
REMARK    5  A    between atoms: N_6  and  C_18
REMARK    6  A    between atoms: N_8  and  C_27
REMARK    7  A    between atoms: C_13  and  C_17
REMARK    8  A    between atoms: C_16  and  C_20
REMARK    9  A    between atoms: C_17  and  C_19
REMARK   10  A    between atoms: C_19  and  C_21
REMARK   11  A    between atoms: C_27  and  C_28
REMARK                            x       y       z     vdW  Elec       q    Type
REMARK                         _______ _______ _______ _____ _____    ______ ____
ROOT
ATOM      1  O   UNL     1       2.663  -2.662   0.494  0.00  0.00    -0.274 OA
ATOM      5  N   UNL     1       2.678  -0.028  -0.102  0.00  0.00    -0.286 NA
ATOM      6  N   UNL     1      -0.539  -1.348  -1.243  0.00  0.00    -0.296 NA
ATOM      7  N   UNL     1       0.455  -2.720   1.093  0.00  0.00    -0.312 N 
ATOM      9  C   UNL     1       0.359  -0.268  -0.777  0.00  0.00    +0.084 C 
ATOM     10  C   UNL     1       1.390  -0.592   0.344  0.00  0.00    +0.161 C 
ATOM     11  C   UNL     1       1.259   0.317  -1.881  0.00  0.00    +0.036 C 
ATOM     12  C   UNL     1       2.377   0.984  -1.108  0.00  0.00    +0.087 C 
ATOM     13  C   UNL     1      -1.474  -1.863  -0.204  0.00  0.00    +0.074 C 
ATOM     14  C   UNL     1       1.588  -2.079   0.629  0.00  0.00    +0.232 C 
ATOM     15  C   UNL     1      -0.844  -2.083   1.185  0.00  0.00    +0.123 C 
ATOM     18  C   UNL     1      -1.287  -0.927  -2.439  0.00  0.00    +0.105 C 
ATOM     35  H   UNL     1       0.524  -3.707   1.323  0.00  0.00    +0.149 HD
ENDROOT
BRANCH   5  16
ATOM     16  C   UNL     1       3.483   0.506   0.990  0.00  0.00    +0.120 C 
BRANCH  16  20
ATOM     20  C   UNL     1       4.940   0.593   0.621  0.00  0.00    -0.033 A 
ATOM     22  C   UNL     1       5.725  -0.560   0.601  0.00  0.00    +0.008 A 
ATOM     23  C   UNL     1       5.505   1.827   0.300  0.00  0.00    +0.008 A 
ATOM     24  C   UNL     1       7.075  -0.479   0.260  0.00  0.00    +0.046 A 
ATOM     25  C   UNL     1       6.855   1.908  -0.041  0.00  0.00    +0.046 A 
ATOM     26  C   UNL     1       7.640   0.755  -0.061  0.00  0.00    +0.117 A 
BRANCH  26   3
ATOM      3  O   UNL     1       8.957   0.834  -0.395  0.00  0.00    -0.507 OA
ATOM     37  H   UNL     1       9.178   1.762  -0.587  0.00  0.00    +0.292 HD
ENDBRANCH  26   3
ENDBRANCH  16  20
ENDBRANCH   5  16
BRANCH  13  17
ATOM     17  C   UNL     1      -2.091  -3.205  -0.651  0.00  0.00    +0.029 C 
BRANCH  17  19
ATOM     19  C   UNL     1      -3.420  -3.442   0.041  0.00  0.00    +0.097 C 
BRANCH  19  21
ATOM      2  O   UNL     1      -4.799  -2.088  -1.418  0.00  0.00    -0.276 OA
ATOM      8  N   UNL     1      -4.840  -1.687   0.868  0.00  0.00    -0.311 N 
ATOM     21  C   UNL     1      -4.421  -2.346  -0.278  0.00  0.00    +0.213 C 
ATOM     36  H   UNL     1      -4.458  -1.946   1.772  0.00  0.00    +0.149 HD
BRANCH   8  27
ATOM     27  C   UNL     1      -5.792  -0.602   0.829  0.00  0.00    +0.139 C 
BRANCH  27  28
ATOM     28  C   UNL     1      -5.114   0.734   0.672  0.00  0.00    -0.030 A 
ATOM     29  C   UNL     1      -4.477   1.325   1.763  0.00  0.00    +0.009 A 
ATOM     30  C   UNL     1      -5.122   1.379  -0.565  0.00  0.00    +0.009 A 
ATOM     31  C   UNL     1      -3.848   2.562   1.618  0.00  0.00    +0.046 A 
ATOM     32  C   UNL     1      -4.493   2.615  -0.710  0.00  0.00    +0.046 A 
ATOM     33  C   UNL     1      -3.857   3.207   0.381  0.00  0.00    +0.120 A 
BRANCH  33   4
ATOM      4  O   UNL     1      -3.243   4.413   0.239  0.00  0.00    -0.495 OA
ATOM     34  C   UNL     1      -3.289   5.017  -1.053  0.00  0.00    +0.277 C 
ENDBRANCH  33   4
ENDBRANCH  27  28
ENDBRANCH   8  27
ENDBRANCH  19  21
ENDBRANCH  17  19
ENDBRANCH  13  17
TORSDOF 9
