REMARK  Name = 11911845
REMARK  5 active torsions:
REMARK  status: ('A' for Active; 'I' for Inactive)
REMARK    1  A    between atoms: S_1  and  C_18
REMARK    2  A    between atoms: S_1  and  C_21
REMARK    3  A    between atoms: O_4  and  C_11
REMARK    4  A    between atoms: N_6  and  C_10
REMARK    5  A    between atoms: N_7  and  C_15
REMARK                            x       y       z     vdW  Elec       q    Type
REMARK                         _______ _______ _______ _____ _____    ______ ____
ROOT
ATOM      5  O   UNL     1       0.156   1.828  -0.556  0.00  0.00    -0.252 OA
ATOM      6  N   UNL     1      -0.963  -0.194  -0.627  0.00  0.00    -0.292 N 
ATOM      7  N   UNL     1       1.294  -0.194  -0.202  0.00  0.00    -0.269 N 
ATOM     14  C   UNL     1       0.177   0.603  -0.467  0.00  0.00    +0.304 C 
ATOM     22  H   UNL     1      -0.876  -1.194  -0.471  0.00  0.00    +0.151 HD
ATOM     24  H   UNL     1       1.138  -1.198  -0.163  0.00  0.00    +0.156 HD
ENDROOT
BRANCH   6  10
ATOM      2  O   UNL     1      -3.799  -1.466  -0.701  0.00  0.00    -0.369 OA
ATOM      3  O   UNL     1      -4.136   1.457   0.166  0.00  0.00    -0.369 OA
ATOM      8  C   UNL     1      -3.060   0.517   0.368  0.00  0.00    +0.172 C 
ATOM      9  C   UNL     1      -3.698  -0.840   0.589  0.00  0.00    +0.179 C 
ATOM     10  C   UNL     1      -2.274   0.348  -0.911  0.00  0.00    +0.131 C 
ATOM     11  C   UNL     1      -5.056  -0.477   1.141  0.00  0.00    +0.171 C 
ATOM     12  C   UNL     1      -3.110  -0.666  -1.673  0.00  0.00    +0.185 C 
ATOM     13  C   UNL     1      -5.386   0.783   0.374  0.00  0.00    +0.194 C 
BRANCH  11   4
ATOM      4  O   UNL     1      -6.026  -1.482   0.954  0.00  0.00    -0.387 OA
ATOM     23  H   UNL     1      -6.044  -1.712   0.009  0.00  0.00    +0.210 HD
ENDBRANCH  11   4
ENDBRANCH   6  10
BRANCH   7  15
ATOM     15  C   UNL     1       2.627   0.225   0.020  0.00  0.00    +0.036 A 
ATOM     16  C   UNL     1       3.605  -0.723   0.271  0.00  0.00    +0.038 A 
ATOM     17  C   UNL     1       2.926   1.577  -0.016  0.00  0.00    +0.023 A 
ATOM     18  C   UNL     1       4.918  -0.308   0.490  0.00  0.00    +0.009 A 
ATOM     19  C   UNL     1       4.239   1.993   0.204  0.00  0.00    +0.003 A 
ATOM     20  C   UNL     1       5.235   1.050   0.457  0.00  0.00    +0.015 A 
BRANCH  18   1
ATOM      1  S   UNL     1       6.192  -1.513   0.814  0.00  0.00    -0.129 S 
ATOM     21  C   UNL     1       6.141  -2.518  -0.697  0.00  0.00    +0.090 C 
ENDBRANCH  18   1
ENDBRANCH   7  15
TORSDOF 4
