REMARK  Name = 38030349
REMARK  15 active torsions:
REMARK  status: ('A' for Active; 'I' for Inactive)
REMARK    1  A    between atoms: N_2  and  C_13
REMARK    2  A    between atoms: N_2  and  C_18
REMARK    3  A    between atoms: N_2  and  C_20
REMARK    4  A    between atoms: N_4  and  C_21
REMARK    5  A    between atoms: N_4  and  C_23
REMARK    6  A    between atoms: N_4  and  C_24
REMARK    7  A    between atoms: C_6  and  C_10
REMARK    8  A    between atoms: C_7  and  C_13
REMARK    9  A    between atoms: C_9  and  C_14
REMARK   10  A    between atoms: C_10  and  C_15
REMARK   11  A    between atoms: C_10  and  C_16
REMARK   12  A    between atoms: C_11  and  C_17
REMARK   13  A    between atoms: C_14  and  C_19
REMARK   14  A    between atoms: C_18  and  C_21
REMARK   15  A    between atoms: C_22  and  C_25
REMARK                            x       y       z     vdW  Elec       q    Type
REMARK                         _______ _______ _______ _____ _____    ______ ____
ROOT
ATOM      6  C   UNL     1       3.008  -0.285  -0.756  0.00  0.00    +0.000 C 
ATOM      7  C   UNL     1       3.075  -0.412   0.784  0.00  0.00    +0.029 C 
ATOM      8  C   UNL     1       1.920   0.717  -1.166  0.00  0.00    +0.012 C 
ATOM      9  C   UNL     1       2.110   2.116  -0.543  0.00  0.00    +0.024 C 
ATOM     11  C   UNL     1       2.586   2.066   0.901  0.00  0.00    -0.073 C 
ATOM     12  C   UNL     1       3.002   0.923   1.479  0.00  0.00    -0.023 C 
ATOM     17  C   UNL     1       2.635   3.362   1.662  0.00  0.00    +0.039 C 
ENDROOT
BRANCH   6  10
ATOM     10  C   UNL     1       4.371   0.104  -1.345  0.00  0.00    -0.013 C 
ATOM     15  C   UNL     1       5.318  -1.091  -1.331  0.00  0.00    +0.007 C 
ATOM     16  C   UNL     1       4.203   0.644  -2.762  0.00  0.00    +0.007 C 
ENDBRANCH   6  10
BRANCH   7  13
ATOM     13  C   UNL     1       1.969  -1.323   1.325  0.00  0.00    +0.092 C 
BRANCH  13   2
ATOM      2  N   UNL     1       2.004  -2.600   0.685  0.00  0.00    -0.304 NA
ATOM     20  C   UNL     1       3.044  -3.470   1.264  0.00  0.00    +0.104 C 
BRANCH   2  18
ATOM     18  C   UNL     1       0.701  -3.286   0.765  0.00  0.00    +0.099 C 
BRANCH  18  21
ATOM     21  C   UNL     1      -0.266  -2.697  -0.258  0.00  0.00    +0.099 C 
BRANCH  21   4
ATOM      4  N   UNL     1      -1.550  -3.387  -0.192  0.00  0.00    -0.307 NA
ATOM     23  C   UNL     1      -2.317  -3.165  -1.418  0.00  0.00    +0.104 C 
ATOM     24  C   UNL     1      -2.314  -2.941   0.974  0.00  0.00    +0.104 C 
ENDBRANCH  21   4
ENDBRANCH  18  21
ENDBRANCH   2  18
ENDBRANCH  13   2
ENDBRANCH   7  13
BRANCH   9  14
ATOM     14  C   UNL     1       0.809   2.910  -0.715  0.00  0.00    +0.105 C 
BRANCH  14  19
ATOM      1  O   UNL     1      -1.417   1.915  -0.606  0.00  0.00    -0.420 OA
ATOM      3  N   UNL     1      -0.395   2.091   1.376  0.00  0.00    -0.112 NA
ATOM      5  N   UNL     1      -1.635   1.517   1.584  0.00  0.00    -0.107 NA
ATOM     19  C   UNL     1      -0.311   2.307   0.084  0.00  0.00    +0.218 A 
ATOM     22  C   UNL     1      -2.196   1.433   0.401  0.00  0.00    +0.248 A 
BRANCH  22  25
ATOM     25  C   UNL     1      -3.478   0.922   0.012  0.00  0.00    +0.038 A 
ATOM     26  C   UNL     1      -4.345   0.407   0.976  0.00  0.00    +0.013 A 
ATOM     27  C   UNL     1      -3.859   0.941  -1.329  0.00  0.00    +0.013 A 
ATOM     28  C   UNL     1      -5.593  -0.090   0.599  0.00  0.00    +0.001 A 
ATOM     29  C   UNL     1      -5.107   0.444  -1.707  0.00  0.00    +0.001 A 
ATOM     30  C   UNL     1      -5.973  -0.071  -0.743  0.00  0.00    +0.000 A 
ENDBRANCH  22  25
ENDBRANCH  14  19
ENDBRANCH   9  14
TORSDOF 9
