MODEL 1
REMARK VINA RESULT:      -6.4      0.000      0.000
REMARK  Name = 25389141
REMARK  10 active torsions:
REMARK  status: ('A' for Active; 'I' for Inactive)
REMARK    1  A    between atoms: N_6  and  C_15
REMARK    2  A    between atoms: N_6  and  C_17
REMARK    3  A    between atoms: N_6  and  C_18
REMARK    4  A    between atoms: N_7  and  C_16
REMARK    5  A    between atoms: C_9  and  C_15
REMARK    6  A    between atoms: C_10  and  C_16
REMARK    7  A    between atoms: C_17  and  C_20
REMARK    8  A    between atoms: C_18  and  C_21
REMARK    9  A    between atoms: C_19  and  C_22
REMARK   10  A    between atoms: C_27  and  C_28
REMARK                            x       y       z     vdW  Elec       q    Type
REMARK                         _______ _______ _______ _____ _____    ______ ____
ROOT
ATOM     16  C   UNL     1      13.867   6.598  19.885  0.00  0.00    +0.123 C 
ENDROOT
BRANCH  16  10
ATOM      5  N   UNL     1      11.543   7.439  20.312  0.00  0.00    -0.298 NA
ATOM      8  C   UNL     1      12.298   9.188  22.083  0.00  0.00    -0.003 C 
ATOM      9  C   UNL     1      11.989   9.870  20.732  0.00  0.00    +0.020 C 
ATOM     10  C   UNL     1      12.829   7.017  20.929  0.00  0.00    +0.074 C 
ATOM     11  C   UNL     1      13.376   8.109  21.875  0.00  0.00    +0.024 C 
ATOM     12  C   UNL     1      11.688   8.775  19.684  0.00  0.00    +0.089 C 
ATOM     13  C   UNL     1      11.011   8.467  22.526  0.00  0.00    +0.019 C 
ATOM     14  C   UNL     1      10.531   7.543  21.392  0.00  0.00    +0.085 C 
BRANCH   9  15
ATOM     15  C   UNL     1      13.099  10.809  20.262  0.00  0.00    +0.089 C 
BRANCH  15   6
ATOM      6  N   UNL     1      13.735  10.299  19.058  0.00  0.00    -0.303 NA
BRANCH   6  17
ATOM     17  C   UNL     1      15.173  10.116  19.268  0.00  0.00    +0.081 C 
ATOM     20  C   UNL     1      15.602  10.649  20.625  0.00  0.00    +0.020 C 
ENDBRANCH   6  17
BRANCH   6  18
ATOM     18  C   UNL     1      13.500  11.200  17.926  0.00  0.00    +0.081 C 
ATOM     21  C   UNL     1      13.761  12.645  18.312  0.00  0.00    +0.020 C 
ENDBRANCH   6  18
ENDBRANCH  15   6
ENDBRANCH   9  15
ENDBRANCH  16  10
BRANCH  16   7
ATOM      4  O   UNL     1      16.313   5.885  18.562  0.00  0.00    -0.270 OA
ATOM      7  N   UNL     1      15.216   6.781  20.396  0.00  0.00    -0.310 N 
ATOM     19  C   UNL     1      16.332   6.402  19.677  0.00  0.00    +0.244 C 
ATOM     29  H   UNL     1      15.298   7.141  21.341  0.00  0.00    +0.149 HD
BRANCH  19  22
ATOM     22  C   UNL     1      17.636   6.631  20.349  0.00  0.00    +0.037 A 
ATOM     23  C   UNL     1      18.716   5.788  20.085  0.00  0.00    +0.013 A 
ATOM     24  C   UNL     1      17.781   7.690  21.245  0.00  0.00    +0.013 A 
ATOM     25  C   UNL     1      19.940   6.004  20.717  0.00  0.00    +0.013 A 
ATOM     26  C   UNL     1      19.006   7.906  21.877  0.00  0.00    +0.013 A 
ATOM     27  C   UNL     1      20.085   7.062  21.614  0.00  0.00    +0.055 A 
BRANCH  27  28
ATOM      1  F   UNL     1      21.951   8.507  22.005  0.00  0.00    -0.166 F 
ATOM      2  F   UNL     1      22.335   6.368  21.940  0.00  0.00    -0.166 F 
ATOM      3  F   UNL     1      21.323   7.246  23.652  0.00  0.00    -0.166 F 
ATOM     28  C   UNL     1      21.395   7.293  22.289  0.00  0.00    +0.417 C 
ENDBRANCH  27  28
ENDBRANCH  19  22
ENDBRANCH  16   7
TORSDOF 8
ENDMDL
MODEL 2
REMARK VINA RESULT:      -6.1      1.864      2.751
REMARK  Name = 25389141
REMARK  10 active torsions:
REMARK  status: ('A' for Active; 'I' for Inactive)
REMARK    1  A    between atoms: N_6  and  C_15
REMARK    2  A    between atoms: N_6  and  C_17
REMARK    3  A    between atoms: N_6  and  C_18
REMARK    4  A    between atoms: N_7  and  C_16
REMARK    5  A    between atoms: C_9  and  C_15
REMARK    6  A    between atoms: C_10  and  C_16
REMARK    7  A    between atoms: C_17  and  C_20
REMARK    8  A    between atoms: C_18  and  C_21
REMARK    9  A    between atoms: C_19  and  C_22
REMARK   10  A    between atoms: C_27  and  C_28
REMARK                            x       y       z     vdW  Elec       q    Type
REMARK                         _______ _______ _______ _____ _____    ______ ____
ROOT
ATOM     16  C   UNL     1      14.516   9.423  21.998  0.00  0.00    +0.123 C 
ENDROOT
BRANCH  16  10
ATOM      5  N   UNL     1      13.270   7.433  21.116  0.00  0.00    -0.298 NA
ATOM      8  C   UNL     1      11.098   8.776  20.620  0.00  0.00    -0.003 C 
ATOM      9  C   UNL     1      11.885   8.500  19.319  0.00  0.00    +0.020 C 
ATOM     10  C   UNL     1      13.203   8.636  21.989  0.00  0.00    +0.074 C 
ATOM     11  C   UNL     1      12.001   9.530  21.613  0.00  0.00    +0.024 C 
ATOM     12  C   UNL     1      13.228   7.832  19.688  0.00  0.00    +0.089 C 
ATOM     13  C   UNL     1      10.774   7.407  21.247  0.00  0.00    +0.019 C 
ATOM     14  C   UNL     1      12.076   6.599  21.398  0.00  0.00    +0.085 C 
BRANCH   9  15
ATOM     15  C   UNL     1      12.093   9.749  18.465  0.00  0.00    +0.089 C 
BRANCH  15   6
ATOM      6  N   UNL     1      13.304   9.637  17.668  0.00  0.00    -0.303 NA
BRANCH   6  17
ATOM     17  C   UNL     1      14.029  10.911  17.644  0.00  0.00    +0.081 C 
ATOM     20  C   UNL     1      15.097  10.955  18.724  0.00  0.00    +0.020 C 
ENDBRANCH   6  17
BRANCH   6  18
ATOM     18  C   UNL     1      12.990   9.210  16.302  0.00  0.00    +0.081 C 
ATOM     21  C   UNL     1      14.220   8.658  15.604  0.00  0.00    +0.020 C 
ENDBRANCH   6  18
ENDBRANCH  15   6
ENDBRANCH   9  15
ENDBRANCH  16  10
BRANCH  16   7
ATOM      4  O   UNL     1      17.228  10.198  21.460  0.00  0.00    -0.270 OA
ATOM      7  N   UNL     1      15.652   8.536  21.812  0.00  0.00    -0.310 N 
ATOM     19  C   UNL     1      16.923   9.011  21.556  0.00  0.00    +0.244 C 
ATOM     29  H   UNL     1      15.455   7.540  21.812  0.00  0.00    +0.149 HD
BRANCH  19  22
ATOM     22  C   UNL     1      17.968   7.975  21.364  0.00  0.00    +0.037 A 
ATOM     23  C   UNL     1      19.165   8.049  22.078  0.00  0.00    +0.013 A 
ATOM     24  C   UNL     1      17.755   6.927  20.469  0.00  0.00    +0.013 A 
ATOM     25  C   UNL     1      20.147   7.076  21.897  0.00  0.00    +0.013 A 
ATOM     26  C   UNL     1      18.738   5.953  20.288  0.00  0.00    +0.013 A 
ATOM     27  C   UNL     1      19.934   6.028  21.001  0.00  0.00    +0.055 A 
BRANCH  27  28
ATOM      1  F   UNL     1      20.492   3.785  20.388  0.00  0.00    -0.166 F 
ATOM      2  F   UNL     1      21.676   4.720  21.953  0.00  0.00    -0.166 F 
ATOM      3  F   UNL     1      21.928   5.328  19.881  0.00  0.00    -0.166 F 
ATOM     28  C   UNL     1      20.985   4.987  20.808  0.00  0.00    +0.417 C 
ENDBRANCH  27  28
ENDBRANCH  19  22
ENDBRANCH  16   7
TORSDOF 8
ENDMDL
MODEL 3
REMARK VINA RESULT:      -6.0     17.546     19.619
REMARK  Name = 25389141
REMARK  10 active torsions:
REMARK  status: ('A' for Active; 'I' for Inactive)
REMARK    1  A    between atoms: N_6  and  C_15
REMARK    2  A    between atoms: N_6  and  C_17
REMARK    3  A    between atoms: N_6  and  C_18
REMARK    4  A    between atoms: N_7  and  C_16
REMARK    5  A    between atoms: C_9  and  C_15
REMARK    6  A    between atoms: C_10  and  C_16
REMARK    7  A    between atoms: C_17  and  C_20
REMARK    8  A    between atoms: C_18  and  C_21
REMARK    9  A    between atoms: C_19  and  C_22
REMARK   10  A    between atoms: C_27  and  C_28
REMARK                            x       y       z     vdW  Elec       q    Type
REMARK                         _______ _______ _______ _____ _____    ______ ____
ROOT
ATOM     16  C   UNL     1      13.208   6.851   1.987  0.00  0.00    +0.123 C 
ENDROOT
BRANCH  16  10
ATOM      5  N   UNL     1      14.804   6.122   0.194  0.00  0.00    -0.298 NA
ATOM      8  C   UNL     1      14.370   3.585   0.576  0.00  0.00    -0.003 C 
ATOM      9  C   UNL     1      13.632   4.088  -0.686  0.00  0.00    +0.020 C 
ATOM     10  C   UNL     1      14.329   5.889   1.584  0.00  0.00    +0.074 C 
ATOM     11  C   UNL     1      13.922   4.414   1.793  0.00  0.00    +0.024 C 
ATOM     12  C   UNL     1      13.805   5.620  -0.781  0.00  0.00    +0.089 C 
ATOM     13  C   UNL     1      15.869   3.867   0.359  0.00  0.00    +0.019 C 
ATOM     14  C   UNL     1      16.059   5.354   0.006  0.00  0.00    +0.085 C 
BRANCH   9  15
ATOM     15  C   UNL     1      12.159   3.684  -0.722  0.00  0.00    +0.089 C 
BRANCH  15   6
ATOM      6  N   UNL     1      11.344   4.747  -1.289  0.00  0.00    -0.303 NA
BRANCH   6  17
ATOM     17  C   UNL     1      10.232   5.081  -0.394  0.00  0.00    +0.081 C 
ATOM     20  C   UNL     1      10.364   4.363   0.938  0.00  0.00    +0.020 C 
ENDBRANCH   6  17
BRANCH   6  18
ATOM     18  C   UNL     1      10.833   4.362  -2.607  0.00  0.00    +0.081 C 
ATOM     21  C   UNL     1      10.809   2.852  -2.767  0.00  0.00    +0.020 C 
ENDBRANCH   6  18
ENDBRANCH  15   6
ENDBRANCH   9  15
ENDBRANCH  16  10
BRANCH  16   7
ATOM      4  O   UNL     1      10.539   7.384   2.899  0.00  0.00    -0.270 OA
ATOM      7  N   UNL     1      12.636   6.469   3.268  0.00  0.00    -0.310 N 
ATOM     19  C   UNL     1      11.334   6.775   3.611  0.00  0.00    +0.244 C 
ATOM     29  H   UNL     1      13.262   6.023   3.930  0.00  0.00    +0.149 HD
BRANCH  19  22
ATOM     22  C   UNL     1      10.909   6.338   4.965  0.00  0.00    +0.037 A 
ATOM     23  C   UNL     1      10.176   5.161   5.122  0.00  0.00    +0.013 A 
ATOM     24  C   UNL     1      11.242   7.106   6.082  0.00  0.00    +0.013 A 
ATOM     25  C   UNL     1       9.777   4.753   6.394  0.00  0.00    +0.013 A 
ATOM     26  C   UNL     1      10.843   6.696   7.354  0.00  0.00    +0.013 A 
ATOM     27  C   UNL     1      10.110   5.520   7.510  0.00  0.00    +0.055 A 
BRANCH  27  28
ATOM      1  F   UNL     1       8.567   5.724   9.327  0.00  0.00    -0.166 F 
ATOM      2  F   UNL     1      10.641   5.297   9.816  0.00  0.00    -0.166 F 
ATOM      3  F   UNL     1       9.383   3.752   8.948  0.00  0.00    -0.166 F 
ATOM     28  C   UNL     1       9.682   5.082   8.871  0.00  0.00    +0.417 C 
ENDBRANCH  27  28
ENDBRANCH  19  22
ENDBRANCH  16   7
TORSDOF 8
ENDMDL
MODEL 4
REMARK VINA RESULT:      -5.9     28.344     31.600
REMARK  Name = 25389141
REMARK  10 active torsions:
REMARK  status: ('A' for Active; 'I' for Inactive)
REMARK    1  A    between atoms: N_6  and  C_15
REMARK    2  A    between atoms: N_6  and  C_17
REMARK    3  A    between atoms: N_6  and  C_18
REMARK    4  A    between atoms: N_7  and  C_16
REMARK    5  A    between atoms: C_9  and  C_15
REMARK    6  A    between atoms: C_10  and  C_16
REMARK    7  A    between atoms: C_17  and  C_20
REMARK    8  A    between atoms: C_18  and  C_21
REMARK    9  A    between atoms: C_19  and  C_22
REMARK   10  A    between atoms: C_27  and  C_28
REMARK                            x       y       z     vdW  Elec       q    Type
REMARK                         _______ _______ _______ _____ _____    ______ ____
ROOT
ATOM     16  C   UNL     1     -14.289   7.945  33.209  0.00  0.00    +0.123 C 
ENDROOT
BRANCH  16  10
ATOM      5  N   UNL     1     -12.680   9.815  33.663  0.00  0.00    -0.298 NA
ATOM      8  C   UNL     1     -11.073   9.154  31.727  0.00  0.00    -0.003 C 
ATOM      9  C   UNL     1     -11.935  10.375  31.335  0.00  0.00    +0.020 C 
ATOM     10  C   UNL     1     -12.825   8.368  33.351  0.00  0.00    +0.074 C 
ATOM     11  C   UNL     1     -11.993   7.981  32.109  0.00  0.00    +0.024 C 
ATOM     12  C   UNL     1     -12.966  10.632  32.458  0.00  0.00    +0.089 C 
ATOM     13  C   UNL     1     -10.287   9.549  32.992  0.00  0.00    +0.019 C 
ATOM     14  C   UNL     1     -11.272  10.057  34.061  0.00  0.00    +0.085 C 
BRANCH   9  15
ATOM     15  C   UNL     1     -12.612  10.223  29.974  0.00  0.00    +0.089 C 
BRANCH  15   6
ATOM      6  N   UNL     1     -11.800  10.813  28.922  0.00  0.00    -0.303 NA
BRANCH   6  17
ATOM     17  C   UNL     1     -12.404  12.057  28.436  0.00  0.00    +0.081 C 
ATOM     20  C   UNL     1     -11.713  13.272  29.033  0.00  0.00    +0.020 C 
ENDBRANCH   6  17
BRANCH   6  18
ATOM     18  C   UNL     1     -11.623   9.872  27.812  0.00  0.00    +0.081 C 
ATOM     21  C   UNL     1     -10.350  10.168  27.040  0.00  0.00    +0.020 C 
ENDBRANCH   6  18
ENDBRANCH  15   6
ENDBRANCH   9  15
ENDBRANCH  16  10
BRANCH  16   7
ATOM      4  O   UNL     1     -14.285   5.558  34.803  0.00  0.00    -0.270 OA
ATOM      7  N   UNL     1     -14.387   6.578  32.725  0.00  0.00    -0.310 N 
ATOM     19  C   UNL     1     -14.376   5.493  33.579  0.00  0.00    +0.244 C 
ATOM     29  H   UNL     1     -14.396   6.452  31.718  0.00  0.00    +0.149 HD
BRANCH  19  22
ATOM     22  C   UNL     1     -14.456   4.162  32.926  0.00  0.00    +0.037 A 
ATOM     23  C   UNL     1     -14.331   4.055  31.540  0.00  0.00    +0.013 A 
ATOM     24  C   UNL     1     -14.659   3.018  33.698  0.00  0.00    +0.013 A 
ATOM     25  C   UNL     1     -14.408   2.805  30.928  0.00  0.00    +0.013 A 
ATOM     26  C   UNL     1     -14.736   1.767  33.085  0.00  0.00    +0.013 A 
ATOM     27  C   UNL     1     -14.611   1.660  31.699  0.00  0.00    +0.055 A 
BRANCH  27  28
ATOM      1  F   UNL     1     -15.605   0.267  30.030  0.00  0.00    -0.166 F 
ATOM      2  F   UNL     1     -15.049  -0.666  31.913  0.00  0.00    -0.166 F 
ATOM      3  F   UNL     1     -13.515  -0.085  30.486  0.00  0.00    -0.166 F 
ATOM     28  C   UNL     1     -14.693   0.323  31.044  0.00  0.00    +0.417 C 
ENDBRANCH  27  28
ENDBRANCH  19  22
ENDBRANCH  16   7
TORSDOF 8
ENDMDL
MODEL 5
REMARK VINA RESULT:      -5.8     28.334     29.554
REMARK  Name = 25389141
REMARK  10 active torsions:
REMARK  status: ('A' for Active; 'I' for Inactive)
REMARK    1  A    between atoms: N_6  and  C_15
REMARK    2  A    between atoms: N_6  and  C_17
REMARK    3  A    between atoms: N_6  and  C_18
REMARK    4  A    between atoms: N_7  and  C_16
REMARK    5  A    between atoms: C_9  and  C_15
REMARK    6  A    between atoms: C_10  and  C_16
REMARK    7  A    between atoms: C_17  and  C_20
REMARK    8  A    between atoms: C_18  and  C_21
REMARK    9  A    between atoms: C_19  and  C_22
REMARK   10  A    between atoms: C_27  and  C_28
REMARK                            x       y       z     vdW  Elec       q    Type
REMARK                         _______ _______ _______ _____ _____    ______ ____
ROOT
ATOM     16  C   UNL     1      -5.128 -13.623  16.787  0.00  0.00    +0.123 C 
ENDROOT
BRANCH  16  10
ATOM      5  N   UNL     1      -6.785 -12.795  18.479  0.00  0.00    -0.298 NA
ATOM      8  C   UNL     1      -5.913 -10.346  18.413  0.00  0.00    -0.003 C 
ATOM      9  C   UNL     1      -7.229 -10.484  17.615  0.00  0.00    +0.020 C 
ATOM     10  C   UNL     1      -5.365 -12.771  18.037  0.00  0.00    +0.074 C 
ATOM     11  C   UNL     1      -4.867 -11.322  17.845  0.00  0.00    +0.024 C 
ATOM     12  C   UNL     1      -7.621 -11.978  17.567  0.00  0.00    +0.089 C 
ATOM     13  C   UNL     1      -6.215 -10.790  19.857  0.00  0.00    +0.019 C 
ATOM     14  C   UNL     1      -6.851 -12.192  19.833  0.00  0.00    +0.085 C 
BRANCH   9  15
ATOM     15  C   UNL     1      -7.152  -9.876  16.216  0.00  0.00    +0.089 C 
BRANCH  15   6
ATOM      6  N   UNL     1      -8.296  -9.015  15.961  0.00  0.00    -0.303 NA
BRANCH   6  17
ATOM     17  C   UNL     1      -9.010  -8.718  17.205  0.00  0.00    +0.081 C 
ATOM     20  C   UNL     1     -10.137  -7.727  16.968  0.00  0.00    +0.020 C 
ENDBRANCH   6  17
BRANCH   6  18
ATOM     18  C   UNL     1      -9.206  -9.634  14.992  0.00  0.00    +0.081 C 
ATOM     21  C   UNL     1      -8.530  -9.819  13.645  0.00  0.00    +0.020 C 
ENDBRANCH   6  18
ENDBRANCH  15   6
ENDBRANCH   9  15
ENDBRANCH  16  10
BRANCH  16   7
ATOM      4  O   UNL     1      -3.237 -14.111  14.683  0.00  0.00    -0.270 OA
ATOM      7  N   UNL     1      -4.884 -12.782  15.627  0.00  0.00    -0.310 N 
ATOM     19  C   UNL     1      -3.947 -13.108  14.667  0.00  0.00    +0.244 C 
ATOM     29  H   UNL     1      -5.390 -11.903  15.589  0.00  0.00    +0.149 HD
BRANCH  19  22
ATOM     22  C   UNL     1      -3.799 -12.131  13.559  0.00  0.00    +0.037 A 
ATOM     23  C   UNL     1      -4.727 -11.101  13.407  0.00  0.00    +0.013 A 
ATOM     24  C   UNL     1      -2.731 -12.244  12.668  0.00  0.00    +0.013 A 
ATOM     25  C   UNL     1      -4.588 -10.185  12.365  0.00  0.00    +0.013 A 
ATOM     26  C   UNL     1      -2.592 -11.327  11.625  0.00  0.00    +0.013 A 
ATOM     27  C   UNL     1      -3.521 -10.298  11.474  0.00  0.00    +0.055 A 
BRANCH  27  28
ATOM      1  F   UNL     1      -2.107  -8.821  10.233  0.00  0.00    -0.166 F 
ATOM      2  F   UNL     1      -4.180  -8.228  10.508  0.00  0.00    -0.166 F 
ATOM      3  F   UNL     1      -3.676  -9.834   9.133  0.00  0.00    -0.166 F 
ATOM     28  C   UNL     1      -3.372  -9.317  10.360  0.00  0.00    +0.417 C 
ENDBRANCH  27  28
ENDBRANCH  19  22
ENDBRANCH  16   7
TORSDOF 8
ENDMDL
MODEL 6
REMARK VINA RESULT:      -5.7     27.532     30.088
REMARK  Name = 25389141
REMARK  10 active torsions:
REMARK  status: ('A' for Active; 'I' for Inactive)
REMARK    1  A    between atoms: N_6  and  C_15
REMARK    2  A    between atoms: N_6  and  C_17
REMARK    3  A    between atoms: N_6  and  C_18
REMARK    4  A    between atoms: N_7  and  C_16
REMARK    5  A    between atoms: C_9  and  C_15
REMARK    6  A    between atoms: C_10  and  C_16
REMARK    7  A    between atoms: C_17  and  C_20
REMARK    8  A    between atoms: C_18  and  C_21
REMARK    9  A    between atoms: C_19  and  C_22
REMARK   10  A    between atoms: C_27  and  C_28
REMARK                            x       y       z     vdW  Elec       q    Type
REMARK                         _______ _______ _______ _____ _____    ______ ____
ROOT
ATOM     16  C   UNL     1      -9.891 -10.186  18.609  0.00  0.00    +0.123 C 
ENDROOT
BRANCH  16  10
ATOM      5  N   UNL     1     -11.706  -9.515  17.012  0.00  0.00    -0.298 NA
ATOM      8  C   UNL     1     -10.295  -7.631  15.905  0.00  0.00    -0.003 C 
ATOM      9  C   UNL     1     -10.355  -8.881  14.998  0.00  0.00    +0.020 C 
ATOM     10  C   UNL     1     -10.663  -9.036  17.959  0.00  0.00    +0.074 C 
ATOM     11  C   UNL     1      -9.717  -8.023  17.276  0.00  0.00    +0.024 C 
ATOM     12  C   UNL     1     -11.078 -10.012  15.764  0.00  0.00    +0.089 C 
ATOM     13  C   UNL     1     -11.749  -7.176  16.135  0.00  0.00    +0.019 C 
ATOM     14  C   UNL     1     -12.573  -8.362  16.667  0.00  0.00    +0.085 C 
BRANCH   9  15
ATOM     15  C   UNL     1      -8.983  -9.328  14.497  0.00  0.00    +0.089 C 
BRANCH  15   6
ATOM      6  N   UNL     1      -9.102 -10.474  13.610  0.00  0.00    -0.303 NA
BRANCH   6  17
ATOM     17  C   UNL     1      -8.005 -11.420  13.833  0.00  0.00    +0.081 C 
ATOM     20  C   UNL     1      -8.301 -12.337  15.007  0.00  0.00    +0.020 C 
ENDBRANCH   6  17
BRANCH   6  18
ATOM     18  C   UNL     1      -9.122 -10.046  12.208  0.00  0.00    +0.081 C 
ATOM     21  C   UNL     1      -7.745  -9.598  11.752  0.00  0.00    +0.020 C 
ENDBRANCH   6  18
ENDBRANCH  15   6
ENDBRANCH   9  15
ENDBRANCH  16  10
BRANCH  16   7
ATOM      4  O   UNL     1      -7.463 -10.845  19.991  0.00  0.00    -0.270 OA
ATOM      7  N   UNL     1      -8.567 -10.314  18.024  0.00  0.00    -0.310 N 
ATOM     19  C   UNL     1      -7.457 -10.637  18.780  0.00  0.00    +0.244 C 
ATOM     29  H   UNL     1      -8.482 -10.088  17.038  0.00  0.00    +0.149 HD
BRANCH  19  22
ATOM     22  C   UNL     1      -6.173 -10.703  18.038  0.00  0.00    +0.037 A 
ATOM     23  C   UNL     1      -6.055 -10.092  16.789  0.00  0.00    +0.013 A 
ATOM     24  C   UNL     1      -5.083 -11.378  18.588  0.00  0.00    +0.013 A 
ATOM     25  C   UNL     1      -4.849 -10.155  16.092  0.00  0.00    +0.013 A 
ATOM     26  C   UNL     1      -3.876 -11.441  17.891  0.00  0.00    +0.013 A 
ATOM     27  C   UNL     1      -3.760 -10.829  16.643  0.00  0.00    +0.055 A 
BRANCH  27  28
ATOM      1  F   UNL     1      -2.254 -12.098  15.285  0.00  0.00    -0.166 F 
ATOM      2  F   UNL     1      -1.387 -10.696  16.703  0.00  0.00    -0.166 F 
ATOM      3  F   UNL     1      -2.364  -9.967  14.903  0.00  0.00    -0.166 F 
ATOM     28  C   UNL     1      -2.470 -10.897  15.897  0.00  0.00    +0.417 C 
ENDBRANCH  27  28
ENDBRANCH  19  22
ENDBRANCH  16   7
TORSDOF 8
ENDMDL
MODEL 7
REMARK VINA RESULT:      -5.6     27.737     29.580
REMARK  Name = 25389141
REMARK  10 active torsions:
REMARK  status: ('A' for Active; 'I' for Inactive)
REMARK    1  A    between atoms: N_6  and  C_15
REMARK    2  A    between atoms: N_6  and  C_17
REMARK    3  A    between atoms: N_6  and  C_18
REMARK    4  A    between atoms: N_7  and  C_16
REMARK    5  A    between atoms: C_9  and  C_15
REMARK    6  A    between atoms: C_10  and  C_16
REMARK    7  A    between atoms: C_17  and  C_20
REMARK    8  A    between atoms: C_18  and  C_21
REMARK    9  A    between atoms: C_19  and  C_22
REMARK   10  A    between atoms: C_27  and  C_28
REMARK                            x       y       z     vdW  Elec       q    Type
REMARK                         _______ _______ _______ _____ _____    ______ ____
ROOT
ATOM     16  C   UNL     1      -2.960 -11.139  16.705  0.00  0.00    +0.123 C 
ENDROOT
BRANCH  16  10
ATOM      5  N   UNL     1      -4.413 -12.040  18.540  0.00  0.00    -0.298 NA
ATOM      8  C   UNL     1      -6.547 -10.803  17.715  0.00  0.00    -0.003 C 
ATOM      9  C   UNL     1      -6.595 -12.299  17.333  0.00  0.00    +0.020 C 
ATOM     10  C   UNL     1      -4.033 -10.836  17.754  0.00  0.00    +0.074 C 
ATOM     11  C   UNL     1      -5.275 -10.166  17.127  0.00  0.00    +0.024 C 
ATOM     12  C   UNL     1      -5.247 -12.950  17.717  0.00  0.00    +0.089 C 
ATOM     13  C   UNL     1      -6.423 -10.736  19.249  0.00  0.00    +0.019 C 
ATOM     14  C   UNL     1      -5.224 -11.591  19.698  0.00  0.00    +0.085 C 
BRANCH   9  15
ATOM     15  C   UNL     1      -6.936 -12.535  15.863  0.00  0.00    +0.089 C 
BRANCH  15   6
ATOM      6  N   UNL     1      -8.075 -11.726  15.458  0.00  0.00    -0.303 NA
BRANCH   6  17
ATOM     17  C   UNL     1      -9.331 -12.436  15.709  0.00  0.00    +0.081 C 
ATOM     20  C   UNL     1     -10.209 -11.670  16.685  0.00  0.00    +0.020 C 
ENDBRANCH   6  17
BRANCH   6  18
ATOM     18  C   UNL     1      -7.975 -11.362  14.041  0.00  0.00    +0.081 C 
ATOM     21  C   UNL     1      -8.300  -9.894  13.829  0.00  0.00    +0.020 C 
ENDBRANCH   6  18
ENDBRANCH  15   6
ENDBRANCH   9  15
ENDBRANCH  16  10
BRANCH  16   7
ATOM      4  O   UNL     1      -1.989 -12.065  14.166  0.00  0.00    -0.270 OA
ATOM      7  N   UNL     1      -3.374 -10.669  15.393  0.00  0.00    -0.310 N 
ATOM     19  C   UNL     1      -2.842 -11.183  14.227  0.00  0.00    +0.244 C 
ATOM     29  H   UNL     1      -4.027  -9.893  15.374  0.00  0.00    +0.149 HD
BRANCH  19  22
ATOM     22  C   UNL     1      -3.350 -10.577  12.970  0.00  0.00    +0.037 A 
ATOM     23  C   UNL     1      -4.706 -10.272  12.839  0.00  0.00    +0.013 A 
ATOM     24  C   UNL     1      -2.473 -10.313  11.918  0.00  0.00    +0.013 A 
ATOM     25  C   UNL     1      -5.182  -9.704  11.658  0.00  0.00    +0.013 A 
ATOM     26  C   UNL     1      -2.949  -9.745  10.737  0.00  0.00    +0.013 A 
ATOM     27  C   UNL     1      -4.305  -9.441  10.606  0.00  0.00    +0.055 A 
BRANCH  27  28
ATOM      1  F   UNL     1      -5.551  -7.700   9.540  0.00  0.00    -0.166 F 
ATOM      2  F   UNL     1      -5.624  -9.679   8.644  0.00  0.00    -0.166 F 
ATOM      3  F   UNL     1      -3.827  -8.469   8.474  0.00  0.00    -0.166 F 
ATOM     28  C   UNL     1      -4.815  -8.833   9.343  0.00  0.00    +0.417 C 
ENDBRANCH  27  28
ENDBRANCH  19  22
ENDBRANCH  16   7
TORSDOF 8
ENDMDL
MODEL 8
REMARK VINA RESULT:      -5.6     27.994     29.876
REMARK  Name = 25389141
REMARK  10 active torsions:
REMARK  status: ('A' for Active; 'I' for Inactive)
REMARK    1  A    between atoms: N_6  and  C_15
REMARK    2  A    between atoms: N_6  and  C_17
REMARK    3  A    between atoms: N_6  and  C_18
REMARK    4  A    between atoms: N_7  and  C_16
REMARK    5  A    between atoms: C_9  and  C_15
REMARK    6  A    between atoms: C_10  and  C_16
REMARK    7  A    between atoms: C_17  and  C_20
REMARK    8  A    between atoms: C_18  and  C_21
REMARK    9  A    between atoms: C_19  and  C_22
REMARK   10  A    between atoms: C_27  and  C_28
REMARK                            x       y       z     vdW  Elec       q    Type
REMARK                         _______ _______ _______ _____ _____    ______ ____
ROOT
ATOM     16  C   UNL     1      -3.638 -10.523  12.044  0.00  0.00    +0.123 C 
ENDROOT
BRANCH  16  10
ATOM      5  N   UNL     1      -5.849  -9.990  10.984  0.00  0.00    -0.298 NA
ATOM      8  C   UNL     1      -4.802  -9.300   8.705  0.00  0.00    -0.003 C 
ATOM      9  C   UNL     1      -5.426 -10.711   8.620  0.00  0.00    +0.020 C 
ATOM     10  C   UNL     1      -4.442  -9.547  11.182  0.00  0.00    +0.074 C 
ATOM     11  C   UNL     1      -3.750  -9.273   9.828  0.00  0.00    +0.024 C 
ATOM     12  C   UNL     1      -5.900 -11.126  10.031  0.00  0.00    +0.089 C 
ATOM     13  C   UNL     1      -5.931  -8.335   9.114  0.00  0.00    +0.019 C 
ATOM     14  C   UNL     1      -6.605  -8.858  10.395  0.00  0.00    +0.085 C 
BRANCH   9  15
ATOM     15  C   UNL     1      -4.485 -11.750   8.014  0.00  0.00    +0.089 C 
BRANCH  15   6
ATOM      6  N   UNL     1      -5.235 -12.811   7.361  0.00  0.00    -0.303 NA
BRANCH   6  17
ATOM     17  C   UNL     1      -4.600 -14.112   7.590  0.00  0.00    +0.081 C 
ATOM     20  C   UNL     1      -4.329 -14.338   9.068  0.00  0.00    +0.020 C 
ENDBRANCH   6  17
BRANCH   6  18
ATOM     18  C   UNL     1      -5.353 -12.554   5.923  0.00  0.00    +0.081 C 
ATOM     21  C   UNL     1      -4.042 -12.052   5.346  0.00  0.00    +0.020 C 
ENDBRANCH   6  18
ENDBRANCH  15   6
ENDBRANCH   9  15
ENDBRANCH  16  10
BRANCH  16   7
ATOM      4  O   UNL     1      -2.125 -10.575  14.483  0.00  0.00    -0.270 OA
ATOM      7  N   UNL     1      -4.171 -10.577  13.396  0.00  0.00    -0.310 N 
ATOM     19  C   UNL     1      -3.353 -10.598  14.508  0.00  0.00    +0.244 C 
ATOM     29  H   UNL     1      -5.178 -10.667  13.483  0.00  0.00    +0.149 HD
BRANCH  19  22
ATOM     22  C   UNL     1      -4.052 -10.681  15.815  0.00  0.00    +0.037 A 
ATOM     23  C   UNL     1      -5.336 -10.153  15.957  0.00  0.00    +0.013 A 
ATOM     24  C   UNL     1      -3.424 -11.287  16.904  0.00  0.00    +0.013 A 
ATOM     25  C   UNL     1      -5.990 -10.230  17.185  0.00  0.00    +0.013 A 
ATOM     26  C   UNL     1      -4.080 -11.364  18.133  0.00  0.00    +0.013 A 
ATOM     27  C   UNL     1      -5.363 -10.836  18.274  0.00  0.00    +0.055 A 
BRANCH  27  28
ATOM      1  F   UNL     1      -5.361 -11.597  20.541  0.00  0.00    -0.166 F 
ATOM      2  F   UNL     1      -7.269 -11.552  19.500  0.00  0.00    -0.166 F 
ATOM      3  F   UNL     1      -6.331  -9.700  20.142  0.00  0.00    -0.166 F 
ATOM     28  C   UNL     1      -6.064 -10.918  19.588  0.00  0.00    +0.417 C 
ENDBRANCH  27  28
ENDBRANCH  19  22
ENDBRANCH  16   7
TORSDOF 8
ENDMDL
MODEL 9
REMARK VINA RESULT:      -5.5     28.696     31.614
REMARK  Name = 25389141
REMARK  10 active torsions:
REMARK  status: ('A' for Active; 'I' for Inactive)
REMARK    1  A    between atoms: N_6  and  C_15
REMARK    2  A    between atoms: N_6  and  C_17
REMARK    3  A    between atoms: N_6  and  C_18
REMARK    4  A    between atoms: N_7  and  C_16
REMARK    5  A    between atoms: C_9  and  C_15
REMARK    6  A    between atoms: C_10  and  C_16
REMARK    7  A    between atoms: C_17  and  C_20
REMARK    8  A    between atoms: C_18  and  C_21
REMARK    9  A    between atoms: C_19  and  C_22
REMARK   10  A    between atoms: C_27  and  C_28
REMARK                            x       y       z     vdW  Elec       q    Type
REMARK                         _______ _______ _______ _____ _____    ______ ____
ROOT
ATOM     16  C   UNL     1     -14.609   8.062  32.476  0.00  0.00    +0.123 C 
ENDROOT
BRANCH  16  10
ATOM      5  N   UNL     1     -13.267  10.073  33.146  0.00  0.00    -0.298 NA
ATOM      8  C   UNL     1     -11.063   9.189  32.084  0.00  0.00    -0.003 C 
ATOM      9  C   UNL     1     -11.708  10.274  31.192  0.00  0.00    +0.020 C 
ATOM     10  C   UNL     1     -13.299   8.588  33.066  0.00  0.00    +0.074 C 
ATOM     11  C   UNL     1     -12.069   8.045  32.306  0.00  0.00    +0.024 C 
ATOM     12  C   UNL     1     -13.079  10.656  31.795  0.00  0.00    +0.089 C 
ATOM     13  C   UNL     1     -10.799   9.837  33.457  0.00  0.00    +0.019 C 
ATOM     14  C   UNL     1     -12.105  10.460  33.982  0.00  0.00    +0.085 C 
BRANCH   9  15
ATOM     15  C   UNL     1     -11.833   9.854  29.729  0.00  0.00    +0.089 C 
BRANCH  15   6
ATOM      6  N   UNL     1     -12.206  10.985  28.895  0.00  0.00    -0.303 NA
BRANCH   6  17
ATOM     17  C   UNL     1     -12.085  10.645  27.475  0.00  0.00    +0.081 C 
ATOM     20  C   UNL     1     -10.828   9.834  27.210  0.00  0.00    +0.020 C 
ENDBRANCH   6  17
BRANCH   6  18
ATOM     18  C   UNL     1     -11.379  12.155  29.206  0.00  0.00    +0.081 C 
ATOM     21  C   UNL     1     -11.844  13.376  28.432  0.00  0.00    +0.020 C 
ENDBRANCH   6  18
ENDBRANCH  15   6
ENDBRANCH   9  15
ENDBRANCH  16  10
BRANCH  16   7
ATOM      4  O   UNL     1     -16.668   6.388  31.380  0.00  0.00    -0.270 OA
ATOM      7  N   UNL     1     -14.490   6.657  32.123  0.00  0.00    -0.310 N 
ATOM     19  C   UNL     1     -15.546   5.938  31.599  0.00  0.00    +0.244 C 
ATOM     29  H   UNL     1     -13.607   6.207  32.343  0.00  0.00    +0.149 HD
BRANCH  19  22
ATOM     22  C   UNL     1     -15.269   4.507  31.316  0.00  0.00    +0.037 A 
ATOM     23  C   UNL     1     -15.082   3.610  32.368  0.00  0.00    +0.013 A 
ATOM     24  C   UNL     1     -15.196   4.059  29.997  0.00  0.00    +0.013 A 
ATOM     25  C   UNL     1     -14.821   2.267  32.102  0.00  0.00    +0.013 A 
ATOM     26  C   UNL     1     -14.935   2.714  29.731  0.00  0.00    +0.013 A 
ATOM     27  C   UNL     1     -14.747   1.818  30.783  0.00  0.00    +0.055 A 
BRANCH  27  28
ATOM      1  F   UNL     1     -14.888  -0.464  31.486  0.00  0.00    -0.166 F 
ATOM      2  F   UNL     1     -13.138   0.126  30.339  0.00  0.00    -0.166 F 
ATOM      3  F   UNL     1     -15.068  -0.077  29.361  0.00  0.00    -0.166 F 
ATOM     28  C   UNL     1     -14.469   0.381  30.498  0.00  0.00    +0.417 C 
ENDBRANCH  27  28
ENDBRANCH  19  22
ENDBRANCH  16   7
TORSDOF 8
ENDMDL
MODEL 10
REMARK VINA RESULT:      -5.4     12.003     14.505
REMARK  Name = 25389141
REMARK  10 active torsions:
REMARK  status: ('A' for Active; 'I' for Inactive)
REMARK    1  A    between atoms: N_6  and  C_15
REMARK    2  A    between atoms: N_6  and  C_17
REMARK    3  A    between atoms: N_6  and  C_18
REMARK    4  A    between atoms: N_7  and  C_16
REMARK    5  A    between atoms: C_9  and  C_15
REMARK    6  A    between atoms: C_10  and  C_16
REMARK    7  A    between atoms: C_17  and  C_20
REMARK    8  A    between atoms: C_18  and  C_21
REMARK    9  A    between atoms: C_19  and  C_22
REMARK   10  A    between atoms: C_27  and  C_28
REMARK                            x       y       z     vdW  Elec       q    Type
REMARK                         _______ _______ _______ _____ _____    ______ ____
ROOT
ATOM     16  C   UNL     1      19.369  -3.144  26.216  0.00  0.00    +0.123 C 
ENDROOT
BRANCH  16  10
ATOM      5  N   UNL     1      17.300  -2.313  25.066  0.00  0.00    -0.298 NA
ATOM      8  C   UNL     1      18.077  -3.076  22.704  0.00  0.00    -0.003 C 
ATOM      9  C   UNL     1      17.022  -4.048  23.278  0.00  0.00    +0.020 C 
ATOM     10  C   UNL     1      18.785  -2.391  25.018  0.00  0.00    +0.074 C 
ATOM     11  C   UNL     1      19.267  -2.984  23.677  0.00  0.00    +0.024 C 
ATOM     12  C   UNL     1      16.705  -3.630  24.732  0.00  0.00    +0.089 C 
ATOM     13  C   UNL     1      17.422  -1.683  22.651  0.00  0.00    +0.019 C 
ATOM     14  C   UNL     1      16.861  -1.334  24.042  0.00  0.00    +0.085 C 
BRANCH   9  15
ATOM     15  C   UNL     1      17.442  -5.514  23.193  0.00  0.00    +0.089 C 
BRANCH  15   6
ATOM      6  N   UNL     1      17.777  -6.035  24.508  0.00  0.00    -0.303 NA
BRANCH   6  17
ATOM     17  C   UNL     1      19.176  -6.470  24.554  0.00  0.00    +0.081 C 
ATOM     20  C   UNL     1      19.704  -6.765  23.161  0.00  0.00    +0.020 C 
ENDBRANCH   6  17
BRANCH   6  18
ATOM     18  C   UNL     1      16.891  -7.147  24.868  0.00  0.00    +0.081 C 
ATOM     21  C   UNL     1      16.309  -6.956  26.257  0.00  0.00    +0.020 C 
ENDBRANCH   6  18
ENDBRANCH  15   6
ENDBRANCH   9  15
ENDBRANCH  16  10
BRANCH  16   7
ATOM      4  O   UNL     1      17.690  -4.129  28.326  0.00  0.00    -0.270 OA
ATOM      7  N   UNL     1      19.049  -2.464  27.460  0.00  0.00    -0.310 N 
ATOM     19  C   UNL     1      18.226  -3.027  28.415  0.00  0.00    +0.244 C 
ATOM     29  H   UNL     1      19.406  -1.520  27.566  0.00  0.00    +0.149 HD
BRANCH  19  22
ATOM     22  C   UNL     1      17.976  -2.193  29.618  0.00  0.00    +0.037 A 
ATOM     23  C   UNL     1      18.968  -1.330  30.088  0.00  0.00    +0.013 A 
ATOM     24  C   UNL     1      16.751  -2.272  30.279  0.00  0.00    +0.013 A 
ATOM     25  C   UNL     1      18.732  -0.548  31.218  0.00  0.00    +0.013 A 
ATOM     26  C   UNL     1      16.516  -1.489  31.410  0.00  0.00    +0.013 A 
ATOM     27  C   UNL     1      17.507  -0.627  31.880  0.00  0.00    +0.055 A 
BRANCH  27  28
ATOM      1  F   UNL     1      18.345   0.927  33.493  0.00  0.00    -0.166 F 
ATOM      2  F   UNL     1      16.882  -0.531  34.171  0.00  0.00    -0.166 F 
ATOM      3  F   UNL     1      16.266   1.134  32.917  0.00  0.00    -0.166 F 
ATOM     28  C   UNL     1      17.256   0.210  33.088  0.00  0.00    +0.417 C 
ENDBRANCH  27  28
ENDBRANCH  19  22
ENDBRANCH  16   7
TORSDOF 8
ENDMDL
