MODEL 1
REMARK VINA RESULT:      -7.1      0.000      0.000
REMARK  Name = 45783790
REMARK  6 active torsions:
REMARK  status: ('A' for Active; 'I' for Inactive)
REMARK    1  A    between atoms: N_2  and  C_13
REMARK    2  A    between atoms: N_8  and  C_23
REMARK    3  A    between atoms: N_8  and  C_24
REMARK    4  A    between atoms: C_9  and  C_14
REMARK    5  A    between atoms: C_13  and  C_15
REMARK    6  A    between atoms: C_16  and  C_18
REMARK                            x       y       z     vdW  Elec       q    Type
REMARK                         _______ _______ _______ _____ _____    ______ ____
ROOT
ATOM      1  O   UNL     1      16.494   5.765  18.583  0.00  0.00    -0.336 OA
ATOM      3  N   UNL     1      17.112   6.977  20.363  0.00  0.00    -0.190 NA
ATOM      6  N   UNL     1      17.812   5.389  18.872  0.00  0.00    -0.056 NA
ATOM     14  C   UNL     1      16.160   6.703  19.507  0.00  0.00    +0.245 A 
ATOM     16  C   UNL     1      18.106   6.146  19.933  0.00  0.00    +0.204 A 
ENDROOT
BRANCH  16  18
ATOM      7  N   UNL     1      20.976   7.130  22.083  0.00  0.00    -0.240 NA
ATOM     18  C   UNL     1      19.382   6.099  20.586  0.00  0.00    +0.041 A 
ATOM     20  C   UNL     1      20.252   5.033  20.382  0.00  0.00    +0.016 A 
ATOM     21  C   UNL     1      19.789   7.113  21.438  0.00  0.00    +0.124 A 
ATOM     22  C   UNL     1      21.484   5.014  21.028  0.00  0.00    +0.044 A 
ATOM     23  C   UNL     1      21.795   6.077  21.860  0.00  0.00    +0.118 A 
BRANCH  23   8
ATOM      8  N   UNL     1      23.053   6.043  22.512  0.00  0.00    -0.332 N 
ATOM     24  C   UNL     1      23.832   4.852  22.620  0.00  0.00    +0.127 C 
ATOM     26  H   UNL     1      23.290   6.832  23.103  0.00  0.00    +0.147 HD
ENDBRANCH  23   8
ENDBRANCH  16  18
BRANCH  14   9
ATOM      2  N   UNL     1      14.560   8.433  20.307  0.00  0.00    -0.284 NA
ATOM      9  C   UNL     1      14.763   7.278  19.410  0.00  0.00    +0.146 C 
ATOM     10  C   UNL     1      14.437   7.814  18.004  0.00  0.00    +0.030 C 
ATOM     11  C   UNL     1      14.003   9.258  18.218  0.00  0.00    +0.017 C 
ATOM     12  C   UNL     1      13.557   9.284  19.666  0.00  0.00    +0.085 C 
BRANCH   2  13
ATOM     13  C   UNL     1      14.170   8.050  21.657  0.00  0.00    +0.159 C 
BRANCH  13  15
ATOM      4  N   UNL     1      12.523   6.183  21.377  0.00  0.00    -0.347 N 
ATOM      5  N   UNL     1      11.675   8.129  22.030  0.00  0.00    -0.239 NA
ATOM     15  C   UNL     1      12.774   7.487  21.700  0.00  0.00    +0.121 A 
ATOM     17  C   UNL     1      11.179   5.979  21.509  0.00  0.00    +0.104 A 
ATOM     19  C   UNL     1      10.677   7.195  21.913  0.00  0.00    +0.130 A 
ATOM     25  H   UNL     1      13.206   5.494  21.090  0.00  0.00    +0.167 HD
ENDBRANCH  13  15
ENDBRANCH   2  13
ENDBRANCH  14   9
TORSDOF 5
ENDMDL
MODEL 2
REMARK VINA RESULT:      -6.8      1.812      2.194
REMARK  Name = 45783790
REMARK  6 active torsions:
REMARK  status: ('A' for Active; 'I' for Inactive)
REMARK    1  A    between atoms: N_2  and  C_13
REMARK    2  A    between atoms: N_8  and  C_23
REMARK    3  A    between atoms: N_8  and  C_24
REMARK    4  A    between atoms: C_9  and  C_14
REMARK    5  A    between atoms: C_13  and  C_15
REMARK    6  A    between atoms: C_16  and  C_18
REMARK                            x       y       z     vdW  Elec       q    Type
REMARK                         _______ _______ _______ _____ _____    ______ ____
ROOT
ATOM      1  O   UNL     1      15.356   8.731  19.811  0.00  0.00    -0.336 OA
ATOM      3  N   UNL     1      16.128   6.682  19.343  0.00  0.00    -0.190 NA
ATOM      6  N   UNL     1      16.566   8.603  20.505  0.00  0.00    -0.056 NA
ATOM     14  C   UNL     1      15.174   7.556  19.154  0.00  0.00    +0.245 A 
ATOM     16  C   UNL     1      16.961   7.369  20.179  0.00  0.00    +0.204 A 
ENDROOT
BRANCH  16  18
ATOM      7  N   UNL     1      19.919   6.763  22.348  0.00  0.00    -0.240 NA
ATOM     18  C   UNL     1      18.178   6.792  20.671  0.00  0.00    +0.041 A 
ATOM     20  C   UNL     1      18.798   5.745  19.998  0.00  0.00    +0.016 A 
ATOM     21  C   UNL     1      18.774   7.260  21.831  0.00  0.00    +0.124 A 
ATOM     22  C   UNL     1      19.979   5.206  20.499  0.00  0.00    +0.044 A 
ATOM     23  C   UNL     1      20.493   5.746  21.667  0.00  0.00    +0.118 A 
BRANCH  23   8
ATOM      8  N   UNL     1      21.695   5.185  22.165  0.00  0.00    -0.332 N 
ATOM     24  C   UNL     1      21.981   3.788  22.096  0.00  0.00    +0.127 C 
ATOM     26  H   UNL     1      22.256   5.764  22.781  0.00  0.00    +0.147 HD
ENDBRANCH  23   8
ENDBRANCH  16  18
BRANCH  14   9
ATOM      2  N   UNL     1      12.803   8.250  18.852  0.00  0.00    -0.284 NA
ATOM      9  C   UNL     1      13.917   7.440  18.318  0.00  0.00    +0.146 C 
ATOM     10  C   UNL     1      14.112   7.948  16.877  0.00  0.00    +0.030 C 
ATOM     11  C   UNL     1      13.026   8.995  16.672  0.00  0.00    +0.017 C 
ATOM     12  C   UNL     1      11.978   8.627  17.703  0.00  0.00    +0.085 C 
BRANCH   2  13
ATOM     13  C   UNL     1      12.031   7.560  19.877  0.00  0.00    +0.159 C 
BRANCH  13  15
ATOM      4  N   UNL     1      10.457   8.477  21.597  0.00  0.00    -0.347 N 
ATOM      5  N   UNL     1      12.516   9.310  21.630  0.00  0.00    -0.239 NA
ATOM     15  C   UNL     1      11.703   8.464  21.035  0.00  0.00    +0.121 A 
ATOM     17  C   UNL     1      10.474   9.391  22.612  0.00  0.00    +0.104 A 
ATOM     19  C   UNL     1      11.756   9.891  22.613  0.00  0.00    +0.130 A 
ATOM     25  H   UNL     1       9.665   7.917  21.310  0.00  0.00    +0.167 HD
ENDBRANCH  13  15
ENDBRANCH   2  13
ENDBRANCH  14   9
TORSDOF 5
ENDMDL
MODEL 3
REMARK VINA RESULT:      -6.7      2.264      4.215
REMARK  Name = 45783790
REMARK  6 active torsions:
REMARK  status: ('A' for Active; 'I' for Inactive)
REMARK    1  A    between atoms: N_2  and  C_13
REMARK    2  A    between atoms: N_8  and  C_23
REMARK    3  A    between atoms: N_8  and  C_24
REMARK    4  A    between atoms: C_9  and  C_14
REMARK    5  A    between atoms: C_13  and  C_15
REMARK    6  A    between atoms: C_16  and  C_18
REMARK                            x       y       z     vdW  Elec       q    Type
REMARK                         _______ _______ _______ _____ _____    ______ ____
ROOT
ATOM      1  O   UNL     1      15.384   9.768  21.715  0.00  0.00    -0.336 OA
ATOM      3  N   UNL     1      15.290   7.740  20.770  0.00  0.00    -0.190 NA
ATOM      6  N   UNL     1      16.702   9.295  21.675  0.00  0.00    -0.056 NA
ATOM     14  C   UNL     1      14.618   8.792  21.163  0.00  0.00    +0.245 A 
ATOM     16  C   UNL     1      16.565   8.095  21.105  0.00  0.00    +0.204 A 
ENDROOT
BRANCH  16  18
ATOM      7  N   UNL     1      18.612   5.365  19.629  0.00  0.00    -0.240 NA
ATOM     18  C   UNL     1      17.678   7.226  20.857  0.00  0.00    +0.041 A 
ATOM     20  C   UNL     1      18.869   7.368  21.562  0.00  0.00    +0.016 A 
ATOM     21  C   UNL     1      17.602   6.217  19.910  0.00  0.00    +0.124 A 
ATOM     22  C   UNL     1      19.932   6.510  21.300  0.00  0.00    +0.044 A 
ATOM     23  C   UNL     1      19.754   5.533  20.333  0.00  0.00    +0.118 A 
BRANCH  23   8
ATOM      8  N   UNL     1      20.846   4.668  20.078  0.00  0.00    -0.332 N 
ATOM     24  C   UNL     1      22.172   4.949  20.525  0.00  0.00    +0.127 C 
ATOM     26  H   UNL     1      20.714   3.952  19.373  0.00  0.00    +0.147 HD
ENDBRANCH  23   8
ENDBRANCH  16  18
BRANCH  14   9
ATOM      2  N   UNL     1      12.610   8.993  19.707  0.00  0.00    -0.284 NA
ATOM      9  C   UNL     1      13.130   9.064  21.088  0.00  0.00    +0.146 C 
ATOM     10  C   UNL     1      12.296   8.035  21.872  0.00  0.00    +0.030 C 
ATOM     11  C   UNL     1      11.295   7.482  20.867  0.00  0.00    +0.017 C 
ATOM     12  C   UNL     1      11.213   8.568  19.813  0.00  0.00    +0.085 C 
BRANCH   2  13
ATOM     13  C   UNL     1      12.747  10.246  18.976  0.00  0.00    +0.159 C 
BRANCH  13  15
ATOM      4  N   UNL     1      13.326  11.038  16.670  0.00  0.00    -0.347 N 
ATOM      5  N   UNL     1      13.820   8.919  17.116  0.00  0.00    -0.239 NA
ATOM     15  C   UNL     1      13.307  10.031  17.595  0.00  0.00    +0.121 A 
ATOM     17  C   UNL     1      13.886  10.537  15.530  0.00  0.00    +0.104 A 
ATOM     19  C   UNL     1      14.183   9.228  15.830  0.00  0.00    +0.130 A 
ATOM     25  H   UNL     1      12.984  11.981  16.804  0.00  0.00    +0.167 HD
ENDBRANCH  13  15
ENDBRANCH   2  13
ENDBRANCH  14   9
TORSDOF 5
ENDMDL
MODEL 4
REMARK VINA RESULT:      -6.5     15.997     18.949
REMARK  Name = 45783790
REMARK  6 active torsions:
REMARK  status: ('A' for Active; 'I' for Inactive)
REMARK    1  A    between atoms: N_2  and  C_13
REMARK    2  A    between atoms: N_8  and  C_23
REMARK    3  A    between atoms: N_8  and  C_24
REMARK    4  A    between atoms: C_9  and  C_14
REMARK    5  A    between atoms: C_13  and  C_15
REMARK    6  A    between atoms: C_16  and  C_18
REMARK                            x       y       z     vdW  Elec       q    Type
REMARK                         _______ _______ _______ _____ _____    ______ ____
ROOT
ATOM      1  O   UNL     1      11.750   6.401   4.248  0.00  0.00    -0.336 OA
ATOM      3  N   UNL     1      10.486   4.743   3.430  0.00  0.00    -0.190 NA
ATOM      6  N   UNL     1      12.264   6.109   2.979  0.00  0.00    -0.056 NA
ATOM     14  C   UNL     1      10.706   5.552   4.435  0.00  0.00    +0.245 A 
ATOM     16  C   UNL     1      11.466   5.123   2.560  0.00  0.00    +0.204 A 
ENDROOT
BRANCH  16  18
ATOM      7  N   UNL     1      10.706   3.987  -0.898  0.00  0.00    -0.240 NA
ATOM     18  C   UNL     1      11.623   4.494   1.281  0.00  0.00    +0.041 A 
ATOM     20  C   UNL     1      12.785   3.800   0.961  0.00  0.00    +0.016 A 
ATOM     21  C   UNL     1      10.622   4.558   0.324  0.00  0.00    +0.124 A 
ATOM     22  C   UNL     1      12.908   3.199  -0.288  0.00  0.00    +0.044 A 
ATOM     23  C   UNL     1      11.850   3.321  -1.173  0.00  0.00    +0.118 A 
BRANCH  23   8
ATOM      8  N   UNL     1      11.991   2.705  -2.441  0.00  0.00    -0.332 N 
ATOM     24  C   UNL     1      10.912   2.593  -3.368  0.00  0.00    +0.127 C 
ATOM     26  H   UNL     1      12.819   2.139  -2.591  0.00  0.00    +0.147 HD
ENDBRANCH  23   8
ENDBRANCH  16  18
BRANCH  14   9
ATOM      2  N   UNL     1      10.471   6.779   6.587  0.00  0.00    -0.284 NA
ATOM      9  C   UNL     1       9.969   5.669   5.753  0.00  0.00    +0.146 C 
ATOM     10  C   UNL     1       8.469   5.963   5.571  0.00  0.00    +0.030 C 
ATOM     11  C   UNL     1       8.208   7.222   6.387  0.00  0.00    +0.017 C 
ATOM     12  C   UNL     1       9.338   7.233   7.396  0.00  0.00    +0.085 C 
BRANCH   2  13
ATOM     13  C   UNL     1      11.617   6.411   7.406  0.00  0.00    +0.159 C 
BRANCH  13  15
ATOM      4  N   UNL     1      13.967   6.480   6.539  0.00  0.00    -0.347 N 
ATOM      5  N   UNL     1      13.052   8.449   7.009  0.00  0.00    -0.239 NA
ATOM     15  C   UNL     1      12.863   7.148   6.993  0.00  0.00    +0.121 A 
ATOM     17  C   UNL     1      14.920   7.415   6.249  0.00  0.00    +0.104 A 
ATOM     19  C   UNL     1      14.332   8.622   6.546  0.00  0.00    +0.130 A 
ATOM     25  H   UNL     1      14.062   5.478   6.440  0.00  0.00    +0.167 HD
ENDBRANCH  13  15
ENDBRANCH   2  13
ENDBRANCH  14   9
TORSDOF 5
ENDMDL
MODEL 5
REMARK VINA RESULT:      -6.5     26.538     30.047
REMARK  Name = 45783790
REMARK  6 active torsions:
REMARK  status: ('A' for Active; 'I' for Inactive)
REMARK    1  A    between atoms: N_2  and  C_13
REMARK    2  A    between atoms: N_8  and  C_23
REMARK    3  A    between atoms: N_8  and  C_24
REMARK    4  A    between atoms: C_9  and  C_14
REMARK    5  A    between atoms: C_13  and  C_15
REMARK    6  A    between atoms: C_16  and  C_18
REMARK                            x       y       z     vdW  Elec       q    Type
REMARK                         _______ _______ _______ _____ _____    ______ ____
ROOT
ATOM      1  O   UNL     1      -5.490  -9.495  15.952  0.00  0.00    -0.336 OA
ATOM      3  N   UNL     1      -5.989 -11.281  17.208  0.00  0.00    -0.190 NA
ATOM      6  N   UNL     1      -6.699  -9.195  16.593  0.00  0.00    -0.056 NA
ATOM     14  C   UNL     1      -5.142 -10.740  16.369  0.00  0.00    +0.245 A 
ATOM     16  C   UNL     1      -6.927 -10.296  17.315  0.00  0.00    +0.204 A 
ENDROOT
BRANCH  16  18
ATOM      7  N   UNL     1      -9.101 -11.428  20.111  0.00  0.00    -0.240 NA
ATOM     18  C   UNL     1      -8.083 -10.445  18.151  0.00  0.00    +0.041 A 
ATOM     20  C   UNL     1      -9.273  -9.791  17.852  0.00  0.00    +0.016 A 
ATOM     21  C   UNL     1      -8.050 -11.244  19.283  0.00  0.00    +0.124 A 
ATOM     22  C   UNL     1     -10.378  -9.955  18.681  0.00  0.00    +0.044 A 
ATOM     23  C   UNL     1     -10.241 -10.776  19.788  0.00  0.00    +0.118 A 
BRANCH  23   8
ATOM      8  N   UNL     1     -11.375 -10.932  20.623  0.00  0.00    -0.332 N 
ATOM     24  C   UNL     1     -12.528 -10.098  20.519  0.00  0.00    +0.127 C 
ATOM     26  H   UNL     1     -11.263 -11.503  21.454  0.00  0.00    +0.147 HD
ENDBRANCH  23   8
ENDBRANCH  16  18
BRANCH  14   9
ATOM      2  N   UNL     1      -3.460 -10.666  14.537  0.00  0.00    -0.284 NA
ATOM      9  C   UNL     1      -3.851 -11.302  15.811  0.00  0.00    +0.146 C 
ATOM     10  C   UNL     1      -2.650 -11.073  16.746  0.00  0.00    +0.030 C 
ATOM     11  C   UNL     1      -1.611 -10.358  15.894  0.00  0.00    +0.017 C 
ATOM     12  C   UNL     1      -1.998 -10.726  14.476  0.00  0.00    +0.085 C 
BRANCH   2  13
ATOM     13  C   UNL     1      -4.082 -11.281  13.373  0.00  0.00    +0.159 C 
BRANCH  13  15
ATOM      4  N   UNL     1      -6.011  -9.738  12.955  0.00  0.00    -0.347 N 
ATOM      5  N   UNL     1      -4.463  -9.802  11.363  0.00  0.00    -0.239 NA
ATOM     15  C   UNL     1      -4.825 -10.274  12.535  0.00  0.00    +0.121 A 
ATOM     17  C   UNL     1      -6.432  -8.869  11.988  0.00  0.00    +0.104 A 
ATOM     19  C   UNL     1      -5.460  -8.926  11.016  0.00  0.00    +0.130 A 
ATOM     25  H   UNL     1      -6.491  -9.948  13.820  0.00  0.00    +0.167 HD
ENDBRANCH  13  15
ENDBRANCH   2  13
ENDBRANCH  14   9
TORSDOF 5
ENDMDL
MODEL 6
REMARK VINA RESULT:      -6.4     27.993     30.018
REMARK  Name = 45783790
REMARK  6 active torsions:
REMARK  status: ('A' for Active; 'I' for Inactive)
REMARK    1  A    between atoms: N_2  and  C_13
REMARK    2  A    between atoms: N_8  and  C_23
REMARK    3  A    between atoms: N_8  and  C_24
REMARK    4  A    between atoms: C_9  and  C_14
REMARK    5  A    between atoms: C_13  and  C_15
REMARK    6  A    between atoms: C_16  and  C_18
REMARK                            x       y       z     vdW  Elec       q    Type
REMARK                         _______ _______ _______ _____ _____    ______ ____
ROOT
ATOM      1  O   UNL     1     -12.964   9.071  18.370  0.00  0.00    -0.336 OA
ATOM      3  N   UNL     1     -11.585   7.995  19.768  0.00  0.00    -0.190 NA
ATOM      6  N   UNL     1     -13.784   8.353  19.250  0.00  0.00    -0.056 NA
ATOM     14  C   UNL     1     -11.686   8.805  18.745  0.00  0.00    +0.245 A 
ATOM     16  C   UNL     1     -12.898   7.744  20.044  0.00  0.00    +0.204 A 
ENDROOT
BRANCH  16  18
ATOM      7  N   UNL     1     -14.900   6.312  22.830  0.00  0.00    -0.240 NA
ATOM     18  C   UNL     1     -13.290   6.879  21.118  0.00  0.00    +0.041 A 
ATOM     20  C   UNL     1     -12.495   5.805  21.500  0.00  0.00    +0.016 A 
ATOM     21  C   UNL     1     -14.473   7.088  21.809  0.00  0.00    +0.124 A 
ATOM     22  C   UNL     1     -12.901   4.983  22.546  0.00  0.00    +0.044 A 
ATOM     23  C   UNL     1     -14.101   5.277  23.173  0.00  0.00    +0.118 A 
BRANCH  23   8
ATOM      8  N   UNL     1     -14.501   4.430  24.236  0.00  0.00    -0.332 N 
ATOM     24  C   UNL     1     -15.715   3.680  24.207  0.00  0.00    +0.127 C 
ATOM     26  H   UNL     1     -14.020   4.540  25.122  0.00  0.00    +0.147 HD
ENDBRANCH  23   8
ENDBRANCH  16  18
BRANCH  14   9
ATOM      2  N   UNL     1     -10.983   9.697  16.531  0.00  0.00    -0.284 NA
ATOM      9  C   UNL     1     -10.594   9.474  17.938  0.00  0.00    +0.146 C 
ATOM     10  C   UNL     1     -10.233  10.873  18.469  0.00  0.00    +0.030 C 
ATOM     11  C   UNL     1     -10.390  11.806  17.277  0.00  0.00    +0.017 C 
ATOM     12  C   UNL     1     -10.253  10.884  16.082  0.00  0.00    +0.085 C 
BRANCH   2  13
ATOM     13  C   UNL     1     -10.734   8.545  15.675  0.00  0.00    +0.159 C 
BRANCH  13  15
ATOM      4  N   UNL     1     -13.189   8.088  15.472  0.00  0.00    -0.347 N 
ATOM      5  N   UNL     1     -12.005   7.851  13.608  0.00  0.00    -0.239 NA
ATOM     15  C   UNL     1     -11.956   8.157  14.886  0.00  0.00    +0.121 A 
ATOM     17  C   UNL     1     -14.081   7.713  14.507  0.00  0.00    +0.104 A 
ATOM     19  C   UNL     1     -13.326   7.574  13.366  0.00  0.00    +0.130 A 
ATOM     25  H   UNL     1     -13.402   8.275  16.443  0.00  0.00    +0.167 HD
ENDBRANCH  13  15
ENDBRANCH   2  13
ENDBRANCH  14   9
TORSDOF 5
ENDMDL
MODEL 7
REMARK VINA RESULT:      -6.4     26.505     28.871
REMARK  Name = 45783790
REMARK  6 active torsions:
REMARK  status: ('A' for Active; 'I' for Inactive)
REMARK    1  A    between atoms: N_2  and  C_13
REMARK    2  A    between atoms: N_8  and  C_23
REMARK    3  A    between atoms: N_8  and  C_24
REMARK    4  A    between atoms: C_9  and  C_14
REMARK    5  A    between atoms: C_13  and  C_15
REMARK    6  A    between atoms: C_16  and  C_18
REMARK                            x       y       z     vdW  Elec       q    Type
REMARK                         _______ _______ _______ _____ _____    ______ ____
ROOT
ATOM      1  O   UNL     1      -1.925 -10.672  14.644  0.00  0.00    -0.336 OA
ATOM      3  N   UNL     1      -4.147 -10.666  14.360  0.00  0.00    -0.190 NA
ATOM      6  N   UNL     1      -2.482 -10.618  15.928  0.00  0.00    -0.056 NA
ATOM     14  C   UNL     1      -2.974 -10.697  13.781  0.00  0.00    +0.245 A 
ATOM     16  C   UNL     1      -3.795 -10.619  15.678  0.00  0.00    +0.204 A 
ENDROOT
BRANCH  16  18
ATOM      7  N   UNL     1      -6.978  -9.884  17.452  0.00  0.00    -0.240 NA
ATOM     18  C   UNL     1      -4.779 -10.570  16.719  0.00  0.00    +0.041 A 
ATOM     20  C   UNL     1      -4.529 -11.127  17.969  0.00  0.00    +0.016 A 
ATOM     21  C   UNL     1      -6.009  -9.965  16.514  0.00  0.00    +0.124 A 
ATOM     22  C   UNL     1      -5.502 -11.063  18.960  0.00  0.00    +0.044 A 
ATOM     23  C   UNL     1      -6.699 -10.437  18.654  0.00  0.00    +0.118 A 
BRANCH  23   8
ATOM      8  N   UNL     1      -7.681 -10.382  19.674  0.00  0.00    -0.332 N 
ATOM     24  C   UNL     1      -9.006 -10.882  19.495  0.00  0.00    +0.127 C 
ATOM     26  H   UNL     1      -7.496  -9.772  20.463  0.00  0.00    +0.147 HD
ENDBRANCH  23   8
ENDBRANCH  16  18
BRANCH  14   9
ATOM      2  N   UNL     1      -3.663 -10.124  11.459  0.00  0.00    -0.284 NA
ATOM      9  C   UNL     1      -2.633 -10.757  12.306  0.00  0.00    +0.146 C 
ATOM     10  C   UNL     1      -1.332 -10.006  11.966  0.00  0.00    +0.030 C 
ATOM     11  C   UNL     1      -1.718  -9.014  10.877  0.00  0.00    +0.017 C 
ATOM     12  C   UNL     1      -2.970  -9.617  10.274  0.00  0.00    +0.085 C 
BRANCH   2  13
ATOM     13  C   UNL     1      -4.755 -11.024  11.112  0.00  0.00    +0.159 C 
BRANCH  13  15
ATOM      4  N   UNL     1      -6.464 -10.008  12.637  0.00  0.00    -0.347 N 
ATOM      5  N   UNL     1      -7.051 -10.173  10.501  0.00  0.00    -0.239 NA
ATOM     15  C   UNL     1      -6.100 -10.404  11.379  0.00  0.00    +0.121 A 
ATOM     17  C   UNL     1      -7.726  -9.492  12.555  0.00  0.00    +0.104 A 
ATOM     19  C   UNL     1      -8.067  -9.604  11.227  0.00  0.00    +0.130 A 
ATOM     25  H   UNL     1      -5.903 -10.085  13.475  0.00  0.00    +0.167 HD
ENDBRANCH  13  15
ENDBRANCH   2  13
ENDBRANCH  14   9
TORSDOF 5
ENDMDL
MODEL 8
REMARK VINA RESULT:      -6.1     27.977     29.544
REMARK  Name = 45783790
REMARK  6 active torsions:
REMARK  status: ('A' for Active; 'I' for Inactive)
REMARK    1  A    between atoms: N_2  and  C_13
REMARK    2  A    between atoms: N_8  and  C_23
REMARK    3  A    between atoms: N_8  and  C_24
REMARK    4  A    between atoms: C_9  and  C_14
REMARK    5  A    between atoms: C_13  and  C_15
REMARK    6  A    between atoms: C_16  and  C_18
REMARK                            x       y       z     vdW  Elec       q    Type
REMARK                         _______ _______ _______ _____ _____    ______ ____
ROOT
ATOM      1  O   UNL     1     -11.937  11.485  20.149  0.00  0.00    -0.336 OA
ATOM      3  N   UNL     1     -11.489   9.471  19.279  0.00  0.00    -0.190 NA
ATOM      6  N   UNL     1     -12.571  10.552  20.979  0.00  0.00    -0.056 NA
ATOM     14  C   UNL     1     -11.324  10.765  19.174  0.00  0.00    +0.245 A 
ATOM     16  C   UNL     1     -12.261   9.388  20.402  0.00  0.00    +0.204 A 
ENDROOT
BRANCH  16  18
ATOM      7  N   UNL     1     -14.461   6.820  21.947  0.00  0.00    -0.240 NA
ATOM     18  C   UNL     1     -12.706   8.127  20.919  0.00  0.00    +0.041 A 
ATOM     20  C   UNL     1     -11.873   7.014  20.910  0.00  0.00    +0.016 A 
ATOM     21  C   UNL     1     -13.980   7.978  21.444  0.00  0.00    +0.124 A 
ATOM     22  C   UNL     1     -12.332   5.804  21.418  0.00  0.00    +0.044 A 
ATOM     23  C   UNL     1     -13.622   5.760  21.921  0.00  0.00    +0.118 A 
BRANCH  23   8
ATOM      8  N   UNL     1     -14.076   4.520  22.434  0.00  0.00    -0.332 N 
ATOM     24  C   UNL     1     -14.762   4.406  23.681  0.00  0.00    +0.127 C 
ATOM     26  H   UNL     1     -13.704   3.678  22.008  0.00  0.00    +0.147 HD
ENDBRANCH  23   8
ENDBRANCH  16  18
BRANCH  14   9
ATOM      2  N   UNL     1     -10.924  11.179  16.753  0.00  0.00    -0.284 NA
ATOM      9  C   UNL     1     -10.557  11.554  18.134  0.00  0.00    +0.146 C 
ATOM     10  C   UNL     1     -10.832  13.067  18.213  0.00  0.00    +0.030 C 
ATOM     11  C   UNL     1     -11.290  13.463  16.817  0.00  0.00    +0.017 C 
ATOM     12  C   UNL     1     -10.719  12.373  15.932  0.00  0.00    +0.085 C 
BRANCH   2  13
ATOM     13  C   UNL     1     -10.176  10.034  16.251  0.00  0.00    +0.159 C 
BRANCH  13  15
ATOM      4  N   UNL     1     -10.457   8.443  14.336  0.00  0.00    -0.347 N 
ATOM      5  N   UNL     1     -12.318   8.992  15.418  0.00  0.00    -0.239 NA
ATOM     15  C   UNL     1     -11.016   9.165  15.354  0.00  0.00    +0.121 A 
ATOM     17  C   UNL     1     -11.466   7.766  13.711  0.00  0.00    +0.104 A 
ATOM     19  C   UNL     1     -12.605   8.121  14.397  0.00  0.00    +0.130 A 
ATOM     25  H   UNL     1      -9.477   8.416  14.089  0.00  0.00    +0.167 HD
ENDBRANCH  13  15
ENDBRANCH   2  13
ENDBRANCH  14   9
TORSDOF 5
ENDMDL
MODEL 9
REMARK VINA RESULT:      -6.1     27.329     29.153
REMARK  Name = 45783790
REMARK  6 active torsions:
REMARK  status: ('A' for Active; 'I' for Inactive)
REMARK    1  A    between atoms: N_2  and  C_13
REMARK    2  A    between atoms: N_8  and  C_23
REMARK    3  A    between atoms: N_8  and  C_24
REMARK    4  A    between atoms: C_9  and  C_14
REMARK    5  A    between atoms: C_13  and  C_15
REMARK    6  A    between atoms: C_16  and  C_18
REMARK                            x       y       z     vdW  Elec       q    Type
REMARK                         _______ _______ _______ _____ _____    ______ ____
ROOT
ATOM      1  O   UNL     1      -3.767 -11.161  17.493  0.00  0.00    -0.336 OA
ATOM      3  N   UNL     1      -5.265 -10.394  16.015  0.00  0.00    -0.190 NA
ATOM      6  N   UNL     1      -3.122 -11.157  16.250  0.00  0.00    -0.056 NA
ATOM     14  C   UNL     1      -5.024 -10.698  17.265  0.00  0.00    +0.245 A 
ATOM     16  C   UNL     1      -4.069 -10.692  15.430  0.00  0.00    +0.204 A 
ENDROOT
BRANCH  16  18
ATOM      7  N   UNL     1      -4.779 -10.106  11.828  0.00  0.00    -0.240 NA
ATOM     18  C   UNL     1      -3.853 -10.516  14.023  0.00  0.00    +0.041 A 
ATOM     20  C   UNL     1      -2.575 -10.578  13.481  0.00  0.00    +0.016 A 
ATOM     21  C   UNL     1      -4.912 -10.280  13.161  0.00  0.00    +0.124 A 
ATOM     22  C   UNL     1      -2.397 -10.404  12.112  0.00  0.00    +0.044 A 
ATOM     23  C   UNL     1      -3.521 -10.173  11.336  0.00  0.00    +0.118 A 
BRANCH  23   8
ATOM      8  N   UNL     1      -3.323  -9.996   9.945  0.00  0.00    -0.332 N 
ATOM     24  C   UNL     1      -4.084  -9.071   9.170  0.00  0.00    +0.127 C 
ATOM     26  H   UNL     1      -2.783 -10.705   9.460  0.00  0.00    +0.147 HD
ENDBRANCH  23   8
ENDBRANCH  16  18
BRANCH  14   9
ATOM      2  N   UNL     1      -7.366 -10.583  18.098  0.00  0.00    -0.284 NA
ATOM      9  C   UNL     1      -5.936 -10.604  18.469  0.00  0.00    +0.146 C 
ATOM     10  C   UNL     1      -5.798 -11.811  19.416  0.00  0.00    +0.030 C 
ATOM     11  C   UNL     1      -7.208 -12.366  19.565  0.00  0.00    +0.017 C 
ATOM     12  C   UNL     1      -8.093 -11.186  19.216  0.00  0.00    +0.085 C 
BRANCH   2  13
ATOM     13  C   UNL     1      -7.857  -9.248  17.782  0.00  0.00    +0.159 C 
BRANCH  13  15
ATOM      4  N   UNL     1      -9.327  -8.111  16.102  0.00  0.00    -0.347 N 
ATOM      5  N   UNL     1      -8.824 -10.230  15.667  0.00  0.00    -0.239 NA
ATOM     15  C   UNL     1      -8.661  -9.233  16.509  0.00  0.00    +0.121 A 
ATOM     17  C   UNL     1      -9.956  -8.411  14.926  0.00  0.00    +0.104 A 
ATOM     19  C   UNL     1      -9.630  -9.724  14.679  0.00  0.00    +0.130 A 
ATOM     25  H   UNL     1      -9.354  -7.222  16.583  0.00  0.00    +0.167 HD
ENDBRANCH  13  15
ENDBRANCH   2  13
ENDBRANCH  14   9
TORSDOF 5
ENDMDL
MODEL 10
REMARK VINA RESULT:      -6.1     28.477     31.339
REMARK  Name = 45783790
REMARK  6 active torsions:
REMARK  status: ('A' for Active; 'I' for Inactive)
REMARK    1  A    between atoms: N_2  and  C_13
REMARK    2  A    between atoms: N_8  and  C_23
REMARK    3  A    between atoms: N_8  and  C_24
REMARK    4  A    between atoms: C_9  and  C_14
REMARK    5  A    between atoms: C_13  and  C_15
REMARK    6  A    between atoms: C_16  and  C_18
REMARK                            x       y       z     vdW  Elec       q    Type
REMARK                         _______ _______ _______ _____ _____    ______ ____
ROOT
ATOM      1  O   UNL     1      -7.782 -11.066  16.562  0.00  0.00    -0.336 OA
ATOM      3  N   UNL     1      -7.834  -8.881  17.053  0.00  0.00    -0.190 NA
ATOM      6  N   UNL     1      -8.958 -10.565  15.988  0.00  0.00    -0.056 NA
ATOM     14  C   UNL     1      -7.181 -10.009  17.168  0.00  0.00    +0.245 A 
ATOM     16  C   UNL     1      -8.918  -9.272  16.320  0.00  0.00    +0.204 A 
ENDROOT
BRANCH  16  18
ATOM      7  N   UNL     1     -11.591  -7.640  14.317  0.00  0.00    -0.240 NA
ATOM     18  C   UNL     1      -9.943  -8.345  15.939  0.00  0.00    +0.041 A 
ATOM     20  C   UNL     1     -10.292  -7.282  16.766  0.00  0.00    +0.016 A 
ATOM     21  C   UNL     1     -10.617  -8.478  14.736  0.00  0.00    +0.124 A 
ATOM     22  C   UNL     1     -11.290  -6.398  16.369  0.00  0.00    +0.044 A 
ATOM     23  C   UNL     1     -11.904  -6.619  15.147  0.00  0.00    +0.118 A 
BRANCH  23   8
ATOM      8  N   UNL     1     -12.919  -5.711  14.758  0.00  0.00    -0.332 N 
ATOM     24  C   UNL     1     -12.838  -4.928  13.567  0.00  0.00    +0.127 C 
ATOM     26  H   UNL     1     -13.606  -5.457  15.459  0.00  0.00    +0.147 HD
ENDBRANCH  23   8
ENDBRANCH  16  18
BRANCH  14   9
ATOM      2  N   UNL     1      -5.824 -11.646  18.461  0.00  0.00    -0.284 NA
ATOM      9  C   UNL     1      -5.871 -10.293  17.873  0.00  0.00    +0.146 C 
ATOM     10  C   UNL     1      -4.661 -10.238  16.922  0.00  0.00    +0.030 C 
ATOM     11  C   UNL     1      -3.961 -11.580  17.089  0.00  0.00    +0.017 C 
ATOM     12  C   UNL     1      -4.417 -12.051  18.455  0.00  0.00    +0.085 C 
BRANCH   2  13
ATOM     13  C   UNL     1      -6.408 -11.714  19.794  0.00  0.00    +0.159 C 
BRANCH  13  15
ATOM      4  N   UNL     1      -8.025 -13.601  19.472  0.00  0.00    -0.347 N 
ATOM      5  N   UNL     1      -8.922 -11.641  20.009  0.00  0.00    -0.239 NA
ATOM     15  C   UNL     1      -7.801 -12.285  19.768  0.00  0.00    +0.121 A 
ATOM     17  C   UNL     1      -9.374 -13.810  19.527  0.00  0.00    +0.104 A 
ATOM     19  C   UNL     1      -9.906 -12.585  19.860  0.00  0.00    +0.130 A 
ATOM     25  H   UNL     1      -7.322 -14.293  19.249  0.00  0.00    +0.167 HD
ENDBRANCH  13  15
ENDBRANCH   2  13
ENDBRANCH  14   9
TORSDOF 5
ENDMDL
