MODEL 1
REMARK VINA RESULT:      -7.0      0.000      0.000
REMARK  Name = 11887241
REMARK  6 active torsions:
REMARK  status: ('A' for Active; 'I' for Inactive)
REMARK    1  A    between atoms: O_4  and  C_21
REMARK    2  A    between atoms: O_4  and  C_28
REMARK    3  A    between atoms: N_7  and  C_14
REMARK    4  A    between atoms: N_8  and  C_15
REMARK    5  A    between atoms: C_18  and  C_20
REMARK    6  A    between atoms: C_19  and  C_21
REMARK                            x       y       z     vdW  Elec       q    Type
REMARK                         _______ _______ _______ _____ _____    ______ ____
ROOT
ATOM      1  O   UNL     1      -5.055 -11.642  19.122  0.00  0.00    -0.370 OA
ATOM      2  O   UNL     1      -5.775  -9.734  16.728  0.00  0.00    -0.370 OA
ATOM     12  C   UNL     1      -6.406 -10.891  17.307  0.00  0.00    +0.176 C 
ATOM     13  C   UNL     1      -5.300 -11.843  17.722  0.00  0.00    +0.171 C 
ATOM     14  C   UNL     1      -7.092 -10.509  18.604  0.00  0.00    +0.168 C 
ATOM     15  C   UNL     1      -4.102 -11.401  16.911  0.00  0.00    +0.130 C 
ATOM     16  C   UNL     1      -5.989 -10.685  19.641  0.00  0.00    +0.190 C 
ATOM     17  C   UNL     1      -4.352  -9.913  16.750  0.00  0.00    +0.185 C 
ENDROOT
BRANCH  14   7
ATOM      7  N   UNL     1      -8.305 -11.295  18.850  0.00  0.00    -0.217 N 
ATOM      9  N   UNL     1      -8.286 -12.322  19.705  0.00  0.00    -0.043 NA
ATOM     10  N   UNL     1     -10.320 -12.078  18.825  0.00  0.00    -0.108 NA
ATOM     11  N   UNL     1      -9.524 -12.799  19.687  0.00  0.00    -0.023 NA
ATOM     18  C   UNL     1      -9.542 -11.149  18.318  0.00  0.00    +0.182 A 
BRANCH  18  20
ATOM      5  O   UNL     1     -10.984  -6.639  17.082  0.00  0.00    -0.453 OA
ATOM      6  O   UNL     1     -10.979  -7.169  14.731  0.00  0.00    -0.453 OA
ATOM     20  C   UNL     1      -9.909 -10.139  17.360  0.00  0.00    +0.024 A 
ATOM     22  C   UNL     1     -10.265  -8.860  17.798  0.00  0.00    +0.061 A 
ATOM     23  C   UNL     1      -9.907 -10.446  15.987  0.00  0.00    +0.015 A 
ATOM     24  C   UNL     1     -10.610  -7.926  16.843  0.00  0.00    +0.167 A 
ATOM     25  C   UNL     1     -10.260  -9.481  15.040  0.00  0.00    +0.050 A 
ATOM     26  C   UNL     1     -10.607  -8.228  15.501  0.00  0.00    +0.166 A 
ATOM     27  C   UNL     1     -11.215  -6.166  15.740  0.00  0.00    +0.466 C 
ENDBRANCH  18  20
ENDBRANCH  14   7
BRANCH  15   8
ATOM      3  O   UNL     1      -1.837 -11.627  15.118  0.00  0.00    -0.272 OA
ATOM      8  N   UNL     1      -4.064 -12.066  15.631  0.00  0.00    -0.305 N 
ATOM     19  C   UNL     1      -2.926 -12.122  14.839  0.00  0.00    +0.251 C 
ATOM     34  H   UNL     1      -4.898 -12.558  15.324  0.00  0.00    +0.149 HD
BRANCH  19  21
ATOM     21  C   UNL     1      -3.174 -12.881  13.553  0.00  0.00    +0.324 C 
BRANCH  21   4
ATOM      4  O   UNL     1      -2.241 -12.503  12.563  0.00  0.00    -0.483 OA
BRANCH   4  28
ATOM     28  C   UNL     1      -2.598 -11.473  11.725  0.00  0.00    +0.121 A 
ATOM     29  C   UNL     1      -1.851 -10.302  11.726  0.00  0.00    +0.045 A 
ATOM     30  C   UNL     1      -3.700 -11.618  10.894  0.00  0.00    +0.045 A 
ATOM     31  C   UNL     1      -2.215  -9.257  10.877  0.00  0.00    +0.004 A 
ATOM     32  C   UNL     1      -4.062 -10.572  10.045  0.00  0.00    +0.004 A 
ATOM     33  C   UNL     1      -3.320  -9.391  10.037  0.00  0.00    +0.000 A 
ENDBRANCH   4  28
ENDBRANCH  21   4
ENDBRANCH  19  21
ENDBRANCH  15   8
TORSDOF 6
ENDMDL
MODEL 2
REMARK VINA RESULT:      -6.9     19.070     21.343
REMARK  Name = 11887241
REMARK  6 active torsions:
REMARK  status: ('A' for Active; 'I' for Inactive)
REMARK    1  A    between atoms: O_4  and  C_21
REMARK    2  A    between atoms: O_4  and  C_28
REMARK    3  A    between atoms: N_7  and  C_14
REMARK    4  A    between atoms: N_8  and  C_15
REMARK    5  A    between atoms: C_18  and  C_20
REMARK    6  A    between atoms: C_19  and  C_21
REMARK                            x       y       z     vdW  Elec       q    Type
REMARK                         _______ _______ _______ _____ _____    ______ ____
ROOT
ATOM      1  O   UNL     1     -13.455   5.316  22.344  0.00  0.00    -0.370 OA
ATOM      2  O   UNL     1     -16.531   5.937  22.566  0.00  0.00    -0.370 OA
ATOM     12  C   UNL     1     -15.340   6.618  23.004  0.00  0.00    +0.176 C 
ATOM     13  C   UNL     1     -14.352   5.555  23.441  0.00  0.00    +0.171 C 
ATOM     14  C   UNL     1     -14.675   7.302  21.825  0.00  0.00    +0.168 C 
ATOM     15  C   UNL     1     -15.205   4.332  23.696  0.00  0.00    +0.130 C 
ATOM     16  C   UNL     1     -13.759   6.217  21.270  0.00  0.00    +0.190 C 
ATOM     17  C   UNL     1     -16.345   4.523  22.712  0.00  0.00    +0.185 C 
ENDROOT
BRANCH  14   7
ATOM      7  N   UNL     1     -14.001   8.546  22.206  0.00  0.00    -0.217 N 
ATOM      9  N   UNL     1     -14.196   9.081  23.414  0.00  0.00    -0.043 NA
ATOM     10  N   UNL     1     -12.787  10.336  22.226  0.00  0.00    -0.108 NA
ATOM     11  N   UNL     1     -13.449  10.179  23.423  0.00  0.00    -0.023 NA
ATOM     18  C   UNL     1     -13.144   9.310  21.487  0.00  0.00    +0.182 A 
BRANCH  18  20
ATOM      5  O   UNL     1     -13.794   9.219  16.637  0.00  0.00    -0.453 OA
ATOM      6  O   UNL     1     -11.622   8.246  16.259  0.00  0.00    -0.453 OA
ATOM     20  C   UNL     1     -12.717   9.022  20.142  0.00  0.00    +0.024 A 
ATOM     22  C   UNL     1     -13.564   9.308  19.066  0.00  0.00    +0.061 A 
ATOM     23  C   UNL     1     -11.449   8.453  19.919  0.00  0.00    +0.015 A 
ATOM     24  C   UNL     1     -13.111   9.013  17.797  0.00  0.00    +0.167 A 
ATOM     25  C   UNL     1     -11.016   8.165  18.622  0.00  0.00    +0.050 A 
ATOM     26  C   UNL     1     -11.871   8.457  17.580  0.00  0.00    +0.166 A 
ATOM     27  C   UNL     1     -12.845   8.732  15.668  0.00  0.00    +0.466 C 
ENDBRANCH  18  20
ENDBRANCH  14   7
BRANCH  15   8
ATOM      3  O   UNL     1     -16.076   2.018  25.206  0.00  0.00    -0.272 OA
ATOM      8  N   UNL     1     -15.688   4.307  25.056  0.00  0.00    -0.305 N 
ATOM     19  C   UNL     1     -16.085   3.144  25.699  0.00  0.00    +0.251 C 
ATOM     34  H   UNL     1     -15.686   5.178  25.579  0.00  0.00    +0.149 HD
BRANCH  19  21
ATOM     21  C   UNL     1     -16.544   3.413  27.116  0.00  0.00    +0.324 C 
BRANCH  21   4
ATOM      4  O   UNL     1     -16.635   2.210  27.848  0.00  0.00    -0.483 OA
BRANCH   4  28
ATOM     28  C   UNL     1     -15.701   2.004  28.836  0.00  0.00    +0.121 A 
ATOM     29  C   UNL     1     -15.032   3.092  29.381  0.00  0.00    +0.045 A 
ATOM     30  C   UNL     1     -15.439   0.712  29.271  0.00  0.00    +0.045 A 
ATOM     31  C   UNL     1     -14.084   2.881  30.382  0.00  0.00    +0.004 A 
ATOM     32  C   UNL     1     -14.490   0.503  30.272  0.00  0.00    +0.004 A 
ATOM     33  C   UNL     1     -13.813   1.588  30.827  0.00  0.00    +0.000 A 
ENDBRANCH   4  28
ENDBRANCH  21   4
ENDBRANCH  19  21
ENDBRANCH  15   8
TORSDOF 6
ENDMDL
MODEL 3
REMARK VINA RESULT:      -6.8     28.075     30.263
REMARK  Name = 11887241
REMARK  6 active torsions:
REMARK  status: ('A' for Active; 'I' for Inactive)
REMARK    1  A    between atoms: O_4  and  C_21
REMARK    2  A    between atoms: O_4  and  C_28
REMARK    3  A    between atoms: N_7  and  C_14
REMARK    4  A    between atoms: N_8  and  C_15
REMARK    5  A    between atoms: C_18  and  C_20
REMARK    6  A    between atoms: C_19  and  C_21
REMARK                            x       y       z     vdW  Elec       q    Type
REMARK                         _______ _______ _______ _____ _____    ______ ____
ROOT
ATOM      1  O   UNL     1      13.449   8.355  17.783  0.00  0.00    -0.370 OA
ATOM      2  O   UNL     1      13.445   8.209  20.924  0.00  0.00    -0.370 OA
ATOM     12  C   UNL     1      13.969   9.150  19.970  0.00  0.00    +0.176 C 
ATOM     13  C   UNL     1      14.477   8.351  18.786  0.00  0.00    +0.171 C 
ATOM     14  C   UNL     1      12.842   9.996  19.408  0.00  0.00    +0.168 C 
ATOM     15  C   UNL     1      14.669   6.954  19.332  0.00  0.00    +0.130 C 
ATOM     16  C   UNL     1      12.355   9.175  18.219  0.00  0.00    +0.190 C 
ATOM     17  C   UNL     1      13.604   6.880  20.411  0.00  0.00    +0.185 C 
ENDROOT
BRANCH  14   7
ATOM      7  N   UNL     1      13.271  11.360  19.085  0.00  0.00    -0.217 N 
ATOM      9  N   UNL     1      14.002  11.600  17.993  0.00  0.00    -0.043 NA
ATOM     10  N   UNL     1      13.613  13.495  19.103  0.00  0.00    -0.108 NA
ATOM     11  N   UNL     1      14.209  12.911  18.007  0.00  0.00    -0.023 NA
ATOM     18  C   UNL     1      13.036  12.512  19.757  0.00  0.00    +0.182 A 
BRANCH  18  20
ATOM      5  O   UNL     1      12.114  11.328  24.415  0.00  0.00    -0.453 OA
ATOM      6  O   UNL     1      10.209  12.800  24.521  0.00  0.00    -0.453 OA
ATOM     20  C   UNL     1      12.280  12.611  20.978  0.00  0.00    +0.024 A 
ATOM     22  C   UNL     1      12.656  11.855  22.093  0.00  0.00    +0.061 A 
ATOM     23  C   UNL     1      11.167  13.470  21.043  0.00  0.00    +0.015 A 
ATOM     24  C   UNL     1      11.900  11.983  23.240  0.00  0.00    +0.167 A 
ATOM     25  C   UNL     1      10.420  13.581  22.218  0.00  0.00    +0.050 A 
ATOM     26  C   UNL     1      10.813  12.823  23.302  0.00  0.00    +0.166 A 
ATOM     27  C   UNL     1      11.040  11.851  25.221  0.00  0.00    +0.466 C 
ENDBRANCH  18  20
ENDBRANCH  14   7
BRANCH  15   8
ATOM      3  O   UNL     1      16.877   5.456  18.201  0.00  0.00    -0.272 OA
ATOM      8  N   UNL     1      15.990   6.788  19.890  0.00  0.00    -0.305 N 
ATOM     19  C   UNL     1      16.987   6.048  19.272  0.00  0.00    +0.251 C 
ATOM     34  H   UNL     1      16.209   7.281  20.751  0.00  0.00    +0.149 HD
BRANCH  19  21
ATOM     21  C   UNL     1      18.268   6.046  20.079  0.00  0.00    +0.324 C 
BRANCH  21   4
ATOM      4  O   UNL     1      18.132   6.852  21.231  0.00  0.00    -0.483 OA
BRANCH   4  28
ATOM     28  C   UNL     1      19.008   7.904  21.367  0.00  0.00    +0.121 A 
ATOM     29  C   UNL     1      18.524   9.151  21.736  0.00  0.00    +0.045 A 
ATOM     30  C   UNL     1      20.360   7.702  21.132  0.00  0.00    +0.045 A 
ATOM     31  C   UNL     1      19.412  10.218  21.873  0.00  0.00    +0.004 A 
ATOM     32  C   UNL     1      21.248   8.769  21.269  0.00  0.00    +0.004 A 
ATOM     33  C   UNL     1      20.773  10.027  21.639  0.00  0.00    +0.000 A 
ENDBRANCH   4  28
ENDBRANCH  21   4
ENDBRANCH  19  21
ENDBRANCH  15   8
TORSDOF 6
ENDMDL
MODEL 4
REMARK VINA RESULT:      -6.7     27.203     29.356
REMARK  Name = 11887241
REMARK  6 active torsions:
REMARK  status: ('A' for Active; 'I' for Inactive)
REMARK    1  A    between atoms: O_4  and  C_21
REMARK    2  A    between atoms: O_4  and  C_28
REMARK    3  A    between atoms: N_7  and  C_14
REMARK    4  A    between atoms: N_8  and  C_15
REMARK    5  A    between atoms: C_18  and  C_20
REMARK    6  A    between atoms: C_19  and  C_21
REMARK                            x       y       z     vdW  Elec       q    Type
REMARK                         _______ _______ _______ _____ _____    ______ ____
ROOT
ATOM      1  O   UNL     1      13.751   8.308  16.628  0.00  0.00    -0.370 OA
ATOM      2  O   UNL     1      14.540  11.196  17.593  0.00  0.00    -0.370 OA
ATOM     12  C   UNL     1      13.364  10.379  17.744  0.00  0.00    +0.176 C 
ATOM     13  C   UNL     1      13.181   9.614  16.447  0.00  0.00    +0.171 C 
ATOM     14  C   UNL     1      13.610   9.310  18.791  0.00  0.00    +0.168 C 
ATOM     15  C   UNL     1      13.982  10.400  15.433  0.00  0.00    +0.130 C 
ATOM     16  C   UNL     1      14.209   8.167  17.980  0.00  0.00    +0.190 C 
ATOM     17  C   UNL     1      15.090  10.992  16.285  0.00  0.00    +0.185 C 
ENDROOT
BRANCH  14   7
ATOM      7  N   UNL     1      12.398   8.969  19.541  0.00  0.00    -0.217 N 
ATOM      9  N   UNL     1      11.573   8.014  19.100  0.00  0.00    -0.043 NA
ATOM     10  N   UNL     1      10.807   8.889  21.004  0.00  0.00    -0.108 NA
ATOM     11  N   UNL     1      10.599   7.968  20.001  0.00  0.00    -0.023 NA
ATOM     18  C   UNL     1      11.930   9.498  20.697  0.00  0.00    +0.182 A 
BRANCH  18  20
ATOM      5  O   UNL     1      12.533  14.180  21.985  0.00  0.00    -0.453 OA
ATOM      6  O   UNL     1      14.333  13.641  23.495  0.00  0.00    -0.453 OA
ATOM     20  C   UNL     1      12.575  10.549  21.439  0.00  0.00    +0.024 A 
ATOM     22  C   UNL     1      12.154  11.874  21.280  0.00  0.00    +0.061 A 
ATOM     23  C   UNL     1      13.626  10.237  22.322  0.00  0.00    +0.015 A 
ATOM     24  C   UNL     1      12.804  12.846  22.012  0.00  0.00    +0.167 A 
ATOM     25  C   UNL     1      14.266  11.242  23.051  0.00  0.00    +0.050 A 
ATOM     26  C   UNL     1      13.831  12.539  22.875  0.00  0.00    +0.166 A 
ATOM     27  C   UNL     1      13.505  14.677  22.927  0.00  0.00    +0.466 C 
ENDBRANCH  18  20
ENDBRANCH  14   7
BRANCH  15   8
ATOM      3  O   UNL     1      14.518  11.803  12.955  0.00  0.00    -0.272 OA
ATOM      8  N   UNL     1      13.182  11.435  14.824  0.00  0.00    -0.305 N 
ATOM     19  C   UNL     1      13.521  12.052  13.629  0.00  0.00    +0.251 C 
ATOM     34  H   UNL     1      12.303  11.683  15.270  0.00  0.00    +0.149 HD
BRANCH  19  21
ATOM     21  C   UNL     1      12.503  13.097  13.227  0.00  0.00    +0.324 C 
BRANCH  21   4
ATOM      4  O   UNL     1      12.289  13.076  11.832  0.00  0.00    -0.483 OA
BRANCH   4  28
ATOM     28  C   UNL     1      11.105  12.538  11.386  0.00  0.00    +0.121 A 
ATOM     29  C   UNL     1       9.947  12.727  12.128  0.00  0.00    +0.045 A 
ATOM     30  C   UNL     1      11.086  11.813  10.203  0.00  0.00    +0.045 A 
ATOM     31  C   UNL     1       8.746  12.180  11.676  0.00  0.00    +0.004 A 
ATOM     32  C   UNL     1       9.884  11.266   9.752  0.00  0.00    +0.004 A 
ATOM     33  C   UNL     1       8.715  11.450  10.489  0.00  0.00    +0.000 A 
ENDBRANCH   4  28
ENDBRANCH  21   4
ENDBRANCH  19  21
ENDBRANCH  15   8
TORSDOF 6
ENDMDL
MODEL 5
REMARK VINA RESULT:      -6.6      3.216      8.345
REMARK  Name = 11887241
REMARK  6 active torsions:
REMARK  status: ('A' for Active; 'I' for Inactive)
REMARK    1  A    between atoms: O_4  and  C_21
REMARK    2  A    between atoms: O_4  and  C_28
REMARK    3  A    between atoms: N_7  and  C_14
REMARK    4  A    between atoms: N_8  and  C_15
REMARK    5  A    between atoms: C_18  and  C_20
REMARK    6  A    between atoms: C_19  and  C_21
REMARK                            x       y       z     vdW  Elec       q    Type
REMARK                         _______ _______ _______ _____ _____    ______ ____
ROOT
ATOM      1  O   UNL     1      -2.581 -13.271  13.272  0.00  0.00    -0.370 OA
ATOM      2  O   UNL     1      -5.364 -11.850  13.623  0.00  0.00    -0.370 OA
ATOM     12  C   UNL     1      -4.019 -11.376  13.429  0.00  0.00    +0.176 C 
ATOM     13  C   UNL     1      -3.102 -12.306  14.199  0.00  0.00    +0.171 C 
ATOM     14  C   UNL     1      -3.615 -11.552  11.977  0.00  0.00    +0.168 C 
ATOM     15  C   UNL     1      -4.010 -12.981  15.203  0.00  0.00    +0.130 C 
ATOM     16  C   UNL     1      -3.042 -12.964  11.948  0.00  0.00    +0.190 C 
ATOM     17  C   UNL     1      -5.339 -13.006  14.470  0.00  0.00    +0.185 C 
ENDROOT
BRANCH  14   7
ATOM      7  N   UNL     1      -2.700 -10.503  11.519  0.00  0.00    -0.217 N 
ATOM      9  N   UNL     1      -1.473 -10.398  12.037  0.00  0.00    -0.043 NA
ATOM     10  N   UNL     1      -1.806  -8.819  10.499  0.00  0.00    -0.108 NA
ATOM     11  N   UNL     1      -0.927  -9.364  11.408  0.00  0.00    -0.023 NA
ATOM     18  C   UNL     1      -2.898  -9.542  10.584  0.00  0.00    +0.182 A 
BRANCH  18  20
ATOM      5  O   UNL     1      -5.814 -10.435   6.757  0.00  0.00    -0.453 OA
ATOM      6  O   UNL     1      -7.530  -8.960   7.588  0.00  0.00    -0.453 OA
ATOM     20  C   UNL     1      -4.113  -9.369   9.831  0.00  0.00    +0.024 A 
ATOM     22  C   UNL     1      -4.290 -10.056   8.626  0.00  0.00    +0.061 A 
ATOM     23  C   UNL     1      -5.117  -8.508  10.314  0.00  0.00    +0.015 A 
ATOM     24  C   UNL     1      -5.471  -9.856   7.941  0.00  0.00    +0.167 A 
ATOM     25  C   UNL     1      -6.303  -8.324   9.600  0.00  0.00    +0.050 A 
ATOM     26  C   UNL     1      -6.450  -9.014   8.414  0.00  0.00    +0.166 A 
ATOM     27  C   UNL     1      -7.120  -9.864   6.540  0.00  0.00    +0.466 C 
ENDBRANCH  18  20
ENDBRANCH  14   7
BRANCH  15   8
ATOM      3  O   UNL     1      -5.214 -13.804  17.706  0.00  0.00    -0.272 OA
ATOM      8  N   UNL     1      -4.101 -12.215  16.422  0.00  0.00    -0.305 N 
ATOM     19  C   UNL     1      -4.700 -12.696  17.578  0.00  0.00    +0.251 C 
ATOM     34  H   UNL     1      -3.658 -11.301  16.445  0.00  0.00    +0.149 HD
BRANCH  19  21
ATOM     21  C   UNL     1      -4.651 -11.682  18.700  0.00  0.00    +0.324 C 
BRANCH  21   4
ATOM      4  O   UNL     1      -5.244 -10.465  18.299  0.00  0.00    -0.483 OA
BRANCH   4  28
ATOM     28  C   UNL     1      -6.617 -10.396  18.328  0.00  0.00    +0.121 A 
ATOM     29  C   UNL     1      -7.315 -11.082  19.313  0.00  0.00    +0.045 A 
ATOM     30  C   UNL     1      -7.284  -9.644  17.371  0.00  0.00    +0.045 A 
ATOM     31  C   UNL     1      -8.708 -11.013  19.341  0.00  0.00    +0.004 A 
ATOM     32  C   UNL     1      -8.677  -9.576  17.400  0.00  0.00    +0.004 A 
ATOM     33  C   UNL     1      -9.388 -10.261  18.384  0.00  0.00    +0.000 A 
ENDBRANCH   4  28
ENDBRANCH  21   4
ENDBRANCH  19  21
ENDBRANCH  15   8
TORSDOF 6
ENDMDL
MODEL 6
REMARK VINA RESULT:      -6.6     28.259     30.496
REMARK  Name = 11887241
REMARK  6 active torsions:
REMARK  status: ('A' for Active; 'I' for Inactive)
REMARK    1  A    between atoms: O_4  and  C_21
REMARK    2  A    between atoms: O_4  and  C_28
REMARK    3  A    between atoms: N_7  and  C_14
REMARK    4  A    between atoms: N_8  and  C_15
REMARK    5  A    between atoms: C_18  and  C_20
REMARK    6  A    between atoms: C_19  and  C_21
REMARK                            x       y       z     vdW  Elec       q    Type
REMARK                         _______ _______ _______ _____ _____    ______ ____
ROOT
ATOM      1  O   UNL     1      13.846   7.903  17.983  0.00  0.00    -0.370 OA
ATOM      2  O   UNL     1      13.758   8.000  21.125  0.00  0.00    -0.370 OA
ATOM     12  C   UNL     1      14.177   8.930  20.109  0.00  0.00    +0.176 C 
ATOM     13  C   UNL     1      14.831   8.122  19.006  0.00  0.00    +0.171 C 
ATOM     14  C   UNL     1      12.962   9.562  19.456  0.00  0.00    +0.168 C 
ATOM     15  C   UNL     1      15.197   6.812  19.668  0.00  0.00    +0.130 C 
ATOM     16  C   UNL     1      12.635   8.591  18.328  0.00  0.00    +0.190 C 
ATOM     17  C   UNL     1      14.118   6.671  20.725  0.00  0.00    +0.185 C 
ENDROOT
BRANCH  14   7
ATOM      7  N   UNL     1      13.207  10.943  19.033  0.00  0.00    -0.217 N 
ATOM      9  N   UNL     1      13.563  11.214  17.775  0.00  0.00    -0.043 NA
ATOM     10  N   UNL     1      13.434  13.093  18.970  0.00  0.00    -0.108 NA
ATOM     11  N   UNL     1      13.701  12.534  17.739  0.00  0.00    -0.023 NA
ATOM     18  C   UNL     1      13.130  12.086  19.756  0.00  0.00    +0.182 A 
BRANCH  18  20
ATOM      5  O   UNL     1      14.214  12.285  24.525  0.00  0.00    -0.453 OA
ATOM      6  O   UNL     1      11.889  12.343  25.157  0.00  0.00    -0.453 OA
ATOM     20  C   UNL     1      12.773  12.153  21.150  0.00  0.00    +0.024 A 
ATOM     22  C   UNL     1      13.775  12.185  22.125  0.00  0.00    +0.061 A 
ATOM     23  C   UNL     1      11.416  12.187  21.522  0.00  0.00    +0.015 A 
ATOM     24  C   UNL     1      13.383  12.249  23.446  0.00  0.00    +0.167 A 
ATOM     25  C   UNL     1      11.047  12.251  22.868  0.00  0.00    +0.050 A 
ATOM     26  C   UNL     1      12.056  12.281  23.808  0.00  0.00    +0.166 A 
ATOM     27  C   UNL     1      13.260  12.345  25.604  0.00  0.00    +0.466 C 
ENDBRANCH  18  20
ENDBRANCH  14   7
BRANCH  15   8
ATOM      3  O   UNL     1      17.632   5.573  18.702  0.00  0.00    -0.272 OA
ATOM      8  N   UNL     1      16.509   6.879  20.266  0.00  0.00    -0.305 N 
ATOM     19  C   UNL     1      17.622   6.249  19.728  0.00  0.00    +0.251 C 
ATOM     34  H   UNL     1      16.627   7.458  21.092  0.00  0.00    +0.149 HD
BRANCH  19  21
ATOM     21  C   UNL     1      18.862   6.489  20.562  0.00  0.00    +0.324 C 
BRANCH  21   4
ATOM      4  O   UNL     1      19.744   5.390  20.472  0.00  0.00    -0.483 OA
BRANCH   4  28
ATOM     28  C   UNL     1      21.091   5.662  20.527  0.00  0.00    +0.121 A 
ATOM     29  C   UNL     1      21.994   4.614  20.651  0.00  0.00    +0.045 A 
ATOM     30  C   UNL     1      21.527   6.977  20.460  0.00  0.00    +0.045 A 
ATOM     31  C   UNL     1      23.361   4.890  20.708  0.00  0.00    +0.004 A 
ATOM     32  C   UNL     1      22.893   7.252  20.517  0.00  0.00    +0.004 A 
ATOM     33  C   UNL     1      23.810   6.209  20.642  0.00  0.00    +0.000 A 
ENDBRANCH   4  28
ENDBRANCH  21   4
ENDBRANCH  19  21
ENDBRANCH  15   8
TORSDOF 6
ENDMDL
MODEL 7
REMARK VINA RESULT:      -6.6     24.197     27.897
REMARK  Name = 11887241
REMARK  6 active torsions:
REMARK  status: ('A' for Active; 'I' for Inactive)
REMARK    1  A    between atoms: O_4  and  C_21
REMARK    2  A    between atoms: O_4  and  C_28
REMARK    3  A    between atoms: N_7  and  C_14
REMARK    4  A    between atoms: N_8  and  C_15
REMARK    5  A    between atoms: C_18  and  C_20
REMARK    6  A    between atoms: C_19  and  C_21
REMARK                            x       y       z     vdW  Elec       q    Type
REMARK                         _______ _______ _______ _____ _____    ______ ____
ROOT
ATOM      1  O   UNL     1       9.524   7.844   1.677  0.00  0.00    -0.370 OA
ATOM      2  O   UNL     1      10.552   4.902   2.098  0.00  0.00    -0.370 OA
ATOM     12  C   UNL     1      11.132   6.203   2.310  0.00  0.00    +0.176 C 
ATOM     13  C   UNL     1      10.648   7.097   1.186  0.00  0.00    +0.171 C 
ATOM     14  C   UNL     1      10.559   6.823   3.571  0.00  0.00    +0.168 C 
ATOM     15  C   UNL     1      10.206   6.135   0.106  0.00  0.00    +0.130 C 
ATOM     16  C   UNL     1       9.315   7.543   3.064  0.00  0.00    +0.190 C 
ATOM     17  C   UNL     1       9.749   4.933   0.911  0.00  0.00    +0.185 C 
ENDROOT
BRANCH  14   7
ATOM      7  N   UNL     1      11.528   7.674   4.267  0.00  0.00    -0.217 N 
ATOM      9  N   UNL     1      12.448   8.357   3.580  0.00  0.00    -0.043 NA
ATOM     10  N   UNL     1      12.666   8.738   5.766  0.00  0.00    -0.108 NA
ATOM     11  N   UNL     1      13.144   9.009   4.503  0.00  0.00    -0.023 NA
ATOM     18  C   UNL     1      11.662   7.909   5.594  0.00  0.00    +0.182 A 
BRANCH  18  20
ATOM      5  O   UNL     1      10.523   4.398   8.808  0.00  0.00    -0.453 OA
ATOM      6  O   UNL     1       8.549   5.569   9.545  0.00  0.00    -0.453 OA
ATOM     20  C   UNL     1      10.832   7.330   6.618  0.00  0.00    +0.024 A 
ATOM     22  C   UNL     1      11.176   6.095   7.179  0.00  0.00    +0.061 A 
ATOM     23  C   UNL     1       9.679   8.012   7.051  0.00  0.00    +0.015 A 
ATOM     24  C   UNL     1      10.349   5.581   8.156  0.00  0.00    +0.167 A 
ATOM     25  C   UNL     1       8.859   7.468   8.042  0.00  0.00    +0.050 A 
ATOM     26  C   UNL     1       9.222   6.249   8.577  0.00  0.00    +0.166 A 
ATOM     27  C   UNL     1       9.379   4.398   9.687  0.00  0.00    +0.466 C 
ENDBRANCH  18  20
ENDBRANCH  14   7
BRANCH  15   8
ATOM      3  O   UNL     1      10.149   4.321  -2.152  0.00  0.00    -0.272 OA
ATOM      8  N   UNL     1      11.302   5.792  -0.767  0.00  0.00    -0.305 N 
ATOM     19  C   UNL     1      11.178   4.908  -1.829  0.00  0.00    +0.251 C 
ATOM     34  H   UNL     1      12.192   6.262  -0.624  0.00  0.00    +0.149 HD
BRANCH  19  21
ATOM     21  C   UNL     1      12.486   4.736  -2.573  0.00  0.00    +0.324 C 
BRANCH  21   4
ATOM      4  O   UNL     1      13.165   3.582  -2.127  0.00  0.00    -0.483 OA
BRANCH   4  28
ATOM     28  C   UNL     1      13.777   3.650  -0.897  0.00  0.00    +0.121 A 
ATOM     29  C   UNL     1      13.097   3.210   0.230  0.00  0.00    +0.045 A 
ATOM     30  C   UNL     1      15.065   4.159  -0.802  0.00  0.00    +0.045 A 
ATOM     31  C   UNL     1      13.718   3.281   1.477  0.00  0.00    +0.004 A 
ATOM     32  C   UNL     1      15.685   4.230   0.446  0.00  0.00    +0.004 A 
ATOM     33  C   UNL     1      15.011   3.791   1.585  0.00  0.00    +0.000 A 
ENDBRANCH   4  28
ENDBRANCH  21   4
ENDBRANCH  19  21
ENDBRANCH  15   8
TORSDOF 6
ENDMDL
MODEL 8
REMARK VINA RESULT:      -6.6     26.275     30.931
REMARK  Name = 11887241
REMARK  6 active torsions:
REMARK  status: ('A' for Active; 'I' for Inactive)
REMARK    1  A    between atoms: O_4  and  C_21
REMARK    2  A    between atoms: O_4  and  C_28
REMARK    3  A    between atoms: N_7  and  C_14
REMARK    4  A    between atoms: N_8  and  C_15
REMARK    5  A    between atoms: C_18  and  C_20
REMARK    6  A    between atoms: C_19  and  C_21
REMARK                            x       y       z     vdW  Elec       q    Type
REMARK                         _______ _______ _______ _____ _____    ______ ____
ROOT
ATOM      1  O   UNL     1      12.487   9.363   6.428  0.00  0.00    -0.370 OA
ATOM      2  O   UNL     1      14.446   6.917   6.687  0.00  0.00    -0.370 OA
ATOM     12  C   UNL     1      14.183   7.880   5.649  0.00  0.00    +0.176 C 
ATOM     13  C   UNL     1      12.693   8.162   5.668  0.00  0.00    +0.171 C 
ATOM     14  C   UNL     1      14.831   9.206   6.001  0.00  0.00    +0.168 C 
ATOM     15  C   UNL     1      12.096   6.976   6.392  0.00  0.00    +0.130 C 
ATOM     16  C   UNL     1      13.755   9.907   6.821  0.00  0.00    +0.190 C 
ATOM     17  C   UNL     1      13.214   6.579   7.339  0.00  0.00    +0.185 C 
ENDROOT
BRANCH  14   7
ATOM      7  N   UNL     1      15.284   9.940   4.816  0.00  0.00    -0.217 N 
ATOM      9  N   UNL     1      14.417  10.644   4.082  0.00  0.00    -0.043 NA
ATOM     10  N   UNL     1      16.471  10.799   3.226  0.00  0.00    -0.108 NA
ATOM     11  N   UNL     1      15.150  11.170   3.108  0.00  0.00    -0.023 NA
ATOM     18  C   UNL     1      16.530  10.036   4.294  0.00  0.00    +0.182 A 
BRANCH  18  20
ATOM      5  O   UNL     1      20.322   6.953   4.046  0.00  0.00    -0.453 OA
ATOM      6  O   UNL     1      21.051   7.506   6.275  0.00  0.00    -0.453 OA
ATOM     20  C   UNL     1      17.700   9.398   4.839  0.00  0.00    +0.024 A 
ATOM     22  C   UNL     1      18.405   8.464   4.072  0.00  0.00    +0.061 A 
ATOM     23  C   UNL     1      18.128   9.720   6.140  0.00  0.00    +0.015 A 
ATOM     24  C   UNL     1      19.519   7.880   4.638  0.00  0.00    +0.167 A 
ATOM     25  C   UNL     1      19.260   9.112   6.689  0.00  0.00    +0.050 A 
ATOM     26  C   UNL     1      19.936   8.195   5.911  0.00  0.00    +0.166 A 
ATOM     27  C   UNL     1      21.291   6.722   5.089  0.00  0.00    +0.466 C 
ENDBRANCH  18  20
ENDBRANCH  14   7
BRANCH  15   8
ATOM      3  O   UNL     1       9.572   6.486   5.057  0.00  0.00    -0.272 OA
ATOM      8  N   UNL     1      11.786   5.906   5.475  0.00  0.00    -0.305 N 
ATOM     19  C   UNL     1      10.541   5.752   4.882  0.00  0.00    +0.251 C 
ATOM     34  H   UNL     1      12.533   5.268   5.215  0.00  0.00    +0.149 HD
BRANCH  19  21
ATOM     21  C   UNL     1      10.500   4.548   3.966  0.00  0.00    +0.324 C 
BRANCH  21   4
ATOM      4  O   UNL     1      10.315   4.947   2.624  0.00  0.00    -0.483 OA
BRANCH   4  28
ATOM     28  C   UNL     1      11.149   4.389   1.683  0.00  0.00    +0.121 A 
ATOM     29  C   UNL     1      12.321   3.767   2.092  0.00  0.00    +0.045 A 
ATOM     30  C   UNL     1      10.806   4.458   0.340  0.00  0.00    +0.045 A 
ATOM     31  C   UNL     1      13.167   3.203   1.137  0.00  0.00    +0.004 A 
ATOM     32  C   UNL     1      11.653   3.894  -0.614  0.00  0.00    +0.004 A 
ATOM     33  C   UNL     1      12.833   3.267  -0.215  0.00  0.00    +0.000 A 
ENDBRANCH   4  28
ENDBRANCH  21   4
ENDBRANCH  19  21
ENDBRANCH  15   8
TORSDOF 6
ENDMDL
MODEL 9
REMARK VINA RESULT:      -6.5     22.105     24.929
REMARK  Name = 11887241
REMARK  6 active torsions:
REMARK  status: ('A' for Active; 'I' for Inactive)
REMARK    1  A    between atoms: O_4  and  C_21
REMARK    2  A    between atoms: O_4  and  C_28
REMARK    3  A    between atoms: N_7  and  C_14
REMARK    4  A    between atoms: N_8  and  C_15
REMARK    5  A    between atoms: C_18  and  C_20
REMARK    6  A    between atoms: C_19  and  C_21
REMARK                            x       y       z     vdW  Elec       q    Type
REMARK                         _______ _______ _______ _____ _____    ______ ____
ROOT
ATOM      1  O   UNL     1      -0.536  12.179   2.490  0.00  0.00    -0.370 OA
ATOM      2  O   UNL     1      -0.962   9.263   1.392  0.00  0.00    -0.370 OA
ATOM     12  C   UNL     1      -0.546   9.801   2.660  0.00  0.00    +0.176 C 
ATOM     13  C   UNL     1       0.306  11.022   2.371  0.00  0.00    +0.171 C 
ATOM     14  C   UNL     1      -1.748  10.340   3.412  0.00  0.00    +0.168 C 
ATOM     15  C   UNL     1       0.745  10.840   0.935  0.00  0.00    +0.130 C 
ATOM     16  C   UNL     1      -1.846  11.779   2.918  0.00  0.00    +0.190 C 
ATOM     17  C   UNL     1      -0.417  10.067   0.337  0.00  0.00    +0.185 C 
ENDROOT
BRANCH  14   7
ATOM      7  N   UNL     1      -1.615  10.191   4.864  0.00  0.00    -0.217 N 
ATOM      9  N   UNL     1      -0.640  10.821   5.524  0.00  0.00    -0.043 NA
ATOM     10  N   UNL     1      -1.888   9.625   6.933  0.00  0.00    -0.108 NA
ATOM     11  N   UNL     1      -0.811  10.472   6.793  0.00  0.00    -0.023 NA
ATOM     18  C   UNL     1      -2.372   9.466   5.722  0.00  0.00    +0.182 A 
BRANCH  18  20
ATOM      5  O   UNL     1      -6.979   8.899   4.171  0.00  0.00    -0.453 OA
ATOM      6  O   UNL     1      -6.814   6.495   4.232  0.00  0.00    -0.453 OA
ATOM     20  C   UNL     1      -3.506   8.665   5.342  0.00  0.00    +0.024 A 
ATOM     22  C   UNL     1      -4.693   9.285   4.939  0.00  0.00    +0.061 A 
ATOM     23  C   UNL     1      -3.412   7.261   5.376  0.00  0.00    +0.015 A 
ATOM     24  C   UNL     1      -5.752   8.475   4.584  0.00  0.00    +0.167 A 
ATOM     25  C   UNL     1      -4.500   6.464   5.011  0.00  0.00    +0.050 A 
ATOM     26  C   UNL     1      -5.659   7.103   4.619  0.00  0.00    +0.166 A 
ATOM     27  C   UNL     1      -7.645   7.640   3.949  0.00  0.00    +0.466 C 
ENDBRANCH  18  20
ENDBRANCH  14   7
BRANCH  15   8
ATOM      3  O   UNL     1       3.079  11.444  -0.672  0.00  0.00    -0.272 OA
ATOM      8  N   UNL     1       1.971  10.083   0.856  0.00  0.00    -0.305 N 
ATOM     19  C   UNL     1       3.041  10.453   0.053  0.00  0.00    +0.251 C 
ATOM     34  H   UNL     1       2.070   9.271   1.458  0.00  0.00    +0.149 HD
BRANCH  19  21
ATOM     21  C   UNL     1       4.193   9.478   0.168  0.00  0.00    +0.324 C 
BRANCH  21   4
ATOM      4  O   UNL     1       5.403  10.162   0.416  0.00  0.00    -0.483 OA
BRANCH   4  28
ATOM     28  C   UNL     1       5.997   9.963   1.640  0.00  0.00    +0.121 A 
ATOM     29  C   UNL     1       5.383  10.451   2.786  0.00  0.00    +0.045 A 
ATOM     30  C   UNL     1       7.201   9.277   1.712  0.00  0.00    +0.045 A 
ATOM     31  C   UNL     1       5.987  10.249   4.027  0.00  0.00    +0.004 A 
ATOM     32  C   UNL     1       7.804   9.076   2.953  0.00  0.00    +0.004 A 
ATOM     33  C   UNL     1       7.197   9.562   4.110  0.00  0.00    +0.000 A 
ENDBRANCH   4  28
ENDBRANCH  21   4
ENDBRANCH  19  21
ENDBRANCH  15   8
TORSDOF 6
ENDMDL
MODEL 10
REMARK VINA RESULT:      -6.5      2.576      8.202
REMARK  Name = 11887241
REMARK  6 active torsions:
REMARK  status: ('A' for Active; 'I' for Inactive)
REMARK    1  A    between atoms: O_4  and  C_21
REMARK    2  A    between atoms: O_4  and  C_28
REMARK    3  A    between atoms: N_7  and  C_14
REMARK    4  A    between atoms: N_8  and  C_15
REMARK    5  A    between atoms: C_18  and  C_20
REMARK    6  A    between atoms: C_19  and  C_21
REMARK                            x       y       z     vdW  Elec       q    Type
REMARK                         _______ _______ _______ _____ _____    ______ ____
ROOT
ATOM      1  O   UNL     1      -5.331 -10.417  18.008  0.00  0.00    -0.370 OA
ATOM      2  O   UNL     1      -6.982 -11.548  15.582  0.00  0.00    -0.370 OA
ATOM     12  C   UNL     1      -5.828 -10.694  15.693  0.00  0.00    +0.176 C 
ATOM     13  C   UNL     1      -6.037  -9.816  16.911  0.00  0.00    +0.171 C 
ATOM     14  C   UNL     1      -4.602 -11.525  16.022  0.00  0.00    +0.168 C 
ATOM     15  C   UNL     1      -7.528  -9.867  17.158  0.00  0.00    +0.130 C 
ATOM     16  C   UNL     1      -4.619 -11.574  17.545  0.00  0.00    +0.190 C 
ATOM     17  C   UNL     1      -7.893 -11.248  16.647  0.00  0.00    +0.185 C 
ENDROOT
BRANCH  14   7
ATOM      7  N   UNL     1      -3.377 -10.975  15.434  0.00  0.00    -0.217 N 
ATOM      9  N   UNL     1      -2.377 -10.559  16.215  0.00  0.00    -0.043 NA
ATOM     10  N   UNL     1      -1.856 -10.275  14.065  0.00  0.00    -0.108 NA
ATOM     11  N   UNL     1      -1.445 -10.131  15.372  0.00  0.00    -0.023 NA
ATOM     18  C   UNL     1      -3.058 -10.802  14.129  0.00  0.00    +0.182 A 
BRANCH  18  20
ATOM      5  O   UNL     1      -6.208  -9.692  10.552  0.00  0.00    -0.453 OA
ATOM      6  O   UNL     1      -6.385 -11.992   9.852  0.00  0.00    -0.453 OA
ATOM     20  C   UNL     1      -3.912 -11.146  13.022  0.00  0.00    +0.024 A 
ATOM     22  C   UNL     1      -4.632 -10.145  12.360  0.00  0.00    +0.061 A 
ATOM     23  C   UNL     1      -4.018 -12.488  12.612  0.00  0.00    +0.015 A 
ATOM     24  C   UNL     1      -5.437 -10.524  11.306  0.00  0.00    +0.167 A 
ATOM     25  C   UNL     1      -4.841 -12.843  11.541  0.00  0.00    +0.050 A 
ATOM     26  C   UNL     1      -5.539 -11.836  10.907  0.00  0.00    +0.166 A 
ATOM     27  C   UNL     1      -6.804 -10.629   9.632  0.00  0.00    +0.466 C 
ENDBRANCH  18  20
ENDBRANCH  14   7
BRANCH  15   8
ATOM      3  O   UNL     1     -10.098  -8.678  17.773  0.00  0.00    -0.272 OA
ATOM      8  N   UNL     1      -8.215  -8.837  16.416  0.00  0.00    -0.305 N 
ATOM     19  C   UNL     1      -9.450  -8.328  16.790  0.00  0.00    +0.251 C 
ATOM     34  H   UNL     1      -7.744  -8.434  15.611  0.00  0.00    +0.149 HD
BRANCH  19  21
ATOM     21  C   UNL     1      -9.932  -7.260  15.831  0.00  0.00    +0.324 C 
BRANCH  21   4
ATOM      4  O   UNL     1     -10.956  -6.486  16.419  0.00  0.00    -0.483 OA
BRANCH   4  28
ATOM     28  C   UNL     1     -12.118  -6.332  15.700  0.00  0.00    +0.121 A 
ATOM     29  C   UNL     1     -13.266  -7.000  16.106  0.00  0.00    +0.045 A 
ATOM     30  C   UNL     1     -12.125  -5.514  14.579  0.00  0.00    +0.045 A 
ATOM     31  C   UNL     1     -14.444  -6.844  15.375  0.00  0.00    +0.004 A 
ATOM     32  C   UNL     1     -13.303  -5.359  13.849  0.00  0.00    +0.004 A 
ATOM     33  C   UNL     1     -14.462  -6.025  14.247  0.00  0.00    +0.000 A 
ENDBRANCH   4  28
ENDBRANCH  21   4
ENDBRANCH  19  21
ENDBRANCH  15   8
TORSDOF 6
ENDMDL
