MODEL 1
REMARK VINA RESULT:      -6.7      0.000      0.000
REMARK  Name = 71693635
REMARK  8 active torsions:
REMARK  status: ('A' for Active; 'I' for Inactive)
REMARK    1  A    between atoms: O_2  and  C_11
REMARK    2  A    between atoms: N_5  and  C_14
REMARK    3  A    between atoms: N_6  and  C_19
REMARK    4  A    between atoms: N_7  and  C_20
REMARK    5  A    between atoms: C_8  and  C_11
REMARK    6  A    between atoms: C_9  and  C_10
REMARK    7  A    between atoms: C_20  and  C_22
REMARK    8  A    between atoms: C_20  and  C_23
REMARK                            x       y       z     vdW  Elec       q    Type
REMARK                         _______ _______ _______ _____ _____    ______ ____
ROOT
ATOM     10  C   UNL     1      16.120   7.396  19.790  0.00  0.00    -0.017 A 
ATOM     15  C   UNL     1      16.507   6.210  19.165  0.00  0.00    +0.008 A 
ATOM     16  C   UNL     1      17.011   8.065  20.629  0.00  0.00    +0.008 A 
ATOM     17  C   UNL     1      17.786   5.695  19.379  0.00  0.00    +0.024 A 
ATOM     18  C   UNL     1      18.290   7.550  20.842  0.00  0.00    +0.024 A 
ATOM     19  C   UNL     1      18.677   6.364  20.218  0.00  0.00    +0.035 A 
ENDROOT
BRANCH  10   9
ATOM      1  O   UNL     1      14.384   7.662  18.205  0.00  0.00    -0.361 OA
ATOM      3  O   UNL     1      10.890   8.358  18.260  0.00  0.00    -0.273 OA
ATOM      5  N   UNL     1      12.289   7.752  20.023  0.00  0.00    -0.295 N 
ATOM      8  C   UNL     1      13.646   7.353  20.469  0.00  0.00    +0.134 C 
ATOM      9  C   UNL     1      14.733   7.956  19.559  0.00  0.00    +0.171 C 
ATOM     12  C   UNL     1      13.225   8.365  17.823  0.00  0.00    +0.256 C 
ATOM     13  C   UNL     1      12.017   8.139  18.710  0.00  0.00    +0.242 C 
ATOM     14  C   UNL     1      11.167   7.502  20.925  0.00  0.00    +0.132 C 
BRANCH   8  11
ATOM     11  C   UNL     1      13.912   7.712  21.938  0.00  0.00    +0.181 C 
BRANCH  11   2
ATOM      2  O   UNL     1      13.971   9.120  22.044  0.00  0.00    -0.393 OA
ATOM     24  H   UNL     1      14.425   9.450  21.250  0.00  0.00    +0.209 HD
ENDBRANCH  11   2
ENDBRANCH   8  11
ENDBRANCH  10   9
BRANCH  19   6
ATOM      4  O   UNL     1      20.193   5.922  22.769  0.00  0.00    -0.253 OA
ATOM      6  N   UNL     1      19.956   5.849  20.431  0.00  0.00    -0.269 N 
ATOM      7  N   UNL     1      21.903   5.115  21.440  0.00  0.00    -0.297 N 
ATOM     21  C   UNL     1      20.632   5.658  21.652  0.00  0.00    +0.304 C 
ATOM     25  H   UNL     1      20.464   5.574  19.594  0.00  0.00    +0.156 HD
ATOM     26  H   UNL     1      22.221   4.994  20.483  0.00  0.00    +0.151 HD
BRANCH   7  20
ATOM     20  C   UNL     1      22.821   4.812  22.513  0.00  0.00    +0.068 C 
ATOM     22  C   UNL     1      22.625   3.381  22.998  0.00  0.00    +0.027 C 
ATOM     23  C   UNL     1      24.256   5.052  22.065  0.00  0.00    +0.027 C 
ENDBRANCH   7  20
ENDBRANCH  19   6
TORSDOF 5
ENDMDL
MODEL 2
REMARK VINA RESULT:      -6.6      1.673      2.302
REMARK  Name = 71693635
REMARK  8 active torsions:
REMARK  status: ('A' for Active; 'I' for Inactive)
REMARK    1  A    between atoms: O_2  and  C_11
REMARK    2  A    between atoms: N_5  and  C_14
REMARK    3  A    between atoms: N_6  and  C_19
REMARK    4  A    between atoms: N_7  and  C_20
REMARK    5  A    between atoms: C_8  and  C_11
REMARK    6  A    between atoms: C_9  and  C_10
REMARK    7  A    between atoms: C_20  and  C_22
REMARK    8  A    between atoms: C_20  and  C_23
REMARK                            x       y       z     vdW  Elec       q    Type
REMARK                         _______ _______ _______ _____ _____    ______ ____
ROOT
ATOM     10  C   UNL     1      15.639   7.075  20.102  0.00  0.00    -0.017 A 
ATOM     15  C   UNL     1      15.985   6.385  18.939  0.00  0.00    +0.008 A 
ATOM     16  C   UNL     1      16.561   7.195  21.141  0.00  0.00    +0.008 A 
ATOM     17  C   UNL     1      17.254   5.818  18.817  0.00  0.00    +0.024 A 
ATOM     18  C   UNL     1      17.829   6.628  21.019  0.00  0.00    +0.024 A 
ATOM     19  C   UNL     1      18.175   5.938  19.857  0.00  0.00    +0.035 A 
ENDROOT
BRANCH  10   9
ATOM      1  O   UNL     1      13.683   7.162  21.429  0.00  0.00    -0.361 OA
ATOM      3  O   UNL     1      10.915   9.366  21.848  0.00  0.00    -0.273 OA
ATOM      5  N   UNL     1      12.927   9.740  20.733  0.00  0.00    -0.295 N 
ATOM      8  C   UNL     1      14.265   9.228  20.352  0.00  0.00    +0.134 C 
ATOM      9  C   UNL     1      14.263   7.692  20.235  0.00  0.00    +0.171 C 
ATOM     12  C   UNL     1      12.312   7.477  21.501  0.00  0.00    +0.256 C 
ATOM     13  C   UNL     1      11.987   8.953  21.401  0.00  0.00    +0.242 C 
ATOM     14  C   UNL     1      12.682  11.176  20.617  0.00  0.00    +0.132 C 
BRANCH   8  11
ATOM     11  C   UNL     1      14.795   9.866  19.060  0.00  0.00    +0.181 C 
BRANCH  11   2
ATOM      2  O   UNL     1      14.074   9.323  17.973  0.00  0.00    -0.393 OA
ATOM     24  H   UNL     1      14.619   8.615  17.591  0.00  0.00    +0.209 HD
ENDBRANCH  11   2
ENDBRANCH   8  11
ENDBRANCH  10   9
BRANCH  19   6
ATOM      4  O   UNL     1      20.420   5.750  21.839  0.00  0.00    -0.253 OA
ATOM      6  N   UNL     1      19.444   5.370  19.734  0.00  0.00    -0.269 N 
ATOM      7  N   UNL     1      21.595   4.651  20.180  0.00  0.00    -0.297 N 
ATOM     21  C   UNL     1      20.472   5.305  20.695  0.00  0.00    +0.304 C 
ATOM     25  H   UNL     1      19.651   4.948  18.831  0.00  0.00    +0.156 HD
ATOM     26  H   UNL     1      21.588   4.377  19.202  0.00  0.00    +0.151 HD
BRANCH   7  20
ATOM     20  C   UNL     1      22.803   4.437  20.944  0.00  0.00    +0.068 C 
ATOM     22  C   UNL     1      22.765   3.081  21.638  0.00  0.00    +0.027 C 
ATOM     23  C   UNL     1      24.026   4.563  20.046  0.00  0.00    +0.027 C 
ENDBRANCH   7  20
ENDBRANCH  19   6
TORSDOF 5
ENDMDL
MODEL 3
REMARK VINA RESULT:      -6.3      1.979      8.729
REMARK  Name = 71693635
REMARK  8 active torsions:
REMARK  status: ('A' for Active; 'I' for Inactive)
REMARK    1  A    between atoms: O_2  and  C_11
REMARK    2  A    between atoms: N_5  and  C_14
REMARK    3  A    between atoms: N_6  and  C_19
REMARK    4  A    between atoms: N_7  and  C_20
REMARK    5  A    between atoms: C_8  and  C_11
REMARK    6  A    between atoms: C_9  and  C_10
REMARK    7  A    between atoms: C_20  and  C_22
REMARK    8  A    between atoms: C_20  and  C_23
REMARK                            x       y       z     vdW  Elec       q    Type
REMARK                         _______ _______ _______ _____ _____    ______ ____
ROOT
ATOM     10  C   UNL     1      18.983   6.020  20.590  0.00  0.00    -0.017 A 
ATOM     15  C   UNL     1      18.534   5.598  19.338  0.00  0.00    +0.008 A 
ATOM     16  C   UNL     1      18.098   6.633  21.477  0.00  0.00    +0.008 A 
ATOM     17  C   UNL     1      17.201   5.788  18.975  0.00  0.00    +0.024 A 
ATOM     18  C   UNL     1      16.765   6.823  21.114  0.00  0.00    +0.024 A 
ATOM     19  C   UNL     1      16.316   6.401  19.862  0.00  0.00    +0.035 A 
ENDROOT
BRANCH  10   9
ATOM      1  O   UNL     1      20.822   4.535  20.483  0.00  0.00    -0.361 OA
ATOM      3  O   UNL     1      24.359   4.739  20.859  0.00  0.00    -0.273 OA
ATOM      5  N   UNL     1      22.811   6.466  20.624  0.00  0.00    -0.295 N 
ATOM      8  C   UNL     1      21.399   6.866  20.413  0.00  0.00    +0.134 C 
ATOM      9  C   UNL     1      20.429   5.814  20.986  0.00  0.00    +0.171 C 
ATOM     12  C   UNL     1      22.064   4.147  21.019  0.00  0.00    +0.256 C 
ATOM     13  C   UNL     1      23.193   5.135  20.806  0.00  0.00    +0.242 C 
ATOM     14  C   UNL     1      23.851   7.466  20.395  0.00  0.00    +0.132 C 
BRANCH   8  11
ATOM     11  C   UNL     1      21.089   8.255  20.988  0.00  0.00    +0.181 C 
BRANCH  11   2
ATOM      2  O   UNL     1      21.131   8.169  22.397  0.00  0.00    -0.393 OA
ATOM     24  H   UNL     1      20.521   7.459  22.661  0.00  0.00    +0.209 HD
ENDBRANCH  11   2
ENDBRANCH   8  11
ENDBRANCH  10   9
BRANCH  19   6
ATOM      4  O   UNL     1      14.749   8.930  19.474  0.00  0.00    -0.253 OA
ATOM      6  N   UNL     1      14.983   6.590  19.498  0.00  0.00    -0.269 N 
ATOM      7  N   UNL     1      12.957   7.565  18.958  0.00  0.00    -0.297 N 
ATOM     21  C   UNL     1      14.284   7.802  19.327  0.00  0.00    +0.304 C 
ATOM     25  H   UNL     1      14.447   5.741  19.335  0.00  0.00    +0.156 HD
ATOM     26  H   UNL     1      12.629   6.605  18.930  0.00  0.00    +0.151 HD
BRANCH   7  20
ATOM     20  C   UNL     1      12.005   8.624  18.714  0.00  0.00    +0.068 C 
ATOM     22  C   UNL     1      11.373   8.469  17.336  0.00  0.00    +0.027 C 
ATOM     23  C   UNL     1      10.946   8.646  19.808  0.00  0.00    +0.027 C 
ENDBRANCH   7  20
ENDBRANCH  19   6
TORSDOF 5
ENDMDL
MODEL 4
REMARK VINA RESULT:      -6.1     27.832     30.607
REMARK  Name = 71693635
REMARK  8 active torsions:
REMARK  status: ('A' for Active; 'I' for Inactive)
REMARK    1  A    between atoms: O_2  and  C_11
REMARK    2  A    between atoms: N_5  and  C_14
REMARK    3  A    between atoms: N_6  and  C_19
REMARK    4  A    between atoms: N_7  and  C_20
REMARK    5  A    between atoms: C_8  and  C_11
REMARK    6  A    between atoms: C_9  and  C_10
REMARK    7  A    between atoms: C_20  and  C_22
REMARK    8  A    between atoms: C_20  and  C_23
REMARK                            x       y       z     vdW  Elec       q    Type
REMARK                         _______ _______ _______ _____ _____    ______ ____
ROOT
ATOM     10  C   UNL     1     -12.484   7.970  18.622  0.00  0.00    -0.017 A 
ATOM     15  C   UNL     1     -11.698   7.223  19.500  0.00  0.00    +0.008 A 
ATOM     16  C   UNL     1     -13.804   8.274  18.955  0.00  0.00    +0.008 A 
ATOM     17  C   UNL     1     -12.233   6.782  20.711  0.00  0.00    +0.024 A 
ATOM     18  C   UNL     1     -14.339   7.833  20.166  0.00  0.00    +0.024 A 
ATOM     19  C   UNL     1     -13.552   7.087  21.044  0.00  0.00    +0.035 A 
ENDROOT
BRANCH  10   9
ATOM      1  O   UNL     1     -12.911   8.249  16.312  0.00  0.00    -0.361 OA
ATOM      3  O   UNL     1     -11.569  10.171  13.629  0.00  0.00    -0.273 OA
ATOM      5  N   UNL     1     -11.201  10.400  15.919  0.00  0.00    -0.295 N 
ATOM      8  C   UNL     1     -11.516   9.940  17.293  0.00  0.00    +0.134 C 
ATOM      9  C   UNL     1     -11.906   8.450  17.308  0.00  0.00    +0.171 C 
ATOM     12  C   UNL     1     -12.378   8.424  15.021  0.00  0.00    +0.256 C 
ATOM     13  C   UNL     1     -11.698   9.758  14.783  0.00  0.00    +0.242 C 
ATOM     14  C   UNL     1     -10.550  11.698  15.761  0.00  0.00    +0.132 C 
BRANCH   8  11
ATOM     11  C   UNL     1     -10.372  10.208  18.281  0.00  0.00    +0.181 C 
BRANCH  11   2
ATOM      2  O   UNL     1      -9.274   9.398  17.913  0.00  0.00    -0.393 OA
ATOM     24  H   UNL     1      -9.550   8.869  17.146  0.00  0.00    +0.209 HD
ENDBRANCH  11   2
ENDBRANCH   8  11
ENDBRANCH  10   9
BRANCH  19   6
ATOM      4  O   UNL     1     -15.584   4.952  21.610  0.00  0.00    -0.253 OA
ATOM      6  N   UNL     1     -14.086   6.645  22.255  0.00  0.00    -0.269 N 
ATOM      7  N   UNL     1     -15.315   5.494  23.840  0.00  0.00    -0.297 N 
ATOM     21  C   UNL     1     -15.043   5.635  22.476  0.00  0.00    +0.304 C 
ATOM     25  H   UNL     1     -13.736   7.115  23.087  0.00  0.00    +0.156 HD
ATOM     26  H   UNL     1     -14.883   6.146  24.487  0.00  0.00    +0.151 HD
BRANCH   7  20
ATOM     20  C   UNL     1     -16.258   4.532  24.361  0.00  0.00    +0.068 C 
ATOM     22  C   UNL     1     -15.532   3.297  24.880  0.00  0.00    +0.027 C 
ATOM     23  C   UNL     1     -17.115   5.166  25.448  0.00  0.00    +0.027 C 
ENDBRANCH   7  20
ENDBRANCH  19   6
TORSDOF 5
ENDMDL
MODEL 5
REMARK VINA RESULT:      -6.1     29.685     32.201
REMARK  Name = 71693635
REMARK  8 active torsions:
REMARK  status: ('A' for Active; 'I' for Inactive)
REMARK    1  A    between atoms: O_2  and  C_11
REMARK    2  A    between atoms: N_5  and  C_14
REMARK    3  A    between atoms: N_6  and  C_19
REMARK    4  A    between atoms: N_7  and  C_20
REMARK    5  A    between atoms: C_8  and  C_11
REMARK    6  A    between atoms: C_9  and  C_10
REMARK    7  A    between atoms: C_20  and  C_22
REMARK    8  A    between atoms: C_20  and  C_23
REMARK                            x       y       z     vdW  Elec       q    Type
REMARK                         _______ _______ _______ _____ _____    ______ ____
ROOT
ATOM     10  C   UNL     1     -11.404  -4.736   9.479  0.00  0.00    -0.017 A 
ATOM     15  C   UNL     1     -10.231  -4.115   9.047  0.00  0.00    +0.008 A 
ATOM     16  C   UNL     1     -11.511  -6.126   9.440  0.00  0.00    +0.008 A 
ATOM     17  C   UNL     1      -9.167  -4.885   8.578  0.00  0.00    +0.024 A 
ATOM     18  C   UNL     1     -10.446  -6.896   8.971  0.00  0.00    +0.024 A 
ATOM     19  C   UNL     1      -9.274  -6.275   8.539  0.00  0.00    +0.035 A 
ENDROOT
BRANCH  10   9
ATOM      1  O   UNL     1     -13.562  -3.911   8.969  0.00  0.00    -0.361 OA
ATOM      3  O   UNL     1     -16.343  -2.604  10.772  0.00  0.00    -0.273 OA
ATOM      5  N   UNL     1     -14.469  -3.725  11.586  0.00  0.00    -0.295 N 
ATOM      8  C   UNL     1     -13.200  -4.431  11.286  0.00  0.00    +0.134 C 
ATOM      9  C   UNL     1     -12.560  -3.902   9.988  0.00  0.00    +0.171 C 
ATOM     12  C   UNL     1     -14.561  -2.957   9.242  0.00  0.00    +0.256 C 
ATOM     13  C   UNL     1     -15.225  -3.094  10.597  0.00  0.00    +0.242 C 
ATOM     14  C   UNL     1     -15.059  -3.904  12.910  0.00  0.00    +0.132 C 
BRANCH   8  11
ATOM     11  C   UNL     1     -12.199  -4.362  12.448  0.00  0.00    +0.181 C 
BRANCH  11   2
ATOM      2  O   UNL     1     -11.882  -3.004  12.677  0.00  0.00    -0.393 OA
ATOM     24  H   UNL     1     -12.397  -2.714  13.449  0.00  0.00    +0.209 HD
ENDBRANCH  11   2
ENDBRANCH   8  11
ENDBRANCH  10   9
BRANCH  19   6
ATOM      4  O   UNL     1      -7.661  -8.402   9.910  0.00  0.00    -0.253 OA
ATOM      6  N   UNL     1      -8.209  -7.044   8.070  0.00  0.00    -0.269 N 
ATOM      7  N   UNL     1      -6.483  -8.577   7.930  0.00  0.00    -0.297 N 
ATOM     21  C   UNL     1      -7.477  -8.036   8.752  0.00  0.00    +0.304 C 
ATOM     25  H   UNL     1      -7.926  -6.864   7.110  0.00  0.00    +0.156 HD
ATOM     26  H   UNL     1      -6.346  -8.170   7.010  0.00  0.00    +0.151 HD
BRANCH   7  20
ATOM     20  C   UNL     1      -5.578  -9.615   8.364  0.00  0.00    +0.068 C 
ATOM     22  C   UNL     1      -5.202 -10.521   7.198  0.00  0.00    +0.027 C 
ATOM     23  C   UNL     1      -4.341  -9.004   9.010  0.00  0.00    +0.027 C 
ENDBRANCH   7  20
ENDBRANCH  19   6
TORSDOF 5
ENDMDL
MODEL 6
REMARK VINA RESULT:      -6.1     27.605     31.008
REMARK  Name = 71693635
REMARK  8 active torsions:
REMARK  status: ('A' for Active; 'I' for Inactive)
REMARK    1  A    between atoms: O_2  and  C_11
REMARK    2  A    between atoms: N_5  and  C_14
REMARK    3  A    between atoms: N_6  and  C_19
REMARK    4  A    between atoms: N_7  and  C_20
REMARK    5  A    between atoms: C_8  and  C_11
REMARK    6  A    between atoms: C_9  and  C_10
REMARK    7  A    between atoms: C_20  and  C_22
REMARK    8  A    between atoms: C_20  and  C_23
REMARK                            x       y       z     vdW  Elec       q    Type
REMARK                         _______ _______ _______ _____ _____    ______ ____
ROOT
ATOM     10  C   UNL     1     -13.267   7.510  20.513  0.00  0.00    -0.017 A 
ATOM     15  C   UNL     1     -14.624   7.183  20.527  0.00  0.00    +0.008 A 
ATOM     16  C   UNL     1     -12.356   6.733  21.228  0.00  0.00    +0.008 A 
ATOM     17  C   UNL     1     -15.067   6.078  21.254  0.00  0.00    +0.024 A 
ATOM     18  C   UNL     1     -12.800   5.628  21.955  0.00  0.00    +0.024 A 
ATOM     19  C   UNL     1     -14.156   5.301  21.968  0.00  0.00    +0.035 A 
ENDROOT
BRANCH  10   9
ATOM      1  O   UNL     1     -12.650   9.790  20.649  0.00  0.00    -0.361 OA
ATOM      3  O   UNL     1     -10.784  12.104  18.686  0.00  0.00    -0.273 OA
ATOM      5  N   UNL     1     -10.895   9.784  18.498  0.00  0.00    -0.295 N 
ATOM      8  C   UNL     1     -11.423   8.505  19.033  0.00  0.00    +0.134 C 
ATOM      9  C   UNL     1     -12.784   8.708  19.725  0.00  0.00    +0.171 C 
ATOM     12  C   UNL     1     -12.454  11.007  19.970  0.00  0.00    +0.256 C 
ATOM     13  C   UNL     1     -11.283  11.024  19.007  0.00  0.00    +0.242 C 
ATOM     14  C   UNL     1      -9.761   9.729  17.579  0.00  0.00    +0.132 C 
BRANCH   8  11
ATOM     11  C   UNL     1     -11.522   7.414  17.958  0.00  0.00    +0.181 C 
BRANCH  11   2
ATOM      2  O   UNL     1     -12.563   7.765  17.069  0.00  0.00    -0.393 OA
ATOM     24  H   UNL     1     -12.838   8.671  17.290  0.00  0.00    +0.209 HD
ENDBRANCH  11   2
ENDBRANCH   8  11
ENDBRANCH  10   9
BRANCH  19   6
ATOM      4  O   UNL     1     -16.115   5.126  24.235  0.00  0.00    -0.253 OA
ATOM      6  N   UNL     1     -14.601   4.196  22.695  0.00  0.00    -0.269 N 
ATOM      7  N   UNL     1     -15.703   2.853  24.221  0.00  0.00    -0.297 N 
ATOM     21  C   UNL     1     -15.525   4.160  23.758  0.00  0.00    +0.304 C 
ATOM     25  H   UNL     1     -14.204   3.301  22.420  0.00  0.00    +0.156 HD
ATOM     26  H   UNL     1     -15.124   2.119  23.824  0.00  0.00    +0.151 HD
BRANCH   7  20
ATOM     20  C   UNL     1     -16.595   2.514  25.305  0.00  0.00    +0.068 C 
ATOM     22  C   UNL     1     -16.832   1.010  25.353  0.00  0.00    +0.027 C 
ATOM     23  C   UNL     1     -16.040   3.028  26.627  0.00  0.00    +0.027 C 
ENDBRANCH   7  20
ENDBRANCH  19   6
TORSDOF 5
ENDMDL
MODEL 7
REMARK VINA RESULT:      -6.1      1.976      2.705
REMARK  Name = 71693635
REMARK  8 active torsions:
REMARK  status: ('A' for Active; 'I' for Inactive)
REMARK    1  A    between atoms: O_2  and  C_11
REMARK    2  A    between atoms: N_5  and  C_14
REMARK    3  A    between atoms: N_6  and  C_19
REMARK    4  A    between atoms: N_7  and  C_20
REMARK    5  A    between atoms: C_8  and  C_11
REMARK    6  A    between atoms: C_9  and  C_10
REMARK    7  A    between atoms: C_20  and  C_22
REMARK    8  A    between atoms: C_20  and  C_23
REMARK                            x       y       z     vdW  Elec       q    Type
REMARK                         _______ _______ _______ _____ _____    ______ ____
ROOT
ATOM     10  C   UNL     1      17.434   7.441  21.051  0.00  0.00    -0.017 A 
ATOM     15  C   UNL     1      17.455   6.335  20.200  0.00  0.00    +0.008 A 
ATOM     16  C   UNL     1      18.615   7.884  21.646  0.00  0.00    +0.008 A 
ATOM     17  C   UNL     1      18.656   5.674  19.946  0.00  0.00    +0.024 A 
ATOM     18  C   UNL     1      19.817   7.222  21.392  0.00  0.00    +0.024 A 
ATOM     19  C   UNL     1      19.837   6.116  20.542  0.00  0.00    +0.035 A 
ENDROOT
BRANCH  10   9
ATOM      1  O   UNL     1      16.467   9.487  21.739  0.00  0.00    -0.361 OA
ATOM      3  O   UNL     1      13.283  11.070  21.511  0.00  0.00    -0.273 OA
ATOM      5  N   UNL     1      14.067   9.191  20.377  0.00  0.00    -0.295 N 
ATOM      8  C   UNL     1      15.194   8.266  20.109  0.00  0.00    +0.134 C 
ATOM      9  C   UNL     1      16.132   8.161  21.327  0.00  0.00    +0.171 C 
ATOM     12  C   UNL     1      15.339  10.149  22.263  0.00  0.00    +0.256 C 
ATOM     13  C   UNL     1      14.139  10.200  21.338  0.00  0.00    +0.242 C 
ATOM     14  C   UNL     1      12.944   9.195  19.443  0.00  0.00    +0.132 C 
BRANCH   8  11
ATOM     11  C   UNL     1      14.722   6.873  19.670  0.00  0.00    +0.181 C 
BRANCH  11   2
ATOM      2  O   UNL     1      14.070   6.263  20.766  0.00  0.00    -0.393 OA
ATOM     24  H   UNL     1      14.100   6.894  21.506  0.00  0.00    +0.209 HD
ENDBRANCH  11   2
ENDBRANCH   8  11
ENDBRANCH  10   9
BRANCH  19   6
ATOM      4  O   UNL     1      21.537   4.416  22.337  0.00  0.00    -0.253 OA
ATOM      6  N   UNL     1      21.038   5.454  20.287  0.00  0.00    -0.269 N 
ATOM      7  N   UNL     1      22.949   4.174  20.524  0.00  0.00    -0.297 N 
ATOM     21  C   UNL     1      21.806   4.663  21.164  0.00  0.00    +0.304 C 
ATOM     25  H   UNL     1      21.405   5.557  19.344  0.00  0.00    +0.156 HD
ATOM     26  H   UNL     1      23.140   4.483  19.576  0.00  0.00    +0.151 HD
BRANCH   7  20
ATOM     20  C   UNL     1      23.922   3.332  21.180  0.00  0.00    +0.068 C 
ATOM     22  C   UNL     1      23.724   1.874  20.784  0.00  0.00    +0.027 C 
ATOM     23  C   UNL     1      25.334   3.804  20.859  0.00  0.00    +0.027 C 
ENDBRANCH   7  20
ENDBRANCH  19   6
TORSDOF 5
ENDMDL
MODEL 8
REMARK VINA RESULT:      -5.9     26.160     29.488
REMARK  Name = 71693635
REMARK  8 active torsions:
REMARK  status: ('A' for Active; 'I' for Inactive)
REMARK    1  A    between atoms: O_2  and  C_11
REMARK    2  A    between atoms: N_5  and  C_14
REMARK    3  A    between atoms: N_6  and  C_19
REMARK    4  A    between atoms: N_7  and  C_20
REMARK    5  A    between atoms: C_8  and  C_11
REMARK    6  A    between atoms: C_9  and  C_10
REMARK    7  A    between atoms: C_20  and  C_22
REMARK    8  A    between atoms: C_20  and  C_23
REMARK                            x       y       z     vdW  Elec       q    Type
REMARK                         _______ _______ _______ _____ _____    ______ ____
ROOT
ATOM     10  C   UNL     1     -12.395   7.828  19.871  0.00  0.00    -0.017 A 
ATOM     15  C   UNL     1     -11.508   8.695  20.509  0.00  0.00    +0.008 A 
ATOM     16  C   UNL     1     -12.418   7.755  18.478  0.00  0.00    +0.008 A 
ATOM     17  C   UNL     1     -10.644   9.488  19.754  0.00  0.00    +0.024 A 
ATOM     18  C   UNL     1     -11.554   8.548  17.723  0.00  0.00    +0.024 A 
ATOM     19  C   UNL     1     -10.667   9.416  18.361  0.00  0.00    +0.035 A 
ENDROOT
BRANCH  10   9
ATOM      1  O   UNL     1     -12.519   6.143  21.527  0.00  0.00    -0.361 OA
ATOM      3  O   UNL     1     -14.965   4.903  23.802  0.00  0.00    -0.273 OA
ATOM      5  N   UNL     1     -14.999   6.865  22.544  0.00  0.00    -0.295 N 
ATOM      8  C   UNL     1     -14.295   7.760  21.594  0.00  0.00    +0.134 C 
ATOM      9  C   UNL     1     -13.333   6.966  20.689  0.00  0.00    +0.171 C 
ATOM     12  C   UNL     1     -13.289   5.133  22.135  0.00  0.00    +0.256 C 
ATOM     13  C   UNL     1     -14.484   5.625  22.926  0.00  0.00    +0.242 C 
ATOM     14  C   UNL     1     -16.141   7.404  23.279  0.00  0.00    +0.132 C 
BRANCH   8  11
ATOM     11  C   UNL     1     -15.263   8.599  20.748  0.00  0.00    +0.181 C 
BRANCH  11   2
ATOM      2  O   UNL     1     -14.969   9.964  20.968  0.00  0.00    -0.393 OA
ATOM     24  H   UNL     1     -15.512  10.479  20.348  0.00  0.00    +0.209 HD
ENDBRANCH  11   2
ENDBRANCH   8  11
ENDBRANCH  10   9
BRANCH  19   6
ATOM      4  O   UNL     1     -10.516  12.399  18.079  0.00  0.00    -0.253 OA
ATOM      6  N   UNL     1      -9.802  10.209  17.606  0.00  0.00    -0.269 N 
ATOM      7  N   UNL     1      -8.747  12.025  16.639  0.00  0.00    -0.297 N 
ATOM     21  C   UNL     1      -9.768  11.614  17.502  0.00  0.00    +0.304 C 
ATOM     25  H   UNL     1      -9.107   9.706  17.061  0.00  0.00    +0.156 HD
ATOM     26  H   UNL     1      -8.219  11.314  16.144  0.00  0.00    +0.151 HD
BRANCH   7  20
ATOM     20  C   UNL     1      -8.477  13.413  16.343  0.00  0.00    +0.068 C 
ATOM     22  C   UNL     1      -7.006  13.734  16.580  0.00  0.00    +0.027 C 
ATOM     23  C   UNL     1      -8.890  13.739  14.913  0.00  0.00    +0.027 C 
ENDBRANCH   7  20
ENDBRANCH  19   6
TORSDOF 5
ENDMDL
MODEL 9
REMARK VINA RESULT:      -5.6     26.671     30.245
REMARK  Name = 71693635
REMARK  8 active torsions:
REMARK  status: ('A' for Active; 'I' for Inactive)
REMARK    1  A    between atoms: O_2  and  C_11
REMARK    2  A    between atoms: N_5  and  C_14
REMARK    3  A    between atoms: N_6  and  C_19
REMARK    4  A    between atoms: N_7  and  C_20
REMARK    5  A    between atoms: C_8  and  C_11
REMARK    6  A    between atoms: C_9  and  C_10
REMARK    7  A    between atoms: C_20  and  C_22
REMARK    8  A    between atoms: C_20  and  C_23
REMARK                            x       y       z     vdW  Elec       q    Type
REMARK                         _______ _______ _______ _____ _____    ______ ____
ROOT
ATOM     10  C   UNL     1      -3.943 -10.404  11.264  0.00  0.00    -0.017 A 
ATOM     15  C   UNL     1      -3.942 -11.305  10.198  0.00  0.00    +0.008 A 
ATOM     16  C   UNL     1      -4.426  -9.109  11.082  0.00  0.00    +0.008 A 
ATOM     17  C   UNL     1      -4.425 -10.908   8.950  0.00  0.00    +0.024 A 
ATOM     18  C   UNL     1      -4.909  -8.712   9.834  0.00  0.00    +0.024 A 
ATOM     19  C   UNL     1      -4.907  -9.612   8.768  0.00  0.00    +0.035 A 
ENDROOT
BRANCH  10   9
ATOM      1  O   UNL     1      -2.287 -10.013  12.907  0.00  0.00    -0.361 OA
ATOM      3  O   UNL     1      -1.842 -10.702  16.374  0.00  0.00    -0.273 OA
ATOM      5  N   UNL     1      -3.779 -10.860  15.088  0.00  0.00    -0.295 N 
ATOM      8  C   UNL     1      -4.431 -10.667  13.770  0.00  0.00    +0.134 C 
ATOM      9  C   UNL     1      -3.420 -10.833  12.618  0.00  0.00    +0.171 C 
ATOM     12  C   UNL     1      -1.582 -10.507  14.021  0.00  0.00    +0.256 C 
ATOM     13  C   UNL     1      -2.409 -10.677  15.279  0.00  0.00    +0.242 C 
ATOM     14  C   UNL     1      -4.635 -11.012  16.262  0.00  0.00    +0.132 C 
BRANCH   8  11
ATOM     11  C   UNL     1      -5.637 -11.594  13.567  0.00  0.00    +0.181 C 
BRANCH  11   2
ATOM      2  O   UNL     1      -6.783 -10.790  13.373  0.00  0.00    -0.393 OA
ATOM     24  H   UNL     1      -6.474  -9.909  13.103  0.00  0.00    +0.209 HD
ENDBRANCH  11   2
ENDBRANCH   8  11
ENDBRANCH  10   9
BRANCH  19   6
ATOM      4  O   UNL     1      -7.697  -9.649   7.662  0.00  0.00    -0.253 OA
ATOM      6  N   UNL     1      -5.390  -9.216   7.520  0.00  0.00    -0.269 N 
ATOM      7  N   UNL     1      -6.784  -8.765   5.732  0.00  0.00    -0.297 N 
ATOM     21  C   UNL     1      -6.714  -9.252   7.041  0.00  0.00    +0.304 C 
ATOM     25  H   UNL     1      -4.692  -8.854   6.874  0.00  0.00    +0.156 HD
ATOM     26  H   UNL     1      -5.917  -8.525   5.260  0.00  0.00    +0.151 HD
BRANCH   7  20
ATOM     20  C   UNL     1      -8.018  -8.683   4.985  0.00  0.00    +0.068 C 
ATOM     22  C   UNL     1      -8.795  -7.431   5.370  0.00  0.00    +0.027 C 
ATOM     23  C   UNL     1      -7.735  -8.719   3.489  0.00  0.00    +0.027 C 
ENDBRANCH   7  20
ENDBRANCH  19   6
TORSDOF 5
ENDMDL
MODEL 10
REMARK VINA RESULT:      -5.6     23.493     27.648
REMARK  Name = 71693635
REMARK  8 active torsions:
REMARK  status: ('A' for Active; 'I' for Inactive)
REMARK    1  A    between atoms: O_2  and  C_11
REMARK    2  A    between atoms: N_5  and  C_14
REMARK    3  A    between atoms: N_6  and  C_19
REMARK    4  A    between atoms: N_7  and  C_20
REMARK    5  A    between atoms: C_8  and  C_11
REMARK    6  A    between atoms: C_9  and  C_10
REMARK    7  A    between atoms: C_20  and  C_22
REMARK    8  A    between atoms: C_20  and  C_23
REMARK                            x       y       z     vdW  Elec       q    Type
REMARK                         _______ _______ _______ _____ _____    ______ ____
ROOT
ATOM     10  C   UNL     1      -3.154   8.516   4.680  0.00  0.00    -0.017 A 
ATOM     15  C   UNL     1      -4.308   9.115   4.175  0.00  0.00    +0.008 A 
ATOM     16  C   UNL     1      -3.213   7.228   5.212  0.00  0.00    +0.008 A 
ATOM     17  C   UNL     1      -5.520   8.425   4.202  0.00  0.00    +0.024 A 
ATOM     18  C   UNL     1      -4.425   6.538   5.239  0.00  0.00    +0.024 A 
ATOM     19  C   UNL     1      -5.580   7.138   4.734  0.00  0.00    +0.035 A 
ENDROOT
BRANCH  10   9
ATOM      1  O   UNL     1      -1.571   9.586   3.285  0.00  0.00    -0.361 OA
ATOM      3  O   UNL     1       1.061  11.955   3.673  0.00  0.00    -0.273 OA
ATOM      5  N   UNL     1      -0.617  11.374   5.182  0.00  0.00    -0.295 N 
ATOM      8  C   UNL     1      -1.836  10.576   5.457  0.00  0.00    +0.134 C 
ATOM      9  C   UNL     1      -1.837   9.262   4.651  0.00  0.00    +0.171 C 
ATOM     12  C   UNL     1      -0.251  10.052   3.130  0.00  0.00    +0.256 C 
ATOM     13  C   UNL     1       0.119  11.233   4.004  0.00  0.00    +0.242 C 
ATOM     14  C   UNL     1      -0.321  12.503   6.060  0.00  0.00    +0.132 C 
BRANCH   8  11
ATOM     11  C   UNL     1      -2.027  10.290   6.954  0.00  0.00    +0.181 C 
BRANCH  11   2
ATOM      2  O   UNL     1      -0.987   9.431   7.374  0.00  0.00    -0.393 OA
ATOM     24  H   UNL     1      -0.150   9.911   7.254  0.00  0.00    +0.209 HD
ENDBRANCH  11   2
ENDBRANCH   8  11
ENDBRANCH  10   9
BRANCH  19   6
ATOM      4  O   UNL     1      -8.115   7.605   3.198  0.00  0.00    -0.253 OA
ATOM      6  N   UNL     1      -6.793   6.449   4.761  0.00  0.00    -0.269 N 
ATOM      7  N   UNL     1      -8.965   5.783   4.335  0.00  0.00    -0.297 N 
ATOM     21  C   UNL     1      -7.963   6.704   4.019  0.00  0.00    +0.304 C 
ATOM     25  H   UNL     1      -6.835   5.658   5.400  0.00  0.00    +0.156 HD
ATOM     26  H   UNL     1      -8.788   5.114   5.078  0.00  0.00    +0.151 HD
BRANCH   7  20
ATOM     20  C   UNL     1     -10.275   5.802   3.727  0.00  0.00    +0.068 C 
ATOM     22  C   UNL     1     -10.262   5.049   2.403  0.00  0.00    +0.027 C 
ATOM     23  C   UNL     1     -11.311   5.222   4.681  0.00  0.00    +0.027 C 
ENDBRANCH   7  20
ENDBRANCH  19   6
TORSDOF 5
ENDMDL
