MODEL 1
REMARK VINA RESULT:      -7.4      0.000      0.000
REMARK  Name = 45784377
REMARK  14 active torsions:
REMARK  status: ('A' for Active; 'I' for Inactive)
REMARK    1  A    between atoms: O_1  and  C_11
REMARK    2  A    between atoms: O_4  and  C_24
REMARK    3  A    between atoms: O_4  and  C_27
REMARK    4  A    between atoms: O_5  and  C_34
REMARK    5  A    between atoms: O_5  and  C_38
REMARK    6  A    between atoms: N_6  and  C_15
REMARK    7  A    between atoms: N_7  and  C_25
REMARK    8  A    between atoms: C_8  and  C_18
REMARK    9  A    between atoms: C_10  and  C_20
REMARK   10  A    between atoms: C_14  and  C_19
REMARK   11  A    between atoms: C_19  and  C_21
REMARK   12  A    between atoms: C_19  and  C_22
REMARK   13  A    between atoms: C_23  and  C_24
REMARK   14  A    between atoms: C_25  and  C_26
REMARK                            x       y       z     vdW  Elec       q    Type
REMARK                         _______ _______ _______ _____ _____    ______ ____
ROOT
ATOM      8  C   UNL     1      -3.713 -10.569  10.438  0.00  0.00    -0.027 C 
ATOM      9  C   UNL     1      -5.059 -10.305  11.193  0.00  0.00    +0.028 C 
ATOM     10  C   UNL     1      -5.852  -9.127  10.524  0.00  0.00    +0.012 C 
ATOM     11  C   UNL     1      -4.828 -10.172  12.725  0.00  0.00    +0.122 C 
ATOM     12  C   UNL     1      -3.013 -11.806  11.049  0.00  0.00    +0.007 C 
ATOM     13  C   UNL     1      -4.021 -10.888   8.956  0.00  0.00    +0.009 C 
ATOM     14  C   UNL     1      -4.035 -11.362  13.313  0.00  0.00    +0.029 C 
ATOM     15  C   UNL     1      -6.090  -9.423   9.016  0.00  0.00    +0.076 C 
ATOM     16  C   UNL     1      -2.750 -11.662  12.543  0.00  0.00    +0.007 C 
ATOM     17  C   UNL     1      -4.813  -9.790   8.261  0.00  0.00    +0.023 C 
ATOM     18  C   UNL     1      -2.745  -9.362  10.510  0.00  0.00    +0.011 C 
ATOM     20  C   UNL     1      -7.202  -8.831  11.200  0.00  0.00    +0.010 C 
ENDROOT
BRANCH  15   6
ATOM      3  O   UNL     1      -8.555  -9.456   7.504  0.00  0.00    -0.272 OA
ATOM      6  N   UNL     1      -6.716  -8.306   8.343  0.00  0.00    -0.309 N 
ATOM     23  C   UNL     1      -7.904  -8.425   7.641  0.00  0.00    +0.251 C 
ATOM     39  H   UNL     1      -6.227  -7.415   8.337  0.00  0.00    +0.149 HD
BRANCH  23  24
ATOM     24  C   UNL     1      -8.330  -7.102   7.039  0.00  0.00    +0.324 C 
BRANCH  24   4
ATOM      4  O   UNL     1      -8.390  -6.100   8.032  0.00  0.00    -0.483 OA
BRANCH   4  27
ATOM     27  C   UNL     1      -9.626  -5.569   8.314  0.00  0.00    +0.121 A 
ATOM     30  C   UNL     1      -9.729  -4.291   8.862  0.00  0.00    +0.045 A 
ATOM     31  C   UNL     1     -10.780  -6.310   8.052  0.00  0.00    +0.045 A 
ATOM     35  C   UNL     1     -10.984  -3.753   9.148  0.00  0.00    +0.004 A 
ATOM     36  C   UNL     1     -12.034  -5.771   8.338  0.00  0.00    +0.004 A 
ATOM     37  C   UNL     1     -12.136  -4.493   8.886  0.00  0.00    +0.000 A 
ENDBRANCH   4  27
ENDBRANCH  24   4
ENDBRANCH  23  24
ENDBRANCH  15   6
BRANCH  11   1
ATOM      1  O   UNL     1      -6.088 -10.149  13.397  0.00  0.00    -0.391 OA
ATOM     40  H   UNL     1      -5.971  -9.684  14.243  0.00  0.00    +0.210 HD
ENDBRANCH  11   1
BRANCH  14  19
ATOM     19  C   UNL     1      -3.705 -11.150  14.796  0.00  0.00    +0.077 C 
ATOM     21  C   UNL     1      -2.208 -11.318  15.030  0.00  0.00    +0.017 C 
BRANCH  19  22
ATOM      2  O   UNL     1      -5.482 -12.738  15.218  0.00  0.00    -0.276 OA
ATOM      7  N   UNL     1      -4.035 -12.208  16.951  0.00  0.00    -0.311 N 
ATOM     22  C   UNL     1      -4.514 -12.118  15.653  0.00  0.00    +0.216 C 
ATOM     41  H   UNL     1      -3.196 -11.702  17.218  0.00  0.00    +0.149 HD
BRANCH   7  25
ATOM     25  C   UNL     1      -4.639 -13.060  17.950  0.00  0.00    +0.139 C 
BRANCH  25  26
ATOM     26  C   UNL     1      -5.883 -12.452  18.529  0.00  0.00    -0.030 A 
ATOM     28  C   UNL     1      -7.108 -13.105  18.392  0.00  0.00    +0.009 A 
ATOM     29  C   UNL     1      -5.814 -11.231  19.203  0.00  0.00    +0.009 A 
ATOM     32  C   UNL     1      -8.263 -12.538  18.930  0.00  0.00    +0.046 A 
ATOM     33  C   UNL     1      -6.970 -10.666  19.740  0.00  0.00    +0.046 A 
ATOM     34  C   UNL     1      -8.195 -11.319  19.604  0.00  0.00    +0.120 A 
BRANCH  34   5
ATOM      5  O   UNL     1      -9.322 -10.767  20.129  0.00  0.00    -0.495 OA
ATOM     38  C   UNL     1     -10.506 -11.564  20.108  0.00  0.00    +0.277 C 
ENDBRANCH  34   5
ENDBRANCH  25  26
ENDBRANCH   7  25
ENDBRANCH  19  22
ENDBRANCH  14  19
TORSDOF 10
ENDMDL
MODEL 2
REMARK VINA RESULT:      -7.3      1.076      1.229
REMARK  Name = 45784377
REMARK  14 active torsions:
REMARK  status: ('A' for Active; 'I' for Inactive)
REMARK    1  A    between atoms: O_1  and  C_11
REMARK    2  A    between atoms: O_4  and  C_24
REMARK    3  A    between atoms: O_4  and  C_27
REMARK    4  A    between atoms: O_5  and  C_34
REMARK    5  A    between atoms: O_5  and  C_38
REMARK    6  A    between atoms: N_6  and  C_15
REMARK    7  A    between atoms: N_7  and  C_25
REMARK    8  A    between atoms: C_8  and  C_18
REMARK    9  A    between atoms: C_10  and  C_20
REMARK   10  A    between atoms: C_14  and  C_19
REMARK   11  A    between atoms: C_19  and  C_21
REMARK   12  A    between atoms: C_19  and  C_22
REMARK   13  A    between atoms: C_23  and  C_24
REMARK   14  A    between atoms: C_25  and  C_26
REMARK                            x       y       z     vdW  Elec       q    Type
REMARK                         _______ _______ _______ _____ _____    ______ ____
ROOT
ATOM      8  C   UNL     1      -3.364 -10.736  10.993  0.00  0.00    -0.027 C 
ATOM      9  C   UNL     1      -4.681 -10.381  11.762  0.00  0.00    +0.028 C 
ATOM     10  C   UNL     1      -5.489  -9.270  11.000  0.00  0.00    +0.012 C 
ATOM     11  C   UNL     1      -4.396 -10.090  13.263  0.00  0.00    +0.122 C 
ATOM     12  C   UNL     1      -2.652 -11.909  11.707  0.00  0.00    +0.007 C 
ATOM     13  C   UNL     1      -3.725 -11.204   9.564  0.00  0.00    +0.009 C 
ATOM     14  C   UNL     1      -3.592 -11.220  13.945  0.00  0.00    +0.029 C 
ATOM     15  C   UNL     1      -5.781  -9.720   9.540  0.00  0.00    +0.076 C 
ATOM     16  C   UNL     1      -2.336 -11.612  13.168  0.00  0.00    +0.007 C 
ATOM     17  C   UNL     1      -4.533 -10.177   8.785  0.00  0.00    +0.023 C 
ATOM     18  C   UNL     1      -2.386  -9.538  10.906  0.00  0.00    +0.011 C 
ATOM     20  C   UNL     1      -6.813  -8.891  11.686  0.00  0.00    +0.010 C 
ENDROOT
BRANCH  15   6
ATOM      3  O   UNL     1      -7.938 -10.021   7.638  0.00  0.00    -0.272 OA
ATOM      6  N   UNL     1      -6.423  -8.673   8.775  0.00  0.00    -0.309 N 
ATOM     23  C   UNL     1      -7.453  -8.921   7.884  0.00  0.00    +0.251 C 
ATOM     39  H   UNL     1      -6.055  -7.728   8.854  0.00  0.00    +0.149 HD
BRANCH  23  24
ATOM     24  C   UNL     1      -7.937  -7.647   7.223  0.00  0.00    +0.324 C 
BRANCH  24   4
ATOM      4  O   UNL     1      -7.922  -6.574   8.141  0.00  0.00    -0.483 OA
BRANCH   4  27
ATOM     27  C   UNL     1      -9.139  -6.107   8.580  0.00  0.00    +0.121 A 
ATOM     30  C   UNL     1      -9.388  -4.735   8.616  0.00  0.00    +0.045 A 
ATOM     31  C   UNL     1     -10.125  -7.006   8.988  0.00  0.00    +0.045 A 
ATOM     35  C   UNL     1     -10.623  -4.262   9.061  0.00  0.00    +0.004 A 
ATOM     36  C   UNL     1     -11.359  -6.532   9.433  0.00  0.00    +0.004 A 
ATOM     37  C   UNL     1     -11.608  -5.160   9.469  0.00  0.00    +0.000 A 
ENDBRANCH   4  27
ENDBRANCH  24   4
ENDBRANCH  23  24
ENDBRANCH  15   6
BRANCH  11   1
ATOM      1  O   UNL     1      -5.632  -9.984  13.971  0.00  0.00    -0.391 OA
ATOM     40  H   UNL     1      -5.770  -9.050  14.200  0.00  0.00    +0.210 HD
ENDBRANCH  11   1
BRANCH  14  19
ATOM     19  C   UNL     1      -3.209 -10.857  15.386  0.00  0.00    +0.077 C 
ATOM     21  C   UNL     1      -1.699 -10.960  15.570  0.00  0.00    +0.017 C 
BRANCH  19  22
ATOM      2  O   UNL     1      -4.370 -12.874  16.053  0.00  0.00    -0.276 OA
ATOM      7  N   UNL     1      -4.094 -11.185  17.618  0.00  0.00    -0.311 N 
ATOM     22  C   UNL     1      -3.952 -11.762  16.364  0.00  0.00    +0.216 C 
ATOM     41  H   UNL     1      -3.673 -10.282  17.812  0.00  0.00    +0.149 HD
BRANCH   7  25
ATOM     25  C   UNL     1      -4.764 -11.850  18.712  0.00  0.00    +0.139 C 
BRANCH  25  26
ATOM     26  C   UNL     1      -6.219 -11.485  18.783  0.00  0.00    -0.030 A 
ATOM     28  C   UNL     1      -6.698 -10.381  18.078  0.00  0.00    +0.009 A 
ATOM     29  C   UNL     1      -7.093 -12.252  19.555  0.00  0.00    +0.009 A 
ATOM     32  C   UNL     1      -8.049 -10.044  18.145  0.00  0.00    +0.046 A 
ATOM     33  C   UNL     1      -8.444 -11.914  19.622  0.00  0.00    +0.046 A 
ATOM     34  C   UNL     1      -8.922 -10.810  18.916  0.00  0.00    +0.120 A 
BRANCH  34   5
ATOM      5  O   UNL     1     -10.241 -10.481  18.981  0.00  0.00    -0.495 OA
ATOM     38  C   UNL     1     -10.680  -9.396  18.164  0.00  0.00    +0.277 C 
ENDBRANCH  34   5
ENDBRANCH  25  26
ENDBRANCH   7  25
ENDBRANCH  19  22
ENDBRANCH  14  19
TORSDOF 10
ENDMDL
MODEL 3
REMARK VINA RESULT:      -7.2      2.093      9.568
REMARK  Name = 45784377
REMARK  14 active torsions:
REMARK  status: ('A' for Active; 'I' for Inactive)
REMARK    1  A    between atoms: O_1  and  C_11
REMARK    2  A    between atoms: O_4  and  C_24
REMARK    3  A    between atoms: O_4  and  C_27
REMARK    4  A    between atoms: O_5  and  C_34
REMARK    5  A    between atoms: O_5  and  C_38
REMARK    6  A    between atoms: N_6  and  C_15
REMARK    7  A    between atoms: N_7  and  C_25
REMARK    8  A    between atoms: C_8  and  C_18
REMARK    9  A    between atoms: C_10  and  C_20
REMARK   10  A    between atoms: C_14  and  C_19
REMARK   11  A    between atoms: C_19  and  C_21
REMARK   12  A    between atoms: C_19  and  C_22
REMARK   13  A    between atoms: C_23  and  C_24
REMARK   14  A    between atoms: C_25  and  C_26
REMARK                            x       y       z     vdW  Elec       q    Type
REMARK                         _______ _______ _______ _____ _____    ______ ____
ROOT
ATOM      8  C   UNL     1      -4.411 -10.372   9.819  0.00  0.00    -0.027 C 
ATOM      9  C   UNL     1      -5.500  -9.775  10.771  0.00  0.00    +0.028 C 
ATOM     10  C   UNL     1      -5.369 -10.377  12.216  0.00  0.00    +0.012 C 
ATOM     11  C   UNL     1      -6.916  -9.864  10.134  0.00  0.00    +0.122 C 
ATOM     12  C   UNL     1      -4.494  -9.675   8.439  0.00  0.00    +0.007 C 
ATOM     13  C   UNL     1      -3.011 -10.082  10.408  0.00  0.00    +0.009 C 
ATOM     14  C   UNL     1      -6.968  -9.260   8.712  0.00  0.00    +0.029 C 
ATOM     15  C   UNL     1      -3.934 -10.146  12.769  0.00  0.00    +0.076 C 
ATOM     16  C   UNL     1      -5.870  -9.796   7.795  0.00  0.00    +0.007 C 
ATOM     17  C   UNL     1      -2.834 -10.620  11.820  0.00  0.00    +0.023 C 
ATOM     18  C   UNL     1      -4.573 -11.899   9.616  0.00  0.00    +0.011 C 
ATOM     20  C   UNL     1      -6.393  -9.812  13.214  0.00  0.00    +0.010 C 
ENDROOT
BRANCH  15   6
ATOM      3  O   UNL     1      -1.673  -9.856  14.549  0.00  0.00    -0.272 OA
ATOM      6  N   UNL     1      -3.744 -10.790  14.051  0.00  0.00    -0.309 N 
ATOM     23  C   UNL     1      -2.620 -10.585  14.833  0.00  0.00    +0.251 C 
ATOM     39  H   UNL     1      -4.439 -11.467  14.354  0.00  0.00    +0.149 HD
BRANCH  23  24
ATOM     24  C   UNL     1      -2.683 -11.382  16.119  0.00  0.00    +0.324 C 
BRANCH  24   4
ATOM      4  O   UNL     1      -3.953 -11.979  16.272  0.00  0.00    -0.483 OA
BRANCH   4  27
ATOM     27  C   UNL     1      -4.727 -11.547  17.323  0.00  0.00    +0.121 A 
ATOM     30  C   UNL     1      -4.391 -11.902  18.629  0.00  0.00    +0.045 A 
ATOM     31  C   UNL     1      -5.849 -10.754  17.083  0.00  0.00    +0.045 A 
ATOM     35  C   UNL     1      -5.177 -11.464  19.695  0.00  0.00    +0.004 A 
ATOM     36  C   UNL     1      -6.635 -10.316  18.149  0.00  0.00    +0.004 A 
ATOM     37  C   UNL     1      -6.298 -10.671  19.455  0.00  0.00    +0.000 A 
ENDBRANCH   4  27
ENDBRANCH  24   4
ENDBRANCH  23  24
ENDBRANCH  15   6
BRANCH  11   1
ATOM      1  O   UNL     1      -7.843  -9.123  10.928  0.00  0.00    -0.391 OA
ATOM     40  H   UNL     1      -7.338  -8.530  11.509  0.00  0.00    +0.210 HD
ENDBRANCH  11   1
BRANCH  14  19
ATOM     19  C   UNL     1      -8.336  -9.475   8.052  0.00  0.00    +0.077 C 
ATOM     21  C   UNL     1      -8.242 -10.570   6.995  0.00  0.00    +0.017 C 
BRANCH  19  22
ATOM      2  O   UNL     1      -9.142  -8.050   6.269  0.00  0.00    -0.276 OA
ATOM      7  N   UNL     1      -8.900  -7.143   8.389  0.00  0.00    -0.311 N 
ATOM     22  C   UNL     1      -8.836  -8.165   7.453  0.00  0.00    +0.216 C 
ATOM     41  H   UNL     1      -8.681  -7.332   9.362  0.00  0.00    +0.149 HD
BRANCH   7  25
ATOM     25  C   UNL     1      -9.343  -5.807   8.060  0.00  0.00    +0.139 C 
BRANCH  25  26
ATOM     26  C   UNL     1     -10.391  -5.312   9.013  0.00  0.00    -0.030 A 
ATOM     28  C   UNL     1     -11.147  -6.222   9.754  0.00  0.00    +0.009 A 
ATOM     29  C   UNL     1     -10.610  -3.942   9.159  0.00  0.00    +0.009 A 
ATOM     32  C   UNL     1     -12.121  -5.760  10.639  0.00  0.00    +0.046 A 
ATOM     33  C   UNL     1     -11.583  -3.481  10.045  0.00  0.00    +0.046 A 
ATOM     34  C   UNL     1     -12.339  -4.391  10.785  0.00  0.00    +0.120 A 
BRANCH  34   5
ATOM      5  O   UNL     1     -13.289  -3.941  11.650  0.00  0.00    -0.495 OA
ATOM     38  C   UNL     1     -13.104  -4.244  13.032  0.00  0.00    +0.277 C 
ENDBRANCH  34   5
ENDBRANCH  25  26
ENDBRANCH   7  25
ENDBRANCH  19  22
ENDBRANCH  14  19
TORSDOF 10
ENDMDL
MODEL 4
REMARK VINA RESULT:      -7.1     29.173     32.686
REMARK  Name = 45784377
REMARK  14 active torsions:
REMARK  status: ('A' for Active; 'I' for Inactive)
REMARK    1  A    between atoms: O_1  and  C_11
REMARK    2  A    between atoms: O_4  and  C_24
REMARK    3  A    between atoms: O_4  and  C_27
REMARK    4  A    between atoms: O_5  and  C_34
REMARK    5  A    between atoms: O_5  and  C_38
REMARK    6  A    between atoms: N_6  and  C_15
REMARK    7  A    between atoms: N_7  and  C_25
REMARK    8  A    between atoms: C_8  and  C_18
REMARK    9  A    between atoms: C_10  and  C_20
REMARK   10  A    between atoms: C_14  and  C_19
REMARK   11  A    between atoms: C_19  and  C_21
REMARK   12  A    between atoms: C_19  and  C_22
REMARK   13  A    between atoms: C_23  and  C_24
REMARK   14  A    between atoms: C_25  and  C_26
REMARK                            x       y       z     vdW  Elec       q    Type
REMARK                         _______ _______ _______ _____ _____    ______ ____
ROOT
ATOM      8  C   UNL     1      16.138   7.136  20.002  0.00  0.00    -0.027 C 
ATOM      9  C   UNL     1      16.877   8.358  20.645  0.00  0.00    +0.028 C 
ATOM     10  C   UNL     1      18.036   7.876  21.588  0.00  0.00    +0.012 C 
ATOM     11  C   UNL     1      15.867   9.355  21.281  0.00  0.00    +0.122 C 
ATOM     12  C   UNL     1      15.081   7.645  18.994  0.00  0.00    +0.007 C 
ATOM     13  C   UNL     1      17.163   6.283  19.218  0.00  0.00    +0.009 C 
ATOM     14  C   UNL     1      14.751   9.779  20.299  0.00  0.00    +0.029 C 
ATOM     15  C   UNL     1      19.019   6.958  20.809  0.00  0.00    +0.076 C 
ATOM     16  C   UNL     1      14.067   8.592  19.623  0.00  0.00    +0.007 C 
ATOM     17  C   UNL     1      18.326   5.809  20.077  0.00  0.00    +0.023 C 
ATOM     18  C   UNL     1      15.434   6.247  21.057  0.00  0.00    +0.011 C 
ATOM     20  C   UNL     1      18.825   9.029  22.233  0.00  0.00    +0.010 C 
ENDROOT
BRANCH  15   6
ATOM      3  O   UNL     1      21.802   6.498  20.167  0.00  0.00    -0.272 OA
ATOM      6  N   UNL     1      20.036   6.402  21.677  0.00  0.00    -0.309 N 
ATOM     23  C   UNL     1      21.348   6.221  21.274  0.00  0.00    +0.251 C 
ATOM     39  H   UNL     1      19.753   6.077  22.598  0.00  0.00    +0.149 HD
BRANCH  23  24
ATOM     24  C   UNL     1      22.193   5.624  22.380  0.00  0.00    +0.324 C 
BRANCH  24   4
ATOM      4  O   UNL     1      21.720   4.341  22.731  0.00  0.00    -0.483 OA
BRANCH   4  27
ATOM     27  C   UNL     1      22.562   3.279  22.504  0.00  0.00    +0.121 A 
ATOM     30  C   UNL     1      22.977   2.477  23.569  0.00  0.00    +0.045 A 
ATOM     31  C   UNL     1      23.003   3.001  21.210  0.00  0.00    +0.045 A 
ATOM     35  C   UNL     1      23.832   1.400  23.339  0.00  0.00    +0.004 A 
ATOM     36  C   UNL     1      23.858   1.923  20.981  0.00  0.00    +0.004 A 
ATOM     37  C   UNL     1      24.272   1.122  22.046  0.00  0.00    +0.000 A 
ENDBRANCH   4  27
ENDBRANCH  24   4
ENDBRANCH  23  24
ENDBRANCH  15   6
BRANCH  11   1
ATOM      1  O   UNL     1      16.551  10.549  21.661  0.00  0.00    -0.391 OA
ATOM     40  H   UNL     1      16.360  10.722  22.599  0.00  0.00    +0.210 HD
ENDBRANCH  11   1
BRANCH  14  19
ATOM     19  C   UNL     1      13.694  10.658  20.982  0.00  0.00    +0.077 C 
ATOM     21  C   UNL     1      12.454   9.831  21.305  0.00  0.00    +0.017 C 
BRANCH  19  22
ATOM      2  O   UNL     1      12.441  12.630  20.349  0.00  0.00    -0.276 OA
ATOM      7  N   UNL     1      14.181  11.936  18.982  0.00  0.00    -0.311 N 
ATOM     22  C   UNL     1      13.354  11.848  20.091  0.00  0.00    +0.216 C 
ATOM     41  H   UNL     1      14.949  11.282  18.868  0.00  0.00    +0.149 HD
BRANCH   7  25
ATOM     25  C   UNL     1      14.052  12.980  17.991  0.00  0.00    +0.139 C 
BRANCH  25  26
ATOM     26  C   UNL     1      14.417  12.498  16.617  0.00  0.00    -0.030 A 
ATOM     28  C   UNL     1      14.721  11.153  16.407  0.00  0.00    +0.009 A 
ATOM     29  C   UNL     1      14.454  13.397  15.550  0.00  0.00    +0.009 A 
ATOM     32  C   UNL     1      15.060  10.707  15.130  0.00  0.00    +0.046 A 
ATOM     33  C   UNL     1      14.793  12.949  14.274  0.00  0.00    +0.046 A 
ATOM     34  C   UNL     1      15.097  11.604  14.063  0.00  0.00    +0.120 A 
BRANCH  34   5
ATOM      5  O   UNL     1      15.427  11.167  12.818  0.00  0.00    -0.495 OA
ATOM     38  C   UNL     1      16.141  12.075  11.980  0.00  0.00    +0.277 C 
ENDBRANCH  34   5
ENDBRANCH  25  26
ENDBRANCH   7  25
ENDBRANCH  19  22
ENDBRANCH  14  19
TORSDOF 10
ENDMDL
MODEL 5
REMARK VINA RESULT:      -7.1      2.531      9.659
REMARK  Name = 45784377
REMARK  14 active torsions:
REMARK  status: ('A' for Active; 'I' for Inactive)
REMARK    1  A    between atoms: O_1  and  C_11
REMARK    2  A    between atoms: O_4  and  C_24
REMARK    3  A    between atoms: O_4  and  C_27
REMARK    4  A    between atoms: O_5  and  C_34
REMARK    5  A    between atoms: O_5  and  C_38
REMARK    6  A    between atoms: N_6  and  C_15
REMARK    7  A    between atoms: N_7  and  C_25
REMARK    8  A    between atoms: C_8  and  C_18
REMARK    9  A    between atoms: C_10  and  C_20
REMARK   10  A    between atoms: C_14  and  C_19
REMARK   11  A    between atoms: C_19  and  C_21
REMARK   12  A    between atoms: C_19  and  C_22
REMARK   13  A    between atoms: C_23  and  C_24
REMARK   14  A    between atoms: C_25  and  C_26
REMARK                            x       y       z     vdW  Elec       q    Type
REMARK                         _______ _______ _______ _____ _____    ______ ____
ROOT
ATOM      8  C   UNL     1      -4.607 -11.100  16.941  0.00  0.00    -0.027 C 
ATOM      9  C   UNL     1      -5.452 -10.503  15.766  0.00  0.00    +0.028 C 
ATOM     10  C   UNL     1      -6.990 -10.642  16.057  0.00  0.00    +0.012 C 
ATOM     11  C   UNL     1      -4.978 -11.059  14.392  0.00  0.00    +0.122 C 
ATOM     12  C   UNL     1      -3.104 -10.844  16.676  0.00  0.00    +0.007 C 
ATOM     13  C   UNL     1      -4.984 -10.372  18.253  0.00  0.00    +0.009 C 
ATOM     14  C   UNL     1      -3.456 -10.896  14.178  0.00  0.00    +0.029 C 
ATOM     15  C   UNL     1      -7.344  -9.973  17.415  0.00  0.00    +0.076 C 
ATOM     16  C   UNL     1      -2.628 -11.422  15.349  0.00  0.00    +0.007 C 
ATOM     17  C   UNL     1      -6.469 -10.450  18.574  0.00  0.00    +0.023 C 
ATOM     18  C   UNL     1      -4.830 -12.622  17.120  0.00  0.00    +0.011 C 
ATOM     20  C   UNL     1      -7.882 -10.050  14.953  0.00  0.00    +0.010 C 
ENDROOT
BRANCH  15   6
ATOM      3  O   UNL     1      -9.456  -7.998  17.446  0.00  0.00    -0.272 OA
ATOM      6  N   UNL     1      -8.731 -10.183  17.770  0.00  0.00    -0.309 N 
ATOM     23  C   UNL     1      -9.671  -9.167  17.753  0.00  0.00    +0.251 C 
ATOM     39  H   UNL     1      -9.005 -11.104  18.104  0.00  0.00    +0.149 HD
BRANCH  23  24
ATOM     24  C   UNL     1     -11.039  -9.667  18.168  0.00  0.00    +0.324 C 
BRANCH  24   4
ATOM      4  O   UNL     1     -10.997 -10.209  19.471  0.00  0.00    -0.483 OA
BRANCH   4  27
ATOM     27  C   UNL     1     -12.201 -10.481  20.076  0.00  0.00    +0.121 A 
ATOM     30  C   UNL     1     -13.195  -9.503  20.125  0.00  0.00    +0.045 A 
ATOM     31  C   UNL     1     -12.430 -11.736  20.642  0.00  0.00    +0.045 A 
ATOM     35  C   UNL     1     -14.416  -9.780  20.739  0.00  0.00    +0.004 A 
ATOM     36  C   UNL     1     -13.651 -12.011  21.257  0.00  0.00    +0.004 A 
ATOM     37  C   UNL     1     -14.644 -11.033  21.304  0.00  0.00    +0.000 A 
ENDBRANCH   4  27
ENDBRANCH  24   4
ENDBRANCH  23  24
ENDBRANCH  15   6
BRANCH  11   1
ATOM      1  O   UNL     1      -5.619 -10.338  13.339  0.00  0.00    -0.391 OA
ATOM     40  H   UNL     1      -5.225 -10.620  12.496  0.00  0.00    +0.210 HD
ENDBRANCH  11   1
BRANCH  14  19
ATOM     19  C   UNL     1      -2.989 -11.566  12.879  0.00  0.00    +0.077 C 
ATOM     21  C   UNL     1      -1.830 -12.515  13.166  0.00  0.00    +0.017 C 
BRANCH  19  22
ATOM      2  O   UNL     1      -1.487  -9.978  11.838  0.00  0.00    -0.276 OA
ATOM      7  N   UNL     1      -3.627 -10.210  10.975  0.00  0.00    -0.311 N 
ATOM     22  C   UNL     1      -2.598 -10.503  11.858  0.00  0.00    +0.216 C 
ATOM     41  H   UNL     1      -4.500 -10.727  11.024  0.00  0.00    +0.149 HD
BRANCH   7  25
ATOM     25  C   UNL     1      -3.497  -9.233   9.918  0.00  0.00    +0.139 C 
BRANCH  25  26
ATOM     26  C   UNL     1      -4.769  -9.079   9.137  0.00  0.00    -0.030 A 
ATOM     28  C   UNL     1      -5.778  -8.236   9.603  0.00  0.00    +0.009 A 
ATOM     29  C   UNL     1      -4.943  -9.780   7.943  0.00  0.00    +0.009 A 
ATOM     32  C   UNL     1      -6.959  -8.095   8.876  0.00  0.00    +0.046 A 
ATOM     33  C   UNL     1      -6.124  -9.638   7.216  0.00  0.00    +0.046 A 
ATOM     34  C   UNL     1      -7.133  -8.795   7.683  0.00  0.00    +0.120 A 
BRANCH  34   5
ATOM      5  O   UNL     1      -8.286  -8.656   6.973  0.00  0.00    -0.495 OA
ATOM     38  C   UNL     1      -8.488  -7.414   6.299  0.00  0.00    +0.277 C 
ENDBRANCH  34   5
ENDBRANCH  25  26
ENDBRANCH   7  25
ENDBRANCH  19  22
ENDBRANCH  14  19
TORSDOF 10
ENDMDL
MODEL 6
REMARK VINA RESULT:      -7.0     23.719     27.066
REMARK  Name = 45784377
REMARK  14 active torsions:
REMARK  status: ('A' for Active; 'I' for Inactive)
REMARK    1  A    between atoms: O_1  and  C_11
REMARK    2  A    between atoms: O_4  and  C_24
REMARK    3  A    between atoms: O_4  and  C_27
REMARK    4  A    between atoms: O_5  and  C_34
REMARK    5  A    between atoms: O_5  and  C_38
REMARK    6  A    between atoms: N_6  and  C_15
REMARK    7  A    between atoms: N_7  and  C_25
REMARK    8  A    between atoms: C_8  and  C_18
REMARK    9  A    between atoms: C_10  and  C_20
REMARK   10  A    between atoms: C_14  and  C_19
REMARK   11  A    between atoms: C_19  and  C_21
REMARK   12  A    between atoms: C_19  and  C_22
REMARK   13  A    between atoms: C_23  and  C_24
REMARK   14  A    between atoms: C_25  and  C_26
REMARK                            x       y       z     vdW  Elec       q    Type
REMARK                         _______ _______ _______ _____ _____    ______ ____
ROOT
ATOM      8  C   UNL     1       9.801   6.538   6.703  0.00  0.00    -0.027 C 
ATOM      9  C   UNL     1      10.255   7.464   5.526  0.00  0.00    +0.028 C 
ATOM     10  C   UNL     1      11.296   6.729   4.607  0.00  0.00    +0.012 C 
ATOM     11  C   UNL     1      10.692   8.863   6.047  0.00  0.00    +0.122 C 
ATOM     12  C   UNL     1       8.694   7.247   7.519  0.00  0.00    +0.007 C 
ATOM     13  C   UNL     1       9.195   5.240   6.119  0.00  0.00    +0.009 C 
ATOM     14  C   UNL     1       9.624   9.523   6.949  0.00  0.00    +0.029 C 
ATOM     15  C   UNL     1      10.704   5.389   4.087  0.00  0.00    +0.076 C 
ATOM     16  C   UNL     1       9.133   8.601   8.064  0.00  0.00    +0.007 C 
ATOM     17  C   UNL     1      10.151   4.497   5.197  0.00  0.00    +0.023 C 
ATOM     18  C   UNL     1      10.966   6.173   7.656  0.00  0.00    +0.011 C 
ATOM     20  C   UNL     1      11.766   7.574   3.411  0.00  0.00    +0.010 C 
ENDROOT
BRANCH  15   6
ATOM      3  O   UNL     1      10.260   3.939   1.624  0.00  0.00    -0.272 OA
ATOM      6  N   UNL     1      11.679   4.631   3.332  0.00  0.00    -0.309 N 
ATOM     23  C   UNL     1      11.365   3.968   2.157  0.00  0.00    +0.251 C 
ATOM     39  H   UNL     1      12.614   4.535   3.718  0.00  0.00    +0.149 HD
BRANCH  23  24
ATOM     24  C   UNL     1      12.572   3.258   1.580  0.00  0.00    +0.324 C 
BRANCH  24   4
ATOM      4  O   UNL     1      12.615   3.410   0.177  0.00  0.00    -0.483 OA
BRANCH   4  27
ATOM     27  C   UNL     1      13.813   3.798  -0.376  0.00  0.00    +0.121 A 
ATOM     30  C   UNL     1      13.876   4.159  -1.722  0.00  0.00    +0.045 A 
ATOM     31  C   UNL     1      14.966   3.831   0.409  0.00  0.00    +0.045 A 
ATOM     35  C   UNL     1      15.091   4.553  -2.282  0.00  0.00    +0.004 A 
ATOM     36  C   UNL     1      16.180   4.224  -0.152  0.00  0.00    +0.004 A 
ATOM     37  C   UNL     1      16.243   4.586  -1.498  0.00  0.00    +0.000 A 
ENDBRANCH   4  27
ENDBRANCH  24   4
ENDBRANCH  23  24
ENDBRANCH  15   6
BRANCH  11   1
ATOM      1  O   UNL     1      10.892   9.743   4.940  0.00  0.00    -0.391 OA
ATOM     40  H   UNL     1      11.848   9.836   4.796  0.00  0.00    +0.210 HD
ENDBRANCH  11   1
BRANCH  14  19
ATOM     19  C   UNL     1      10.125  10.839   7.557  0.00  0.00    +0.077 C 
ATOM     21  C   UNL     1      10.211  10.717   9.074  0.00  0.00    +0.017 C 
BRANCH  19  22
ATOM      2  O   UNL     1       9.109  13.024   7.791  0.00  0.00    -0.276 OA
ATOM      7  N   UNL     1       8.520  11.717   5.968  0.00  0.00    -0.311 N 
ATOM     22  C   UNL     1       9.209  11.985   7.141  0.00  0.00    +0.216 C 
ATOM     41  H   UNL     1       8.698  10.855   5.461  0.00  0.00    +0.149 HD
BRANCH   7  25
ATOM     25  C   UNL     1       7.590  12.651   5.376  0.00  0.00    +0.139 C 
BRANCH  25  26
ATOM     26  C   UNL     1       6.546  11.957   4.550  0.00  0.00    -0.030 A 
ATOM     28  C   UNL     1       6.765  10.655   4.098  0.00  0.00    +0.009 A 
ATOM     29  C   UNL     1       5.357  12.615   4.234  0.00  0.00    +0.009 A 
ATOM     32  C   UNL     1       5.794  10.012   3.331  0.00  0.00    +0.046 A 
ATOM     33  C   UNL     1       4.387  11.971   3.467  0.00  0.00    +0.046 A 
ATOM     34  C   UNL     1       4.605  10.669   3.015  0.00  0.00    +0.120 A 
BRANCH  34   5
ATOM      5  O   UNL     1       3.658  10.040   2.267  0.00  0.00    -0.495 OA
ATOM     38  C   UNL     1       3.866  10.002   0.856  0.00  0.00    +0.277 C 
ENDBRANCH  34   5
ENDBRANCH  25  26
ENDBRANCH   7  25
ENDBRANCH  19  22
ENDBRANCH  14  19
TORSDOF 10
ENDMDL
MODEL 7
REMARK VINA RESULT:      -7.0     24.933     29.023
REMARK  Name = 45784377
REMARK  14 active torsions:
REMARK  status: ('A' for Active; 'I' for Inactive)
REMARK    1  A    between atoms: O_1  and  C_11
REMARK    2  A    between atoms: O_4  and  C_24
REMARK    3  A    between atoms: O_4  and  C_27
REMARK    4  A    between atoms: O_5  and  C_34
REMARK    5  A    between atoms: O_5  and  C_38
REMARK    6  A    between atoms: N_6  and  C_15
REMARK    7  A    between atoms: N_7  and  C_25
REMARK    8  A    between atoms: C_8  and  C_18
REMARK    9  A    between atoms: C_10  and  C_20
REMARK   10  A    between atoms: C_14  and  C_19
REMARK   11  A    between atoms: C_19  and  C_21
REMARK   12  A    between atoms: C_19  and  C_22
REMARK   13  A    between atoms: C_23  and  C_24
REMARK   14  A    between atoms: C_25  and  C_26
REMARK                            x       y       z     vdW  Elec       q    Type
REMARK                         _______ _______ _______ _____ _____    ______ ____
ROOT
ATOM      8  C   UNL     1      11.332   9.557   6.835  0.00  0.00    -0.027 C 
ATOM      9  C   UNL     1      12.240   8.323   7.158  0.00  0.00    +0.028 C 
ATOM     10  C   UNL     1      13.571   8.376   6.325  0.00  0.00    +0.012 C 
ATOM     11  C   UNL     1      11.440   6.993   7.058  0.00  0.00    +0.122 C 
ATOM     12  C   UNL     1      10.087   9.534   7.753  0.00  0.00    +0.007 C 
ATOM     13  C   UNL     1      12.117  10.854   7.139  0.00  0.00    +0.009 C 
ATOM     14  C   UNL     1      10.140   7.016   7.896  0.00  0.00    +0.029 C 
ATOM     15  C   UNL     1      14.314   9.717   6.581  0.00  0.00    +0.076 C 
ATOM     16  C   UNL     1       9.279   8.249   7.628  0.00  0.00    +0.007 C 
ATOM     17  C   UNL     1      13.432  10.949   6.379  0.00  0.00    +0.023 C 
ATOM     18  C   UNL     1      10.863   9.578   5.359  0.00  0.00    +0.011 C 
ATOM     20  C   UNL     1      14.525   7.205   6.615  0.00  0.00    +0.010 C 
ENDROOT
BRANCH  15   6
ATOM      3  O   UNL     1      16.713  11.227   7.154  0.00  0.00    -0.272 OA
ATOM      6  N   UNL     1      15.485   9.849   5.740  0.00  0.00    -0.309 N 
ATOM     23  C   UNL     1      16.590  10.599   6.107  0.00  0.00    +0.251 C 
ATOM     39  H   UNL     1      15.463   9.421   4.818  0.00  0.00    +0.149 HD
BRANCH  23  24
ATOM     24  C   UNL     1      17.666  10.562   5.043  0.00  0.00    +0.324 C 
BRANCH  24   4
ATOM      4  O   UNL     1      17.836   9.249   4.553  0.00  0.00    -0.483 OA
BRANCH   4  27
ATOM     27  C   UNL     1      18.977   8.581   4.931  0.00  0.00    +0.121 A 
ATOM     30  C   UNL     1      19.671   7.804   4.004  0.00  0.00    +0.045 A 
ATOM     31  C   UNL     1      19.440   8.679   6.244  0.00  0.00    +0.045 A 
ATOM     35  C   UNL     1      20.828   7.126   4.388  0.00  0.00    +0.004 A 
ATOM     36  C   UNL     1      20.596   8.000   6.628  0.00  0.00    +0.004 A 
ATOM     37  C   UNL     1      21.290   7.224   5.699  0.00  0.00    +0.000 A 
ENDBRANCH   4  27
ENDBRANCH  24   4
ENDBRANCH  23  24
ENDBRANCH  15   6
BRANCH  11   1
ATOM      1  O   UNL     1      12.234   5.919   7.564  0.00  0.00    -0.391 OA
ATOM     40  H   UNL     1      12.649   6.215   8.392  0.00  0.00    +0.210 HD
ENDBRANCH  11   1
BRANCH  14  19
ATOM     19  C   UNL     1       9.302   5.749   7.681  0.00  0.00    +0.077 C 
ATOM     21  C   UNL     1       9.981   4.553   8.338  0.00  0.00    +0.017 C 
BRANCH  19  22
ATOM      2  O   UNL     1       8.146   6.009   5.570  0.00  0.00    -0.276 OA
ATOM      7  N   UNL     1      10.057   4.698   5.633  0.00  0.00    -0.311 N 
ATOM     22  C   UNL     1       9.085   5.516   6.189  0.00  0.00    +0.216 C 
ATOM     41  H   UNL     1      10.833   4.373   6.200  0.00  0.00    +0.149 HD
BRANCH   7  25
ATOM     25  C   UNL     1      10.064   4.331   4.234  0.00  0.00    +0.139 C 
BRANCH  25  26
ATOM     26  C   UNL     1      11.205   4.966   3.494  0.00  0.00    -0.030 A 
ATOM     28  C   UNL     1      11.625   6.253   3.829  0.00  0.00    +0.009 A 
ATOM     29  C   UNL     1      11.845   4.268   2.469  0.00  0.00    +0.009 A 
ATOM     32  C   UNL     1      12.686   6.842   3.140  0.00  0.00    +0.046 A 
ATOM     33  C   UNL     1      12.905   4.857   1.781  0.00  0.00    +0.046 A 
ATOM     34  C   UNL     1      13.325   6.144   2.116  0.00  0.00    +0.120 A 
BRANCH  34   5
ATOM      5  O   UNL     1      14.360   6.719   1.444  0.00  0.00    -0.495 OA
ATOM     38  C   UNL     1      15.103   5.883   0.558  0.00  0.00    +0.277 C 
ENDBRANCH  34   5
ENDBRANCH  25  26
ENDBRANCH   7  25
ENDBRANCH  19  22
ENDBRANCH  14  19
TORSDOF 10
ENDMDL
MODEL 8
REMARK VINA RESULT:      -7.0     24.009     27.523
REMARK  Name = 45784377
REMARK  14 active torsions:
REMARK  status: ('A' for Active; 'I' for Inactive)
REMARK    1  A    between atoms: O_1  and  C_11
REMARK    2  A    between atoms: O_4  and  C_24
REMARK    3  A    between atoms: O_4  and  C_27
REMARK    4  A    between atoms: O_5  and  C_34
REMARK    5  A    between atoms: O_5  and  C_38
REMARK    6  A    between atoms: N_6  and  C_15
REMARK    7  A    between atoms: N_7  and  C_25
REMARK    8  A    between atoms: C_8  and  C_18
REMARK    9  A    between atoms: C_10  and  C_20
REMARK   10  A    between atoms: C_14  and  C_19
REMARK   11  A    between atoms: C_19  and  C_21
REMARK   12  A    between atoms: C_19  and  C_22
REMARK   13  A    between atoms: C_23  and  C_24
REMARK   14  A    between atoms: C_25  and  C_26
REMARK                            x       y       z     vdW  Elec       q    Type
REMARK                         _______ _______ _______ _____ _____    ______ ____
ROOT
ATOM      8  C   UNL     1      14.040   4.946   0.673  0.00  0.00    -0.027 C 
ATOM      9  C   UNL     1      12.521   5.270   0.871  0.00  0.00    +0.028 C 
ATOM     10  C   UNL     1      12.192   5.494   2.390  0.00  0.00    +0.012 C 
ATOM     11  C   UNL     1      11.624   4.232   0.137  0.00  0.00    +0.122 C 
ATOM     12  C   UNL     1      14.352   4.845  -0.840  0.00  0.00    +0.007 C 
ATOM     13  C   UNL     1      14.883   6.108   1.250  0.00  0.00    +0.009 C 
ATOM     14  C   UNL     1      12.010   4.058  -1.350  0.00  0.00    +0.029 C 
ATOM     15  C   UNL     1      13.098   6.612   2.979  0.00  0.00    +0.076 C 
ATOM     16  C   UNL     1      13.502   3.802  -1.554  0.00  0.00    +0.007 C 
ATOM     17  C   UNL     1      14.587   6.389   2.715  0.00  0.00    +0.023 C 
ATOM     18  C   UNL     1      14.459   3.622   1.357  0.00  0.00    +0.011 C 
ATOM     20  C   UNL     1      10.719   5.844   2.656  0.00  0.00    +0.010 C 
ENDROOT
BRANCH  15   6
ATOM      3  O   UNL     1      13.057   9.082   4.482  0.00  0.00    -0.272 OA
ATOM      6  N   UNL     1      12.903   6.764   4.406  0.00  0.00    -0.309 N 
ATOM     23  C   UNL     1      12.900   7.998   5.034  0.00  0.00    +0.251 C 
ATOM     39  H   UNL     1      12.827   5.922   4.970  0.00  0.00    +0.149 HD
BRANCH  23  24
ATOM     24  C   UNL     1      12.673   7.862   6.525  0.00  0.00    +0.324 C 
BRANCH  24   4
ATOM      4  O   UNL     1      11.393   8.339   6.880  0.00  0.00    -0.483 OA
BRANCH   4  27
ATOM     27  C   UNL     1      10.309   7.651   6.387  0.00  0.00    +0.121 A 
ATOM     30  C   UNL     1      10.153   6.295   6.675  0.00  0.00    +0.045 A 
ATOM     31  C   UNL     1       9.365   8.309   5.598  0.00  0.00    +0.045 A 
ATOM     35  C   UNL     1       9.053   5.598   6.175  0.00  0.00    +0.004 A 
ATOM     36  C   UNL     1       8.266   7.611   5.098  0.00  0.00    +0.004 A 
ATOM     37  C   UNL     1       8.110   6.255   5.387  0.00  0.00    +0.000 A 
ENDBRANCH   4  27
ENDBRANCH  24   4
ENDBRANCH  23  24
ENDBRANCH  15   6
BRANCH  11   1
ATOM      1  O   UNL     1      10.267   4.677   0.158  0.00  0.00    -0.391 OA
ATOM     40  H   UNL     1      10.183   5.422  -0.459  0.00  0.00    +0.210 HD
ENDBRANCH  11   1
BRANCH  14  19
ATOM     19  C   UNL     1      11.202   2.940  -2.020  0.00  0.00    +0.077 C 
ATOM     21  C   UNL     1      12.132   1.822  -2.478  0.00  0.00    +0.017 C 
BRANCH  19  22
ATOM      2  O   UNL     1      10.643   3.230  -4.358  0.00  0.00    -0.276 OA
ATOM      7  N   UNL     1       9.381   4.352  -2.768  0.00  0.00    -0.311 N 
ATOM     22  C   UNL     1      10.398   3.506  -3.186  0.00  0.00    +0.216 C 
ATOM     41  H   UNL     1       9.208   4.488  -1.777  0.00  0.00    +0.149 HD
BRANCH   7  25
ATOM     25  C   UNL     1       8.484   5.012  -3.691  0.00  0.00    +0.139 C 
BRANCH  25  26
ATOM     26  C   UNL     1       7.895   6.261  -3.103  0.00  0.00    -0.030 A 
ATOM     28  C   UNL     1       6.580   6.621  -3.401  0.00  0.00    +0.009 A 
ATOM     29  C   UNL     1       8.664   7.064  -2.259  0.00  0.00    +0.009 A 
ATOM     32  C   UNL     1       6.035   7.782  -2.855  0.00  0.00    +0.046 A 
ATOM     33  C   UNL     1       8.117   8.225  -1.713  0.00  0.00    +0.046 A 
ATOM     34  C   UNL     1       6.803   8.584  -2.011  0.00  0.00    +0.120 A 
BRANCH  34   5
ATOM      5  O   UNL     1       6.269   9.717  -1.478  0.00  0.00    -0.495 OA
ATOM     38  C   UNL     1       6.068   9.738  -0.065  0.00  0.00    +0.277 C 
ENDBRANCH  34   5
ENDBRANCH  25  26
ENDBRANCH   7  25
ENDBRANCH  19  22
ENDBRANCH  14  19
TORSDOF 10
ENDMDL
MODEL 9
REMARK VINA RESULT:      -6.9      2.945      3.930
REMARK  Name = 45784377
REMARK  14 active torsions:
REMARK  status: ('A' for Active; 'I' for Inactive)
REMARK    1  A    between atoms: O_1  and  C_11
REMARK    2  A    between atoms: O_4  and  C_24
REMARK    3  A    between atoms: O_4  and  C_27
REMARK    4  A    between atoms: O_5  and  C_34
REMARK    5  A    between atoms: O_5  and  C_38
REMARK    6  A    between atoms: N_6  and  C_15
REMARK    7  A    between atoms: N_7  and  C_25
REMARK    8  A    between atoms: C_8  and  C_18
REMARK    9  A    between atoms: C_10  and  C_20
REMARK   10  A    between atoms: C_14  and  C_19
REMARK   11  A    between atoms: C_19  and  C_21
REMARK   12  A    between atoms: C_19  and  C_22
REMARK   13  A    between atoms: C_23  and  C_24
REMARK   14  A    between atoms: C_25  and  C_26
REMARK                            x       y       z     vdW  Elec       q    Type
REMARK                         _______ _______ _______ _____ _____    ______ ____
ROOT
ATOM      8  C   UNL     1      -3.842 -11.349  11.817  0.00  0.00    -0.027 C 
ATOM      9  C   UNL     1      -5.226 -10.649  12.025  0.00  0.00    +0.028 C 
ATOM     10  C   UNL     1      -5.605  -9.777  10.774  0.00  0.00    +0.012 C 
ATOM     11  C   UNL     1      -5.285  -9.914  13.395  0.00  0.00    +0.122 C 
ATOM     12  C   UNL     1      -3.554 -12.287  13.013  0.00  0.00    +0.007 C 
ATOM     13  C   UNL     1      -3.906 -12.221  10.541  0.00  0.00    +0.009 C 
ATOM     14  C   UNL     1      -4.894 -10.830  14.578  0.00  0.00    +0.029 C 
ATOM     15  C   UNL     1      -5.592 -10.648   9.486  0.00  0.00    +0.076 C 
ATOM     16  C   UNL     1      -3.572 -11.563  14.354  0.00  0.00    +0.007 C 
ATOM     17  C   UNL     1      -4.295 -11.434   9.298  0.00  0.00    +0.023 C 
ATOM     18  C   UNL     1      -2.678 -10.336  11.685  0.00  0.00    +0.011 C 
ATOM     20  C   UNL     1      -6.970  -9.080  10.900  0.00  0.00    +0.010 C 
ENDROOT
BRANCH  15   6
ATOM      3  O   UNL     1      -7.204 -11.360   7.193  0.00  0.00    -0.272 OA
ATOM      6  N   UNL     1      -5.822  -9.852   8.299  0.00  0.00    -0.309 N 
ATOM     23  C   UNL     1      -6.616 -10.284   7.250  0.00  0.00    +0.251 C 
ATOM     39  H   UNL     1      -5.329  -8.967   8.214  0.00  0.00    +0.149 HD
BRANCH  23  24
ATOM     24  C   UNL     1      -6.683  -9.254   6.142  0.00  0.00    +0.324 C 
BRANCH  24   4
ATOM      4  O   UNL     1      -8.019  -8.866   5.903  0.00  0.00    -0.483 OA
BRANCH   4  27
ATOM     27  C   UNL     1      -8.642  -8.128   6.881  0.00  0.00    +0.121 A 
ATOM     30  C   UNL     1      -9.749  -8.651   7.551  0.00  0.00    +0.045 A 
ATOM     31  C   UNL     1      -8.169  -6.856   7.205  0.00  0.00    +0.045 A 
ATOM     35  C   UNL     1     -10.382  -7.902   8.543  0.00  0.00    +0.004 A 
ATOM     36  C   UNL     1      -8.802  -6.108   8.196  0.00  0.00    +0.004 A 
ATOM     37  C   UNL     1      -9.908  -6.631   8.866  0.00  0.00    +0.000 A 
ENDBRANCH   4  27
ENDBRANCH  24   4
ENDBRANCH  23  24
ENDBRANCH  15   6
BRANCH  11   1
ATOM      1  O   UNL     1      -6.621  -9.475  13.644  0.00  0.00    -0.391 OA
ATOM     40  H   UNL     1      -6.578  -8.656  14.166  0.00  0.00    +0.210 HD
ENDBRANCH  11   1
BRANCH  14  19
ATOM     19  C   UNL     1      -4.831 -10.055  15.901  0.00  0.00    +0.077 C 
ATOM     21  C   UNL     1      -3.569 -10.432  16.670  0.00  0.00    +0.017 C 
BRANCH  19  22
ATOM      2  O   UNL     1      -6.243 -11.360  17.373  0.00  0.00    -0.276 OA
ATOM      7  N   UNL     1      -7.007  -9.294  16.647  0.00  0.00    -0.311 N 
ATOM     22  C   UNL     1      -6.086 -10.329  16.723  0.00  0.00    +0.216 C 
ATOM     41  H   UNL     1      -6.781  -8.450  16.130  0.00  0.00    +0.149 HD
BRANCH   7  25
ATOM     25  C   UNL     1      -8.275  -9.324  17.339  0.00  0.00    +0.139 C 
BRANCH  25  26
ATOM     26  C   UNL     1      -9.361  -8.650  16.551  0.00  0.00    -0.030 A 
ATOM     28  C   UNL     1     -10.059  -7.575  17.101  0.00  0.00    +0.009 A 
ATOM     29  C   UNL     1      -9.671  -9.099  15.267  0.00  0.00    +0.009 A 
ATOM     32  C   UNL     1     -11.067  -6.950  16.367  0.00  0.00    +0.046 A 
ATOM     33  C   UNL     1     -10.679  -8.474  14.534  0.00  0.00    +0.046 A 
ATOM     34  C   UNL     1     -11.378  -7.399  15.084  0.00  0.00    +0.120 A 
BRANCH  34   5
ATOM      5  O   UNL     1     -12.361  -6.789  14.369  0.00  0.00    -0.495 OA
ATOM     38  C   UNL     1     -12.179  -5.407  14.063  0.00  0.00    +0.277 C 
ENDBRANCH  34   5
ENDBRANCH  25  26
ENDBRANCH   7  25
ENDBRANCH  19  22
ENDBRANCH  14  19
TORSDOF 10
ENDMDL
MODEL 10
REMARK VINA RESULT:      -6.7      2.881      3.923
REMARK  Name = 45784377
REMARK  14 active torsions:
REMARK  status: ('A' for Active; 'I' for Inactive)
REMARK    1  A    between atoms: O_1  and  C_11
REMARK    2  A    between atoms: O_4  and  C_24
REMARK    3  A    between atoms: O_4  and  C_27
REMARK    4  A    between atoms: O_5  and  C_34
REMARK    5  A    between atoms: O_5  and  C_38
REMARK    6  A    between atoms: N_6  and  C_15
REMARK    7  A    between atoms: N_7  and  C_25
REMARK    8  A    between atoms: C_8  and  C_18
REMARK    9  A    between atoms: C_10  and  C_20
REMARK   10  A    between atoms: C_14  and  C_19
REMARK   11  A    between atoms: C_19  and  C_21
REMARK   12  A    between atoms: C_19  and  C_22
REMARK   13  A    between atoms: C_23  and  C_24
REMARK   14  A    between atoms: C_25  and  C_26
REMARK                            x       y       z     vdW  Elec       q    Type
REMARK                         _______ _______ _______ _____ _____    ______ ____
ROOT
ATOM      8  C   UNL     1      -3.285 -11.722  12.050  0.00  0.00    -0.027 C 
ATOM      9  C   UNL     1      -4.568 -10.986  12.562  0.00  0.00    +0.028 C 
ATOM     10  C   UNL     1      -5.138 -10.025  11.458  0.00  0.00    +0.012 C 
ATOM     11  C   UNL     1      -4.327 -10.337  13.955  0.00  0.00    +0.122 C 
ATOM     12  C   UNL     1      -2.817 -12.742  13.115  0.00  0.00    +0.007 C 
ATOM     13  C   UNL     1      -3.634 -12.510  10.766  0.00  0.00    +0.009 C 
ATOM     14  C   UNL     1      -3.758 -11.338  14.987  0.00  0.00    +0.029 C 
ATOM     15  C   UNL     1      -5.415 -10.814  10.147  0.00  0.00    +0.076 C 
ATOM     16  C   UNL     1      -2.541 -12.103  14.470  0.00  0.00    +0.007 C 
ATOM     17  C   UNL     1      -4.217 -11.634   9.667  0.00  0.00    +0.023 C 
ATOM     18  C   UNL     1      -2.120 -10.746  11.749  0.00  0.00    +0.011 C 
ATOM     20  C   UNL     1      -6.419  -9.288  11.885  0.00  0.00    +0.010 C 
ENDROOT
BRANCH  15   6
ATOM      3  O   UNL     1      -7.889 -10.936   8.656  0.00  0.00    -0.272 OA
ATOM      6  N   UNL     1      -5.831  -9.938   9.073  0.00  0.00    -0.309 N 
ATOM     23  C   UNL     1      -7.043 -10.079   8.418  0.00  0.00    +0.251 C 
ATOM     39  H   UNL     1      -5.176  -9.231   8.751  0.00  0.00    +0.149 HD
BRANCH  23  24
ATOM     24  C   UNL     1      -7.220  -9.030   7.341  0.00  0.00    +0.324 C 
BRANCH  24   4
ATOM      4  O   UNL     1      -6.400  -9.316   6.228  0.00  0.00    -0.483 OA
BRANCH   4  27
ATOM     27  C   UNL     1      -7.016  -9.409   5.002  0.00  0.00    +0.121 A 
ATOM     30  C   UNL     1      -7.545  -8.269   4.398  0.00  0.00    +0.045 A 
ATOM     31  C   UNL     1      -7.112 -10.645   4.362  0.00  0.00    +0.045 A 
ATOM     35  C   UNL     1      -8.170  -8.364   3.155  0.00  0.00    +0.004 A 
ATOM     36  C   UNL     1      -7.737 -10.740   3.119  0.00  0.00    +0.004 A 
ATOM     37  C   UNL     1      -8.266  -9.599   2.515  0.00  0.00    +0.000 A 
ENDBRANCH   4  27
ENDBRANCH  24   4
ENDBRANCH  23  24
ENDBRANCH  15   6
BRANCH  11   1
ATOM      1  O   UNL     1      -5.567  -9.866  14.483  0.00  0.00    -0.391 OA
ATOM     40  H   UNL     1      -5.773 -10.383  15.279  0.00  0.00    +0.210 HD
ENDBRANCH  11   1
BRANCH  14  19
ATOM     19  C   UNL     1      -3.405 -10.650  16.313  0.00  0.00    +0.077 C 
ATOM     21  C   UNL     1      -1.939 -10.890  16.654  0.00  0.00    +0.017 C 
BRANCH  19  22
ATOM      2  O   UNL     1      -3.939 -11.907  18.312  0.00  0.00    -0.276 OA
ATOM      7  N   UNL     1      -5.619 -10.670  17.299  0.00  0.00    -0.311 N 
ATOM     22  C   UNL     1      -4.325 -11.154  17.420  0.00  0.00    +0.216 C 
ATOM     41  H   UNL     1      -5.846 -10.008  16.564  0.00  0.00    +0.149 HD
BRANCH   7  25
ATOM     25  C   UNL     1      -6.671 -11.009  18.230  0.00  0.00    +0.139 C 
BRANCH  25  26
ATOM     26  C   UNL     1      -7.925 -10.226  17.968  0.00  0.00    -0.030 A 
ATOM     28  C   UNL     1      -9.099 -10.539  18.653  0.00  0.00    +0.009 A 
ATOM     29  C   UNL     1      -7.916  -9.186  17.038  0.00  0.00    +0.009 A 
ATOM     32  C   UNL     1     -10.263  -9.811  18.408  0.00  0.00    +0.046 A 
ATOM     33  C   UNL     1      -9.080  -8.459  16.794  0.00  0.00    +0.046 A 
ATOM     34  C   UNL     1     -10.254  -8.771  17.479  0.00  0.00    +0.120 A 
BRANCH  34   5
ATOM      5  O   UNL     1     -11.391  -8.061  17.241  0.00  0.00    -0.495 OA
ATOM     38  C   UNL     1     -11.245  -6.804  16.583  0.00  0.00    +0.277 C 
ENDBRANCH  34   5
ENDBRANCH  25  26
ENDBRANCH   7  25
ENDBRANCH  19  22
ENDBRANCH  14  19
TORSDOF 10
ENDMDL
