REMARK  Name = 38028999
REMARK  10 active torsions:
REMARK  status: ('A' for Active; 'I' for Inactive)
REMARK    1  A    between atoms: N_4  and  C_16
REMARK    2  A    between atoms: C_8  and  C_12
REMARK    3  A    between atoms: C_9  and  C_16
REMARK    4  A    between atoms: C_11  and  C_15
REMARK    5  A    between atoms: C_12  and  C_17
REMARK    6  A    between atoms: C_12  and  C_18
REMARK    7  A    between atoms: C_13  and  C_19
REMARK    8  A    between atoms: C_15  and  C_20
REMARK    9  A    between atoms: C_25  and  C_27
REMARK   10  A    between atoms: C_36  and  C_37
REMARK                            x       y       z     vdW  Elec       q    Type
REMARK                         _______ _______ _______ _____ _____    ______ ____
ROOT
ATOM      8  C   UNL     1      -3.559   1.433   0.762  0.00  0.00    +0.000 C 
ATOM      9  C   UNL     1      -4.675   0.861  -0.147  0.00  0.00    +0.032 C 
ATOM     10  C   UNL     1      -2.963   2.706   0.143  0.00  0.00    +0.012 C 
ATOM     11  C   UNL     1      -2.369   2.451  -1.256  0.00  0.00    +0.023 C 
ATOM     13  C   UNL     1      -3.313   1.651  -2.130  0.00  0.00    -0.073 C 
ATOM     14  C   UNL     1      -4.346   0.958  -1.619  0.00  0.00    -0.022 C 
ATOM     19  C   UNL     1      -3.071   1.703  -3.613  0.00  0.00    +0.039 C 
ENDROOT
BRANCH   8  12
ATOM     12  C   UNL     1      -4.074   1.735   2.173  0.00  0.00    -0.013 C 
ATOM     17  C   UNL     1      -4.788   3.083   2.202  0.00  0.00    +0.007 C 
ATOM     18  C   UNL     1      -2.925   1.709   3.176  0.00  0.00    +0.007 C 
ENDBRANCH   8  12
BRANCH  11  15
ATOM     15  C   UNL     1      -1.000   1.769  -1.159  0.00  0.00    +0.103 C 
BRANCH  15  20
ATOM      1  O   UNL     1      -0.286   3.939  -0.511  0.00  0.00    -0.276 OA
ATOM      3  N   UNL     1       1.341   2.281  -0.576  0.00  0.00    -0.298 N 
ATOM      5  N   UNL     1       4.024   1.335  -0.042  0.00  0.00    -0.312 N 
ATOM      6  N   UNL     1       6.024   0.291  -0.741  0.00  0.00    -0.240 NA
ATOM     20  C   UNL     1       0.041   2.768  -0.718  0.00  0.00    +0.216 C 
ATOM     21  C   UNL     1       1.726   0.888  -0.812  0.00  0.00    +0.126 C 
ATOM     22  C   UNL     1       2.407   3.188  -0.158  0.00  0.00    +0.126 C 
ATOM     23  C   UNL     1       3.218   0.727  -1.104  0.00  0.00    +0.125 C 
ATOM     24  C   UNL     1       3.463   2.477   0.686  0.00  0.00    +0.125 C 
ATOM     26  C   UNL     1       5.303   0.866   0.248  0.00  0.00    +0.121 A 
ATOM     28  C   UNL     1       5.757   1.022   1.548  0.00  0.00    +0.043 A 
ATOM     31  C   UNL     1       7.032   0.559   1.852  0.00  0.00    +0.005 A 
ATOM     32  C   UNL     1       7.258  -0.148  -0.407  0.00  0.00    +0.113 A 
ATOM     35  C   UNL     1       7.803  -0.039   0.862  0.00  0.00    +0.020 A 
ENDBRANCH  15  20
ENDBRANCH  11  15
BRANCH   9  16
ATOM     16  C   UNL     1      -4.988  -0.597   0.211  0.00  0.00    +0.112 C 
BRANCH  16   4
ATOM      2  O   UNL     1      -3.545  -2.216   2.092  0.00  0.00    -0.270 OA
ATOM      4  N   UNL     1      -3.869  -1.440  -0.071  0.00  0.00    -0.311 N 
ATOM     25  C   UNL     1      -3.224  -2.197   0.907  0.00  0.00    +0.244 C 
ATOM     38  H   UNL     1      -3.604  -1.547  -1.044  0.00  0.00    +0.149 HD
BRANCH  25  27
ATOM     27  C   UNL     1      -2.059  -3.002   0.457  0.00  0.00    +0.037 A 
ATOM     29  C   UNL     1      -1.709  -4.166   1.142  0.00  0.00    +0.014 A 
ATOM     30  C   UNL     1      -1.317  -2.595  -0.652  0.00  0.00    +0.014 A 
ATOM     33  C   UNL     1      -0.617  -4.922   0.718  0.00  0.00    +0.019 A 
ATOM     34  C   UNL     1      -0.224  -3.352  -1.075  0.00  0.00    +0.019 A 
ATOM     36  C   UNL     1       0.126  -4.516  -0.390  0.00  0.00    +0.052 A 
BRANCH  36  37
ATOM      7  N   UNL     1       2.154  -5.920  -1.176  0.00  0.00    -0.191 NA
ATOM     37  C   UNL     1       1.245  -5.291  -0.824  0.00  0.00    +0.099 C 
ENDBRANCH  36  37
ENDBRANCH  25  27
ENDBRANCH  16   4
ENDBRANCH   9  16
TORSDOF 7
