MODEL 1
REMARK VINA RESULT:      -7.8      0.000      0.000
REMARK  Name = 51136858
REMARK  5 active torsions:
REMARK  status: ('A' for Active; 'I' for Inactive)
REMARK    1  A    between atoms: N_2  and  C_13
REMARK    2  A    between atoms: N_4  and  C_22
REMARK    3  A    between atoms: C_9  and  C_14
REMARK    4  A    between atoms: C_13  and  C_19
REMARK    5  A    between atoms: C_21  and  C_24
REMARK                            x       y       z     vdW  Elec       q    Type
REMARK                         _______ _______ _______ _____ _____    ______ ____
ROOT
ATOM      1  O   UNL     1      14.894   8.403  20.082  0.00  0.00    -0.336 OA
ATOM      5  N   UNL     1      15.977   6.773  18.994  0.00  0.00    -0.190 NA
ATOM      6  N   UNL     1      16.081   8.183  20.791  0.00  0.00    -0.056 NA
ATOM     14  C   UNL     1      14.912   7.532  19.039  0.00  0.00    +0.245 A 
ATOM     21  C   UNL     1      16.665   7.208  20.089  0.00  0.00    +0.204 A 
ENDROOT
BRANCH  21  24
ATOM      3  N   UNL     1      21.573   4.967  21.432  0.00  0.00    -0.313 N 
ATOM      4  N   UNL     1      24.130   3.774  21.881  0.00  0.00    -0.302 NA
ATOM      7  N   UNL     1      19.626   4.961  20.086  0.00  0.00    -0.240 NA
ATOM     15  C   UNL     1      21.757   3.523  21.237  0.00  0.00    +0.122 C 
ATOM     16  C   UNL     1      22.790   5.779  21.335  0.00  0.00    +0.122 C 
ATOM     17  C   UNL     1      22.902   3.004  22.111  0.00  0.00    +0.103 C 
ATOM     18  C   UNL     1      23.902   5.188  22.205  0.00  0.00    +0.103 C 
ATOM     20  C   UNL     1      20.338   5.524  21.088  0.00  0.00    +0.121 A 
ATOM     22  C   UNL     1      25.231   3.235  22.681  0.00  0.00    +0.105 C 
ATOM     24  C   UNL     1      17.933   6.648  20.452  0.00  0.00    +0.041 A 
ATOM     26  C   UNL     1      19.920   6.633  21.808  0.00  0.00    +0.044 A 
ATOM     27  C   UNL     1      18.694   7.199  21.477  0.00  0.00    +0.016 A 
ATOM     28  C   UNL     1      18.439   5.538  19.794  0.00  0.00    +0.124 A 
ENDBRANCH  21  24
BRANCH  14   9
ATOM      2  N   UNL     1      12.672   8.507  18.563  0.00  0.00    -0.287 NA
ATOM      9  C   UNL     1      13.720   7.572  18.106  0.00  0.00    +0.146 C 
ATOM     10  C   UNL     1      14.088   8.058  16.693  0.00  0.00    +0.030 C 
ATOM     11  C   UNL     1      13.155   9.229  16.419  0.00  0.00    +0.017 C 
ATOM     12  C   UNL     1      11.992   8.987  17.361  0.00  0.00    +0.085 C 
BRANCH   2  13
ATOM     13  C   UNL     1      11.745   7.909  19.516  0.00  0.00    +0.121 C 
BRANCH  13  19
ATOM      8  N   UNL     1      10.593   9.099  22.919  0.00  0.00    -0.263 NA
ATOM     19  C   UNL     1      11.489   8.813  20.692  0.00  0.00    -0.015 A 
ATOM     23  C   UNL     1      11.884  10.146  20.672  0.00  0.00    +0.008 A 
ATOM     25  C   UNL     1      10.852   8.342  21.830  0.00  0.00    +0.115 A 
ATOM     29  C   UNL     1      11.634  10.956  21.775  0.00  0.00    +0.020 A 
ATOM     30  C   UNL     1      10.991  10.390  22.864  0.00  0.00    +0.111 A 
ENDBRANCH  13  19
ENDBRANCH   2  13
ENDBRANCH  14   9
TORSDOF 4
ENDMDL
MODEL 2
REMARK VINA RESULT:      -7.5      2.525     10.936
REMARK  Name = 51136858
REMARK  5 active torsions:
REMARK  status: ('A' for Active; 'I' for Inactive)
REMARK    1  A    between atoms: N_2  and  C_13
REMARK    2  A    between atoms: N_4  and  C_22
REMARK    3  A    between atoms: C_9  and  C_14
REMARK    4  A    between atoms: C_13  and  C_19
REMARK    5  A    between atoms: C_21  and  C_24
REMARK                            x       y       z     vdW  Elec       q    Type
REMARK                         _______ _______ _______ _____ _____    ______ ____
ROOT
ATOM      1  O   UNL     1      21.243   5.027  21.264  0.00  0.00    -0.336 OA
ATOM      5  N   UNL     1      19.781   6.461  22.170  0.00  0.00    -0.190 NA
ATOM      6  N   UNL     1      20.157   5.086  20.381  0.00  0.00    -0.056 NA
ATOM     14  C   UNL     1      20.940   5.866  22.289  0.00  0.00    +0.245 A 
ATOM     21  C   UNL     1      19.337   5.951  20.984  0.00  0.00    +0.204 A 
ENDROOT
BRANCH  21  24
ATOM      3  N   UNL     1      14.434   7.349  18.764  0.00  0.00    -0.313 N 
ATOM      4  N   UNL     1      11.891   7.831  17.555  0.00  0.00    -0.302 NA
ATOM      7  N   UNL     1      16.436   6.090  18.664  0.00  0.00    -0.240 NA
ATOM     15  C   UNL     1      14.295   7.313  17.303  0.00  0.00    +0.122 C 
ATOM     16  C   UNL     1      13.202   7.112  19.524  0.00  0.00    +0.122 C 
ATOM     17  C   UNL     1      13.127   8.195  16.853  0.00  0.00    +0.103 C 
ATOM     18  C   UNL     1      12.070   7.999  19.002  0.00  0.00    +0.103 C 
ATOM     20  C   UNL     1      15.669   6.992  19.316  0.00  0.00    +0.121 A 
ATOM     22  C   UNL     1      10.772   8.643  17.078  0.00  0.00    +0.105 C 
ATOM     24  C   UNL     1      18.070   6.327  20.431  0.00  0.00    +0.041 A 
ATOM     26  C   UNL     1      16.028   7.596  20.511  0.00  0.00    +0.044 A 
ATOM     27  C   UNL     1      17.252   7.251  21.071  0.00  0.00    +0.016 A 
ATOM     28  C   UNL     1      17.619   5.780  19.239  0.00  0.00    +0.124 A 
ENDBRANCH  21  24
BRANCH  14   9
ATOM      2  N   UNL     1      23.114   5.066  23.201  0.00  0.00    -0.287 NA
ATOM      9  C   UNL     1      21.971   5.983  23.392  0.00  0.00    +0.146 C 
ATOM     10  C   UNL     1      22.603   7.384  23.468  0.00  0.00    +0.030 C 
ATOM     11  C   UNL     1      24.104   7.150  23.372  0.00  0.00    +0.017 C 
ATOM     12  C   UNL     1      24.270   5.712  23.821  0.00  0.00    +0.085 C 
BRANCH   2  13
ATOM     13  C   UNL     1      22.876   3.733  23.739  0.00  0.00    +0.121 C 
BRANCH  13  19
ATOM      8  N   UNL     1      25.519   1.094  23.128  0.00  0.00    -0.263 NA
ATOM     19  C   UNL     1      23.706   2.689  23.040  0.00  0.00    -0.015 A 
ATOM     23  C   UNL     1      23.459   2.347  21.714  0.00  0.00    +0.008 A 
ATOM     25  C   UNL     1      24.738   2.039  23.696  0.00  0.00    +0.115 A 
ATOM     29  C   UNL     1      24.243   1.379  21.096  0.00  0.00    +0.020 A 
ATOM     30  C   UNL     1      25.251   0.787  21.839  0.00  0.00    +0.111 A 
ENDBRANCH  13  19
ENDBRANCH   2  13
ENDBRANCH  14   9
TORSDOF 4
ENDMDL
MODEL 3
REMARK VINA RESULT:      -7.3     26.727     31.093
REMARK  Name = 51136858
REMARK  5 active torsions:
REMARK  status: ('A' for Active; 'I' for Inactive)
REMARK    1  A    between atoms: N_2  and  C_13
REMARK    2  A    between atoms: N_4  and  C_22
REMARK    3  A    between atoms: C_9  and  C_14
REMARK    4  A    between atoms: C_13  and  C_19
REMARK    5  A    between atoms: C_21  and  C_24
REMARK                            x       y       z     vdW  Elec       q    Type
REMARK                         _______ _______ _______ _____ _____    ______ ____
ROOT
ATOM      1  O   UNL     1      -4.826 -10.822  17.290  0.00  0.00    -0.336 OA
ATOM      5  N   UNL     1      -5.684 -10.204  15.315  0.00  0.00    -0.190 NA
ATOM      6  N   UNL     1      -6.127 -10.374  17.553  0.00  0.00    -0.056 NA
ATOM     14  C   UNL     1      -4.646 -10.687  15.950  0.00  0.00    +0.245 A 
ATOM     21  C   UNL     1      -6.567 -10.026  16.340  0.00  0.00    +0.204 A 
ENDROOT
BRANCH  21  24
ATOM      3  N   UNL     1     -11.663  -8.017  15.388  0.00  0.00    -0.313 N 
ATOM      4  N   UNL     1     -14.325  -7.187  14.764  0.00  0.00    -0.302 NA
ATOM      7  N   UNL     1      -9.750  -9.179  14.618  0.00  0.00    -0.240 NA
ATOM     15  C   UNL     1     -12.003  -7.596  14.022  0.00  0.00    +0.122 C 
ATOM     16  C   UNL     1     -12.788  -8.479  16.206  0.00  0.00    +0.122 C 
ATOM     17  C   UNL     1     -13.182  -6.620  14.038  0.00  0.00    +0.103 C 
ATOM     18  C   UNL     1     -13.942  -7.476  16.152  0.00  0.00    +0.103 C 
ATOM     20  C   UNL     1     -10.381  -8.525  15.619  0.00  0.00    +0.121 A 
ATOM     22  C   UNL     1     -15.463  -6.268  14.726  0.00  0.00    +0.105 C 
ATOM     24  C   UNL     1      -7.881  -9.500  16.118  0.00  0.00    +0.041 A 
ATOM     26  C   UNL     1      -9.835  -8.321  16.877  0.00  0.00    +0.044 A 
ATOM     27  C   UNL     1      -8.562  -8.821  17.122  0.00  0.00    +0.016 A 
ATOM     28  C   UNL     1      -8.514  -9.650  14.894  0.00  0.00    +0.124 A 
ENDBRANCH  21  24
BRANCH  14   9
ATOM      2  N   UNL     1      -2.981 -10.469  14.113  0.00  0.00    -0.287 NA
ATOM      9  C   UNL     1      -3.298 -11.111  15.405  0.00  0.00    +0.146 C 
ATOM     10  C   UNL     1      -2.133 -10.721  16.332  0.00  0.00    +0.030 C 
ATOM     11  C   UNL     1      -1.183  -9.914  15.458  0.00  0.00    +0.017 C 
ATOM     12  C   UNL     1      -1.524 -10.362  14.051  0.00  0.00    +0.085 C 
BRANCH   2  13
ATOM     13  C   UNL     1      -3.527 -11.185  12.967  0.00  0.00    +0.121 C 
BRANCH  13  19
ATOM      8  N   UNL     1      -5.626  -8.744  10.976  0.00  0.00    -0.263 NA
ATOM     19  C   UNL     1      -3.957 -10.246  11.872  0.00  0.00    -0.015 A 
ATOM     23  C   UNL     1      -3.138 -10.002  10.775  0.00  0.00    +0.008 A 
ATOM     25  C   UNL     1      -5.181  -9.598  11.924  0.00  0.00    +0.115 A 
ATOM     29  C   UNL     1      -3.562  -9.129   9.779  0.00  0.00    +0.020 A 
ATOM     30  C   UNL     1      -4.804  -8.530   9.925  0.00  0.00    +0.111 A 
ENDBRANCH  13  19
ENDBRANCH   2  13
ENDBRANCH  14   9
TORSDOF 4
ENDMDL
MODEL 4
REMARK VINA RESULT:      -7.3      1.705      3.627
REMARK  Name = 51136858
REMARK  5 active torsions:
REMARK  status: ('A' for Active; 'I' for Inactive)
REMARK    1  A    between atoms: N_2  and  C_13
REMARK    2  A    between atoms: N_4  and  C_22
REMARK    3  A    between atoms: C_9  and  C_14
REMARK    4  A    between atoms: C_13  and  C_19
REMARK    5  A    between atoms: C_21  and  C_24
REMARK                            x       y       z     vdW  Elec       q    Type
REMARK                         _______ _______ _______ _____ _____    ______ ____
ROOT
ATOM      1  O   UNL     1      15.490   9.762  21.403  0.00  0.00    -0.336 OA
ATOM      5  N   UNL     1      15.587   7.547  21.083  0.00  0.00    -0.190 NA
ATOM      6  N   UNL     1      16.850   9.427  21.400  0.00  0.00    -0.056 NA
ATOM     14  C   UNL     1      14.816   8.597  21.211  0.00  0.00    +0.245 A 
ATOM     21  C   UNL     1      16.826   8.105  21.206  0.00  0.00    +0.204 A 
ENDROOT
BRANCH  21  24
ATOM      3  N   UNL     1      21.494   5.093  20.982  0.00  0.00    -0.313 N 
ATOM      4  N   UNL     1      23.917   3.585  21.109  0.00  0.00    -0.302 NA
ATOM      7  N   UNL     1      20.291   6.932  21.862  0.00  0.00    -0.240 NA
ATOM     15  C   UNL     1      22.775   5.774  21.210  0.00  0.00    +0.122 C 
ATOM     16  C   UNL     1      21.458   3.674  21.347  0.00  0.00    +0.122 C 
ATOM     17  C   UNL     1      23.928   4.965  20.612  0.00  0.00    +0.103 C 
ATOM     18  C   UNL     1      22.653   2.932  20.744  0.00  0.00    +0.103 C 
ATOM     20  C   UNL     1      20.324   5.856  21.043  0.00  0.00    +0.121 A 
ATOM     22  C   UNL     1      25.054   2.837  20.573  0.00  0.00    +0.105 C 
ATOM     24  C   UNL     1      18.018   7.314  21.132  0.00  0.00    +0.041 A 
ATOM     26  C   UNL     1      19.261   5.453  20.250  0.00  0.00    +0.044 A 
ATOM     27  C   UNL     1      18.090   6.201  20.302  0.00  0.00    +0.016 A 
ATOM     28  C   UNL     1      19.137   7.635  21.885  0.00  0.00    +0.124 A 
ENDBRANCH  21  24
BRANCH  14   9
ATOM      2  N   UNL     1      12.768   8.644  19.798  0.00  0.00    -0.287 NA
ATOM      9  C   UNL     1      13.305   8.691  21.173  0.00  0.00    +0.146 C 
ATOM     10  C   UNL     1      12.619   7.520  21.900  0.00  0.00    +0.030 C 
ATOM     11  C   UNL     1      11.671   6.915  20.874  0.00  0.00    +0.017 C 
ATOM     12  C   UNL     1      11.436   8.046  19.894  0.00  0.00    +0.085 C 
BRANCH   2  13
ATOM     13  C   UNL     1      12.738   9.949  19.150  0.00  0.00    +0.121 C 
BRANCH  13  19
ATOM      8  N   UNL     1      13.387   8.902  15.570  0.00  0.00    -0.263 NA
ATOM     19  C   UNL     1      13.338   9.904  17.770  0.00  0.00    -0.015 A 
ATOM     23  C   UNL     1      14.359  10.775  17.404  0.00  0.00    +0.008 A 
ATOM     25  C   UNL     1      12.892   8.995  16.825  0.00  0.00    +0.115 A 
ATOM     29  C   UNL     1      14.894  10.710  16.122  0.00  0.00    +0.020 A 
ATOM     30  C   UNL     1      14.377   9.764  15.250  0.00  0.00    +0.111 A 
ENDBRANCH  13  19
ENDBRANCH   2  13
ENDBRANCH  14   9
TORSDOF 4
ENDMDL
MODEL 5
REMARK VINA RESULT:      -7.2     27.350     31.460
REMARK  Name = 51136858
REMARK  5 active torsions:
REMARK  status: ('A' for Active; 'I' for Inactive)
REMARK    1  A    between atoms: N_2  and  C_13
REMARK    2  A    between atoms: N_4  and  C_22
REMARK    3  A    between atoms: C_9  and  C_14
REMARK    4  A    between atoms: C_13  and  C_19
REMARK    5  A    between atoms: C_21  and  C_24
REMARK                            x       y       z     vdW  Elec       q    Type
REMARK                         _______ _______ _______ _____ _____    ______ ____
ROOT
ATOM      1  O   UNL     1      -5.362  -9.540  15.886  0.00  0.00    -0.336 OA
ATOM      5  N   UNL     1      -5.900 -11.421  16.977  0.00  0.00    -0.190 NA
ATOM      6  N   UNL     1      -6.608  -9.303  16.481  0.00  0.00    -0.056 NA
ATOM     14  C   UNL     1      -5.018 -10.810  16.227  0.00  0.00    +0.245 A 
ATOM     21  C   UNL     1      -6.858 -10.457  17.106  0.00  0.00    +0.204 A 
ENDROOT
BRANCH  21  24
ATOM      3  N   UNL     1     -11.441 -11.365  20.120  0.00  0.00    -0.313 N 
ATOM      4  N   UNL     1     -13.661 -11.780  21.869  0.00  0.00    -0.302 NA
ATOM      7  N   UNL     1      -9.095 -11.547  19.867  0.00  0.00    -0.240 NA
ATOM     15  C   UNL     1     -11.475 -12.538  21.002  0.00  0.00    +0.122 C 
ATOM     16  C   UNL     1     -12.263 -10.228  20.547  0.00  0.00    +0.122 C 
ATOM     17  C   UNL     1     -12.919 -12.925  21.328  0.00  0.00    +0.103 C 
ATOM     18  C   UNL     1     -13.682 -10.689  20.888  0.00  0.00    +0.103 C 
ATOM     20  C   UNL     1     -10.284 -11.141  19.368  0.00  0.00    +0.121 A 
ATOM     22  C   UNL     1     -15.024 -12.175  22.228  0.00  0.00    +0.105 C 
ATOM     24  C   UNL     1      -8.053 -10.680  17.865  0.00  0.00    +0.041 A 
ATOM     26  C   UNL     1     -10.435 -10.507  18.144  0.00  0.00    +0.044 A 
ATOM     27  C   UNL     1      -9.294 -10.277  17.385  0.00  0.00    +0.016 A 
ATOM     28  C   UNL     1      -8.008 -11.306  19.101  0.00  0.00    +0.124 A 
ENDBRANCH  21  24
BRANCH  14   9
ATOM      2  N   UNL     1      -3.295 -10.658  14.437  0.00  0.00    -0.287 NA
ATOM      9  C   UNL     1      -3.691 -11.314  15.700  0.00  0.00    +0.146 C 
ATOM     10  C   UNL     1      -2.525 -11.037  16.666  0.00  0.00    +0.030 C 
ATOM     11  C   UNL     1      -1.497 -10.275  15.841  0.00  0.00    +0.017 C 
ATOM     12  C   UNL     1      -1.833 -10.655  14.413  0.00  0.00    +0.085 C 
BRANCH   2  13
ATOM     13  C   UNL     1      -3.862 -11.297  13.257  0.00  0.00    +0.121 C 
BRANCH  13  19
ATOM      8  N   UNL     1      -5.679  -8.684  11.208  0.00  0.00    -0.263 NA
ATOM     19  C   UNL     1      -4.160 -10.301  12.168  0.00  0.00    -0.015 A 
ATOM     23  C   UNL     1      -3.249 -10.064  11.144  0.00  0.00    +0.008 A 
ATOM     25  C   UNL     1      -5.350  -9.591  12.154  0.00  0.00    +0.115 A 
ATOM     29  C   UNL     1      -3.553  -9.138  10.152  0.00  0.00    +0.020 A 
ATOM     30  C   UNL     1      -4.770  -8.479  10.229  0.00  0.00    +0.111 A 
ENDBRANCH  13  19
ENDBRANCH   2  13
ENDBRANCH  14   9
TORSDOF 4
ENDMDL
MODEL 6
REMARK VINA RESULT:      -7.2      2.443     10.107
REMARK  Name = 51136858
REMARK  5 active torsions:
REMARK  status: ('A' for Active; 'I' for Inactive)
REMARK    1  A    between atoms: N_2  and  C_13
REMARK    2  A    between atoms: N_4  and  C_22
REMARK    3  A    between atoms: C_9  and  C_14
REMARK    4  A    between atoms: C_13  and  C_19
REMARK    5  A    between atoms: C_21  and  C_24
REMARK                            x       y       z     vdW  Elec       q    Type
REMARK                         _______ _______ _______ _____ _____    ______ ____
ROOT
ATOM      1  O   UNL     1      20.857   5.918  22.460  0.00  0.00    -0.336 OA
ATOM      5  N   UNL     1      20.093   5.224  20.473  0.00  0.00    -0.190 NA
ATOM      6  N   UNL     1      19.600   6.514  22.296  0.00  0.00    -0.056 NA
ATOM     14  C   UNL     1      21.070   5.177  21.342  0.00  0.00    +0.245 A 
ATOM     21  C   UNL     1      19.213   6.057  21.102  0.00  0.00    +0.204 A 
ENDROOT
BRANCH  21  24
ATOM      3  N   UNL     1      14.363   7.378  18.726  0.00  0.00    -0.313 N 
ATOM      4  N   UNL     1      11.857   7.824  17.428  0.00  0.00    -0.302 NA
ATOM      7  N   UNL     1      16.405   6.183  18.669  0.00  0.00    -0.240 NA
ATOM     15  C   UNL     1      14.284   7.385  17.259  0.00  0.00    +0.122 C 
ATOM     16  C   UNL     1      13.110   7.081  19.426  0.00  0.00    +0.122 C 
ATOM     17  C   UNL     1      13.109   8.246  16.789  0.00  0.00    +0.103 C 
ATOM     18  C   UNL     1      11.972   7.951  18.886  0.00  0.00    +0.103 C 
ATOM     20  C   UNL     1      15.585   7.041  19.316  0.00  0.00    +0.121 A 
ATOM     22  C   UNL     1      10.733   8.617  16.930  0.00  0.00    +0.105 C 
ATOM     24  C   UNL     1      17.958   6.412  20.509  0.00  0.00    +0.041 A 
ATOM     26  C   UNL     1      15.877   7.618  20.543  0.00  0.00    +0.044 A 
ATOM     27  C   UNL     1      17.088   7.291  21.143  0.00  0.00    +0.016 A 
ATOM     28  C   UNL     1      17.573   5.891  19.283  0.00  0.00    +0.124 A 
ENDBRANCH  21  24
BRANCH  14   9
ATOM      2  N   UNL     1      23.535   5.246  21.686  0.00  0.00    -0.287 NA
ATOM      9  C   UNL     1      22.381   4.421  21.274  0.00  0.00    +0.146 C 
ATOM     10  C   UNL     1      22.415   3.204  22.216  0.00  0.00    +0.030 C 
ATOM     11  C   UNL     1      23.654   3.403  23.078  0.00  0.00    +0.017 C 
ATOM     12  C   UNL     1      24.522   4.326  22.247  0.00  0.00    +0.085 C 
BRANCH   2  13
ATOM     13  C   UNL     1      24.085   6.046  20.599  0.00  0.00    +0.121 C 
BRANCH  13  19
ATOM      8  N   UNL     1      22.486   9.454  20.209  0.00  0.00    -0.263 NA
ATOM     19  C   UNL     1      23.807   7.514  20.785  0.00  0.00    -0.015 A 
ATOM     23  C   UNL     1      24.565   8.281  21.663  0.00  0.00    +0.008 A 
ATOM     25  C   UNL     1      22.788   8.142  20.088  0.00  0.00    +0.115 A 
ATOM     29  C   UNL     1      24.284   9.635  21.814  0.00  0.00    +0.020 A 
ATOM     30  C   UNL     1      23.243  10.169  21.071  0.00  0.00    +0.111 A 
ENDBRANCH  13  19
ENDBRANCH   2  13
ENDBRANCH  14   9
TORSDOF 4
ENDMDL
MODEL 7
REMARK VINA RESULT:      -7.2     30.084     32.174
REMARK  Name = 51136858
REMARK  5 active torsions:
REMARK  status: ('A' for Active; 'I' for Inactive)
REMARK    1  A    between atoms: N_2  and  C_13
REMARK    2  A    between atoms: N_4  and  C_22
REMARK    3  A    between atoms: C_9  and  C_14
REMARK    4  A    between atoms: C_13  and  C_19
REMARK    5  A    between atoms: C_21  and  C_24
REMARK                            x       y       z     vdW  Elec       q    Type
REMARK                         _______ _______ _______ _____ _____    ______ ____
ROOT
ATOM      1  O   UNL     1     -14.314  -5.402  13.649  0.00  0.00    -0.336 OA
ATOM      5  N   UNL     1     -12.083  -5.213  13.622  0.00  0.00    -0.190 NA
ATOM      6  N   UNL     1     -13.824  -6.462  14.423  0.00  0.00    -0.056 NA
ATOM     14  C   UNL     1     -13.224  -4.717  13.215  0.00  0.00    +0.245 A 
ATOM     21  C   UNL     1     -12.501  -6.282  14.360  0.00  0.00    +0.204 A 
ENDROOT
BRANCH  21  24
ATOM      3  N   UNL     1      -8.904  -9.716  16.846  0.00  0.00    -0.313 N 
ATOM      4  N   UNL     1      -6.970 -11.535  17.900  0.00  0.00    -0.302 NA
ATOM      7  N   UNL     1     -10.349  -9.237  15.034  0.00  0.00    -0.240 NA
ATOM     15  C   UNL     1      -9.061 -11.161  16.638  0.00  0.00    +0.122 C 
ATOM     16  C   UNL     1      -7.537  -9.261  17.116  0.00  0.00    +0.122 C 
ATOM     17  C   UNL     1      -8.372 -11.944  17.757  0.00  0.00    +0.103 C 
ATOM     18  C   UNL     1      -6.896 -10.105  18.219  0.00  0.00    +0.103 C 
ATOM     20  C   UNL     1      -9.810  -8.858  16.215  0.00  0.00    +0.121 A 
ATOM     22  C   UNL     1      -6.306 -12.328  18.935  0.00  0.00    +0.105 C 
ATOM     24  C   UNL     1     -11.572  -7.151  15.019  0.00  0.00    +0.041 A 
ATOM     26  C   UNL     1     -10.099  -7.661  16.851  0.00  0.00    +0.044 A 
ATOM     27  C   UNL     1     -10.997  -6.797  16.234  0.00  0.00    +0.016 A 
ATOM     28  C   UNL     1     -11.218  -8.372  14.466  0.00  0.00    +0.124 A 
ENDBRANCH  21  24
BRANCH  14   9
ATOM      2  N   UNL     1     -13.225  -3.765  10.915  0.00  0.00    -0.287 NA
ATOM      9  C   UNL     1     -13.490  -3.507  12.345  0.00  0.00    +0.146 C 
ATOM     10  C   UNL     1     -14.960  -3.052  12.393  0.00  0.00    +0.030 C 
ATOM     11  C   UNL     1     -15.417  -3.027  10.942  0.00  0.00    +0.017 C 
ATOM     12  C   UNL     1     -14.124  -2.892  10.163  0.00  0.00    +0.085 C 
BRANCH   2  13
ATOM     13  C   UNL     1     -11.829  -3.566  10.546  0.00  0.00    +0.121 C 
BRANCH  13  19
ATOM      8  N   UNL     1     -11.308  -7.141   9.419  0.00  0.00    -0.263 NA
ATOM     19  C   UNL     1     -11.265  -4.758   9.820  0.00  0.00    -0.015 A 
ATOM     23  C   UNL     1     -10.221  -4.617   8.912  0.00  0.00    +0.008 A 
ATOM     25  C   UNL     1     -11.768  -6.031  10.036  0.00  0.00    +0.115 A 
ATOM     29  C   UNL     1      -9.721  -5.737   8.257  0.00  0.00    +0.020 A 
ATOM     30  C   UNL     1     -10.294  -6.966   8.542  0.00  0.00    +0.111 A 
ENDBRANCH  13  19
ENDBRANCH   2  13
ENDBRANCH  14   9
TORSDOF 4
ENDMDL
MODEL 8
REMARK VINA RESULT:      -7.1     27.906     32.209
REMARK  Name = 51136858
REMARK  5 active torsions:
REMARK  status: ('A' for Active; 'I' for Inactive)
REMARK    1  A    between atoms: N_2  and  C_13
REMARK    2  A    between atoms: N_4  and  C_22
REMARK    3  A    between atoms: C_9  and  C_14
REMARK    4  A    between atoms: C_13  and  C_19
REMARK    5  A    between atoms: C_21  and  C_24
REMARK                            x       y       z     vdW  Elec       q    Type
REMARK                         _______ _______ _______ _____ _____    ______ ____
ROOT
ATOM      1  O   UNL     1     -15.030   3.839  24.217  0.00  0.00    -0.336 OA
ATOM      5  N   UNL     1     -15.738   4.504  22.199  0.00  0.00    -0.190 NA
ATOM      6  N   UNL     1     -14.048   4.709  23.727  0.00  0.00    -0.056 NA
ATOM     14  C   UNL     1     -15.988   3.773  23.256  0.00  0.00    +0.245 A 
ATOM     21  C   UNL     1     -14.537   5.059  22.534  0.00  0.00    +0.204 A 
ENDROOT
BRANCH  21  24
ATOM      3  N   UNL     1     -11.966   8.584  19.087  0.00  0.00    -0.313 N 
ATOM      4  N   UNL     1     -10.820  10.559  17.371  0.00  0.00    -0.302 NA
ATOM      7  N   UNL     1     -13.972   7.706  19.986  0.00  0.00    -0.240 NA
ATOM     15  C   UNL     1     -12.646   8.962  17.841  0.00  0.00    +0.122 C 
ATOM     16  C   UNL     1     -11.040   9.582  19.631  0.00  0.00    +0.122 C 
ATOM     17  C   UNL     1     -11.637   9.475  16.812  0.00  0.00    +0.103 C 
ATOM     18  C   UNL     1     -10.083  10.076  18.544  0.00  0.00    +0.103 C 
ATOM     20  C   UNL     1     -12.620   7.700  19.951  0.00  0.00    +0.121 A 
ATOM     22  C   UNL     1      -9.897  11.079  16.362  0.00  0.00    +0.105 C 
ATOM     24  C   UNL     1     -13.853   5.958  21.653  0.00  0.00    +0.041 A 
ATOM     26  C   UNL     1     -11.828   6.866  20.724  0.00  0.00    +0.044 A 
ATOM     27  C   UNL     1     -12.464   5.982  21.589  0.00  0.00    +0.016 A 
ATOM     28  C   UNL     1     -14.554   6.833  20.837  0.00  0.00    +0.124 A 
ENDBRANCH  21  24
BRANCH  14   9
ATOM      2  N   UNL     1     -17.446   2.751  24.996  0.00  0.00    -0.287 NA
ATOM      9  C   UNL     1     -17.178   2.884  23.549  0.00  0.00    +0.146 C 
ATOM     10  C   UNL     1     -18.490   3.431  22.958  0.00  0.00    +0.030 C 
ATOM     11  C   UNL     1     -19.452   3.516  24.135  0.00  0.00    +0.017 C 
ATOM     12  C   UNL     1     -18.884   2.526  25.132  0.00  0.00    +0.085 C 
BRANCH   2  13
ATOM     13  C   UNL     1     -16.663   1.698  25.630  0.00  0.00    +0.121 C 
BRANCH  13  19
ATOM      8  N   UNL     1     -16.457   1.120  29.365  0.00  0.00    -0.263 NA
ATOM     19  C   UNL     1     -16.455   1.959  27.098  0.00  0.00    -0.015 A 
ATOM     23  C   UNL     1     -16.084   3.219  27.557  0.00  0.00    +0.008 A 
ATOM     25  C   UNL     1     -16.628   0.953  28.035  0.00  0.00    +0.115 A 
ATOM     29  C   UNL     1     -15.899   3.429  28.919  0.00  0.00    +0.020 A 
ATOM     30  C   UNL     1     -16.096   2.357  29.774  0.00  0.00    +0.111 A 
ENDBRANCH  13  19
ENDBRANCH   2  13
ENDBRANCH  14   9
TORSDOF 4
ENDMDL
MODEL 9
REMARK VINA RESULT:      -6.8     15.981     20.131
REMARK  Name = 51136858
REMARK  5 active torsions:
REMARK  status: ('A' for Active; 'I' for Inactive)
REMARK    1  A    between atoms: N_2  and  C_13
REMARK    2  A    between atoms: N_4  and  C_22
REMARK    3  A    between atoms: C_9  and  C_14
REMARK    4  A    between atoms: C_13  and  C_19
REMARK    5  A    between atoms: C_21  and  C_24
REMARK                            x       y       z     vdW  Elec       q    Type
REMARK                         _______ _______ _______ _____ _____    ______ ____
ROOT
ATOM      1  O   UNL     1      10.044   4.459   5.720  0.00  0.00    -0.336 OA
ATOM      5  N   UNL     1      10.949   5.931   4.295  0.00  0.00    -0.190 NA
ATOM      6  N   UNL     1      10.168   3.790   4.496  0.00  0.00    -0.056 NA
ATOM     14  C   UNL     1      10.526   5.712   5.515  0.00  0.00    +0.245 A 
ATOM     21  C   UNL     1      10.709   4.723   3.707  0.00  0.00    +0.204 A 
ENDROOT
BRANCH  21  24
ATOM      3  N   UNL     1      12.001   3.746  -1.612  0.00  0.00    -0.313 N 
ATOM      4  N   UNL     1      12.758   3.027  -4.272  0.00  0.00    -0.302 NA
ATOM      7  N   UNL     1      12.545   3.575   0.685  0.00  0.00    -0.240 NA
ATOM     15  C   UNL     1      13.420   3.705  -1.989  0.00  0.00    +0.122 C 
ATOM     16  C   UNL     1      11.103   2.931  -2.437  0.00  0.00    +0.122 C 
ATOM     17  C   UNL     1      13.585   3.954  -3.490  0.00  0.00    +0.103 C 
ATOM     18  C   UNL     1      11.343   3.204  -3.924  0.00  0.00    +0.103 C 
ATOM     20  C   UNL     1      11.684   3.988  -0.272  0.00  0.00    +0.121 A 
ATOM     22  C   UNL     1      12.965   3.238  -5.704  0.00  0.00    +0.105 C 
ATOM     24  C   UNL     1      11.021   4.482   2.329  0.00  0.00    +0.041 A 
ATOM     26  C   UNL     1      10.491   4.644  -0.011  0.00  0.00    +0.044 A 
ATOM     27  C   UNL     1      10.161   4.891   1.317  0.00  0.00    +0.016 A 
ATOM     28  C   UNL     1      12.191   3.834   1.963  0.00  0.00    +0.124 A 
ENDBRANCH  21  24
BRANCH  14   9
ATOM      2  N   UNL     1       9.404   7.634   6.631  0.00  0.00    -0.287 NA
ATOM      9  C   UNL     1      10.502   6.648   6.705  0.00  0.00    +0.146 C 
ATOM     10  C   UNL     1      10.275   5.909   8.037  0.00  0.00    +0.030 C 
ATOM     11  C   UNL     1       9.067   6.588   8.667  0.00  0.00    +0.017 C 
ATOM     12  C   UNL     1       9.043   7.954   8.012  0.00  0.00    +0.085 C 
BRANCH   2  13
ATOM     13  C   UNL     1       9.752   8.823   5.865  0.00  0.00    +0.121 C 
BRANCH  13  19
ATOM      8  N   UNL     1       6.785  10.498   4.216  0.00  0.00    -0.263 NA
ATOM     19  C   UNL     1       8.698   9.161   4.844  0.00  0.00    -0.015 A 
ATOM     23  C   UNL     1       8.642   8.494   3.624  0.00  0.00    +0.008 A 
ATOM     25  C   UNL     1       7.755  10.146   5.088  0.00  0.00    +0.115 A 
ATOM     29  C   UNL     1       7.657   8.828   2.701  0.00  0.00    +0.020 A 
ATOM     30  C   UNL     1       6.760   9.829   3.042  0.00  0.00    +0.111 A 
ENDBRANCH  13  19
ENDBRANCH   2  13
ENDBRANCH  14   9
TORSDOF 4
ENDMDL
MODEL 10
REMARK VINA RESULT:      -6.6     27.793     30.923
REMARK  Name = 51136858
REMARK  5 active torsions:
REMARK  status: ('A' for Active; 'I' for Inactive)
REMARK    1  A    between atoms: N_2  and  C_13
REMARK    2  A    between atoms: N_4  and  C_22
REMARK    3  A    between atoms: C_9  and  C_14
REMARK    4  A    between atoms: C_13  and  C_19
REMARK    5  A    between atoms: C_21  and  C_24
REMARK                            x       y       z     vdW  Elec       q    Type
REMARK                         _______ _______ _______ _____ _____    ______ ____
ROOT
ATOM      1  O   UNL     1      -2.132 -10.028  11.370  0.00  0.00    -0.336 OA
ATOM      5  N   UNL     1      -4.162 -10.961  11.206  0.00  0.00    -0.190 NA
ATOM      6  N   UNL     1      -2.817  -9.301  10.388  0.00  0.00    -0.056 NA
ATOM     14  C   UNL     1      -2.995 -10.986  11.799  0.00  0.00    +0.245 A 
ATOM     21  C   UNL     1      -4.005  -9.911  10.348  0.00  0.00    +0.204 A 
ENDROOT
BRANCH  21  24
ATOM      3  N   UNL     1      -8.110  -8.246   6.987  0.00  0.00    -0.313 N 
ATOM      4  N   UNL     1     -10.177  -7.162   5.340  0.00  0.00    -0.302 NA
ATOM      7  N   UNL     1      -6.956  -8.063   9.045  0.00  0.00    -0.240 NA
ATOM     15  C   UNL     1      -9.350  -7.746   7.595  0.00  0.00    +0.122 C 
ATOM     16  C   UNL     1      -7.786  -7.698   5.666  0.00  0.00    +0.122 C 
ATOM     17  C   UNL     1     -10.510  -7.836   6.600  0.00  0.00    +0.103 C 
ATOM     18  C   UNL     1      -8.996  -7.788   4.734  0.00  0.00    +0.103 C 
ATOM     20  C   UNL     1      -7.080  -8.660   7.838  0.00  0.00    +0.121 A 
ATOM     22  C   UNL     1     -11.312  -7.207   4.419  0.00  0.00    +0.105 C 
ATOM     24  C   UNL     1      -5.056  -9.499   9.465  0.00  0.00    +0.041 A 
ATOM     26  C   UNL     1      -6.245  -9.667   7.381  0.00  0.00    +0.044 A 
ATOM     27  C   UNL     1      -5.216 -10.088   8.216  0.00  0.00    +0.016 A 
ATOM     28  C   UNL     1      -5.945  -8.500   9.829  0.00  0.00    +0.124 A 
ENDBRANCH  21  24
BRANCH  14   9
ATOM      2  N   UNL     1      -3.364 -11.944  14.067  0.00  0.00    -0.287 NA
ATOM      9  C   UNL     1      -2.486 -11.917  12.879  0.00  0.00    +0.146 C 
ATOM     10  C   UNL     1      -2.414 -13.383  12.414  0.00  0.00    +0.030 C 
ATOM     11  C   UNL     1      -3.230 -14.165  13.434  0.00  0.00    +0.017 C 
ATOM     12  C   UNL     1      -3.218 -13.273  14.659  0.00  0.00    +0.085 C 
BRANCH   2  13
ATOM     13  C   UNL     1      -3.069 -10.883  15.021  0.00  0.00    +0.121 C 
BRANCH  13  19
ATOM      8  N   UNL     1      -6.443  -9.718  16.282  0.00  0.00    -0.263 NA
ATOM     19  C   UNL     1      -4.227 -10.624  15.948  0.00  0.00    -0.015 A 
ATOM     23  C   UNL     1      -4.183 -11.026  17.279  0.00  0.00    +0.008 A 
ATOM     25  C   UNL     1      -5.370  -9.980  15.503  0.00  0.00    +0.115 A 
ATOM     29  C   UNL     1      -5.268 -10.774  18.111  0.00  0.00    +0.020 A 
ATOM     30  C   UNL     1      -6.365 -10.123  17.569  0.00  0.00    +0.111 A 
ENDBRANCH  13  19
ENDBRANCH   2  13
ENDBRANCH  14   9
TORSDOF 4
ENDMDL
