REMARK  Name = 7144075
REMARK  5 active torsions:
REMARK  status: ('A' for Active; 'I' for Inactive)
REMARK    1  A    between atoms: O_3  and  C_19
REMARK    2  A    between atoms: N_4  and  C_13
REMARK    3  A    between atoms: C_13  and  C_18
REMARK    4  A    between atoms: C_16  and  C_20
REMARK    5  A    between atoms: C_24  and  C_26
REMARK                            x       y       z     vdW  Elec       q    Type
REMARK                         _______ _______ _______ _____ _____    ______ ____
ROOT
ATOM      2  O   UNL     1       1.033   2.426   1.534  0.00  0.00    -0.267 OA
ATOM      4  N   UNL     1      -3.563   0.657   0.633  0.00  0.00    -0.297 NA
ATOM      5  N   UNL     1      -0.801   2.171   0.118  0.00  0.00    -0.311 N 
ATOM      6  C   UNL     1      -3.116   3.124   0.671  0.00  0.00    +0.024 C 
ATOM      7  C   UNL     1      -2.782   1.872  -1.406  0.00  0.00    +0.050 C 
ATOM      8  C   UNL     1      -3.283   3.198  -0.841  0.00  0.00    +0.017 C 
ATOM      9  C   UNL     1      -3.934   1.943   1.236  0.00  0.00    +0.090 C 
ATOM     10  C   UNL     1      -3.631   0.713  -0.835  0.00  0.00    +0.094 C 
ATOM     11  C   UNL     1      -1.621   3.015   1.000  0.00  0.00    +0.130 C 
ATOM     12  C   UNL     1      -1.315   1.667  -1.079  0.00  0.00    +0.026 A 
ATOM     14  C   UNL     1      -0.518   0.991  -1.921  0.00  0.00    +0.022 A 
ATOM     15  C   UNL     1       0.544   1.981   0.494  0.00  0.00    +0.259 A 
ATOM     16  C   UNL     1       1.407   1.196  -0.458  0.00  0.00    +0.040 A 
ATOM     17  C   UNL     1       0.861   0.754  -1.600  0.00  0.00    +0.015 A 
ENDROOT
BRANCH  16  20
ATOM     20  C   UNL     1       2.789   0.945  -0.137  0.00  0.00    +0.014 C 
ATOM     24  C   UNL     1       3.444  -0.147  -0.548  0.00  0.00    +0.008 C 
BRANCH  24  26
ATOM      1 CL   UNL     1       9.145  -1.379   0.707  0.00  0.00    -0.084 Cl
ATOM     26  C   UNL     1       4.852  -0.452  -0.238  0.00  0.00    -0.025 A 
ATOM     27  C   UNL     1       5.697   0.573   0.155  0.00  0.00    +0.009 A 
ATOM     28  C   UNL     1       5.304  -1.757  -0.345  0.00  0.00    +0.009 A 
ATOM     29  C   UNL     1       7.030   0.285   0.448  0.00  0.00    +0.020 A 
ATOM     30  C   UNL     1       6.637  -2.045  -0.052  0.00  0.00    +0.020 A 
ATOM     31  C   UNL     1       7.500  -1.024   0.345  0.00  0.00    +0.041 A 
ENDBRANCH  24  26
ENDBRANCH  16  20
BRANCH   4  13
ATOM     13  C   UNL     1      -4.394  -0.425   1.155  0.00  0.00    +0.123 C 
BRANCH  13  18
ATOM     18  C   UNL     1      -3.944  -1.758   0.621  0.00  0.00    +0.008 A 
ATOM     19  C   UNL     1      -4.875  -2.677   0.153  0.00  0.00    +0.121 A 
ATOM     21  C   UNL     1      -2.586  -2.050   0.605  0.00  0.00    +0.008 A 
ATOM     22  C   UNL     1      -4.441  -3.908  -0.338  0.00  0.00    +0.046 A 
ATOM     23  C   UNL     1      -2.152  -3.281   0.114  0.00  0.00    +0.001 A 
ATOM     25  C   UNL     1      -3.079  -4.210  -0.358  0.00  0.00    +0.004 A 
BRANCH  19   3
ATOM      3  O   UNL     1      -6.208  -2.398   0.165  0.00  0.00    -0.506 OA
ATOM     32  H   UNL     1      -6.695  -3.157  -0.199  0.00  0.00    +0.292 HD
ENDBRANCH  19   3
ENDBRANCH  13  18
ENDBRANCH   4  13
TORSDOF 5
