REMARK  Name = 25389662
REMARK  7 active torsions:
REMARK  status: ('A' for Active; 'I' for Inactive)
REMARK    1  A    between atoms: O_2  and  C_19
REMARK    2  A    between atoms: O_2  and  C_31
REMARK    3  A    between atoms: N_6  and  C_10
REMARK    4  A    between atoms: N_6  and  C_20
REMARK    5  A    between atoms: C_8  and  C_16
REMARK    6  A    between atoms: C_12  and  C_19
REMARK    7  A    between atoms: C_20  and  C_26
REMARK                            x       y       z     vdW  Elec       q    Type
REMARK                         _______ _______ _______ _____ _____    ______ ____
ROOT
ATOM      4  N   UNL     1      -0.820  -0.681   0.203  0.00  0.00    -0.274 NA
ATOM      5  N   UNL     1      -2.055   2.837  -0.249  0.00  0.00    -0.356 N 
ATOM      7  C   UNL     1      -0.721   0.661  -0.450  0.00  0.00    +0.106 C 
ATOM      8  C   UNL     1       0.325  -1.557  -0.154  0.00  0.00    +0.093 C 
ATOM      9  C   UNL     1       0.590   1.361  -0.058  0.00  0.00    +0.044 C 
ATOM     10  C   UNL     1       1.792   0.505  -0.457  0.00  0.00    +0.058 C 
ATOM     11  C   UNL     1       1.673  -0.876   0.185  0.00  0.00    +0.042 C 
ATOM     12  C   UNL     1      -2.160  -1.308   0.039  0.00  0.00    +0.172 C 
ATOM     13  C   UNL     1      -1.919   1.487  -0.086  0.00  0.00    +0.038 A 
ATOM     14  C   UNL     1      -3.293  -0.460   0.672  0.00  0.00    +0.068 C 
ATOM     15  C   UNL     1      -3.106   0.993   0.408  0.00  0.00    -0.016 A 
ATOM     17  C   UNL     1      -3.992   2.089   0.588  0.00  0.00    +0.003 A 
ATOM     18  C   UNL     1      -3.308   3.235   0.169  0.00  0.00    +0.047 A 
ATOM     23  C   UNL     1      -5.312   2.225   1.062  0.00  0.00    +0.010 A 
ATOM     24  C   UNL     1      -3.882   4.510   0.203  0.00  0.00    +0.026 A 
ATOM     25  C   UNL     1      -5.897   3.495   1.103  0.00  0.00    +0.001 A 
ATOM     29  C   UNL     1      -5.191   4.619   0.679  0.00  0.00    +0.002 A 
ATOM     37  H   UNL     1      -1.349   3.459  -0.618  0.00  0.00    +0.166 HD
ENDROOT
BRANCH   8  16
ATOM      1  F   UNL     1       0.259  -4.029  -1.560  0.00  0.00    -0.205 F 
ATOM     16  C   UNL     1       0.308  -2.918   0.537  0.00  0.00    +0.005 A 
ATOM     21  C   UNL     1       0.275  -4.088  -0.221  0.00  0.00    +0.128 A 
ATOM     22  C   UNL     1       0.325  -2.990   1.930  0.00  0.00    +0.008 A 
ATOM     27  C   UNL     1       0.260  -5.330   0.413  0.00  0.00    +0.038 A 
ATOM     28  C   UNL     1       0.310  -4.232   2.564  0.00  0.00    +0.000 A 
ATOM     30  C   UNL     1       0.277  -5.402   1.806  0.00  0.00    +0.003 A 
ENDBRANCH   8  16
BRANCH  12  19
ATOM      3  O   UNL     1      -1.667  -1.311  -2.321  0.00  0.00    -0.249 OA
ATOM     19  C   UNL     1      -2.440  -1.581  -1.412  0.00  0.00    +0.325 C 
BRANCH  19   2
ATOM      2  O   UNL     1      -3.666  -2.163  -1.538  0.00  0.00    -0.467 OA
ATOM     31  C   UNL     1      -4.062  -2.479  -2.876  0.00  0.00    +0.280 C 
ENDBRANCH  19   2
ENDBRANCH  12  19
BRANCH  10   6
ATOM      6  N   UNL     1       3.033   1.163  -0.051  0.00  0.00    -0.309 NA
ATOM     38  H   UNL     1       2.951   2.167  -0.214  0.00  0.00    +0.123 HD
BRANCH   6  20
ATOM     20  C   UNL     1       4.160   0.657  -0.821  0.00  0.00    +0.116 C 
BRANCH  20  26
ATOM     26  C   UNL     1       5.453   1.317  -0.421  0.00  0.00    -0.034 A 
ATOM     32  C   UNL     1       5.870   2.481  -1.066  0.00  0.00    +0.005 A 
ATOM     33  C   UNL     1       6.233   0.763   0.594  0.00  0.00    +0.005 A 
ATOM     34  C   UNL     1       7.068   3.092  -0.696  0.00  0.00    +0.000 A 
ATOM     35  C   UNL     1       7.431   1.375   0.964  0.00  0.00    +0.000 A 
ATOM     36  C   UNL     1       7.849   2.539   0.319  0.00  0.00    +0.000 A 
ENDBRANCH  20  26
ENDBRANCH   6  20
ENDBRANCH  10   6
TORSDOF 6
