MODEL 1
REMARK VINA RESULT:      -7.0      0.000      0.000
REMARK  Name = 26743066
REMARK  7 active torsions:
REMARK  status: ('A' for Active; 'I' for Inactive)
REMARK    1  A    between atoms: O_4  and  C_34
REMARK    2  A    between atoms: N_8  and  C_16
REMARK    3  A    between atoms: C_11  and  C_14
REMARK    4  A    between atoms: C_12  and  C_18
REMARK    5  A    between atoms: C_14  and  C_23
REMARK    6  A    between atoms: C_18  and  C_24
REMARK    7  A    between atoms: C_31  and  C_34
REMARK                            x       y       z     vdW  Elec       q    Type
REMARK                         _______ _______ _______ _____ _____    ______ ____
ROOT
ATOM      1  O   UNL     1      11.622   7.201  20.174  0.00  0.00    -0.276 OA
ATOM      6  N   UNL     1      13.907   6.883  19.894  0.00  0.00    -0.301 N 
ATOM     16  C   UNL     1      16.504   7.375  21.074  0.00  0.00    +0.095 C 
ATOM     19  C   UNL     1      15.219   7.431  21.906  0.00  0.00    +0.044 C 
ATOM     20  C   UNL     1      16.212   7.707  19.607  0.00  0.00    +0.044 C 
ATOM     21  C   UNL     1      14.131   6.547  21.301  0.00  0.00    +0.110 C 
ATOM     22  C   UNL     1      15.104   6.819  19.047  0.00  0.00    +0.110 C 
ATOM     23  C   UNL     1      12.620   7.190  19.450  0.00  0.00    +0.216 C 
ENDROOT
BRANCH  16   8
ATOM      3  O   UNL     1      16.344  10.344  21.579  0.00  0.00    -0.247 OA
ATOM      8  N   UNL     1      17.500   8.266  21.615  0.00  0.00    -0.289 N 
ATOM      9  N   UNL     1      18.564  10.120  22.365  0.00  0.00    -0.306 N 
ATOM     25  C   UNL     1      18.786   7.891  22.025  0.00  0.00    +0.070 A 
ATOM     26  C   UNL     1      17.332   9.662  21.818  0.00  0.00    +0.328 A 
ATOM     27  C   UNL     1      19.434   9.036  22.484  0.00  0.00    +0.067 A 
ATOM     29  C   UNL     1      19.408   6.661  22.024  0.00  0.00    +0.028 A 
ATOM     30  C   UNL     1      20.726   9.011  22.962  0.00  0.00    +0.028 A 
ATOM     32  C   UNL     1      20.721   6.610  22.505  0.00  0.00    +0.002 A 
ATOM     33  C   UNL     1      21.373   7.773  22.969  0.00  0.00    +0.002 A 
ATOM     36  H   UNL     1      18.785  11.072  22.628  0.00  0.00    +0.170 HD
ENDBRANCH  16   8
BRANCH  23  14
ATOM     14  C   UNL     1      12.473   7.528  17.987  0.00  0.00    +0.100 C 
BRANCH  14  11
ATOM      7  N   UNL     1      12.536  10.221  15.343  0.00  0.00    -0.316 NA
ATOM     11  C   UNL     1      11.726   8.857  17.830  0.00  0.00    +0.004 C 
ATOM     12  C   UNL     1      12.646  10.100  17.820  0.00  0.00    +0.012 C 
ATOM     13  C   UNL     1      10.870   8.857  16.552  0.00  0.00    +0.019 C 
ATOM     15  C   UNL     1      13.429  10.217  16.502  0.00  0.00    +0.085 C 
ATOM     17  C   UNL     1      11.712   9.016  15.287  0.00  0.00    +0.081 C 
ATOM     35  H   UNL     1      13.091  10.292  14.490  0.00  0.00    +0.122 HD
BRANCH  12  18
ATOM     18  C   UNL     1      13.598  10.150  19.016  0.00  0.00    +0.064 C 
BRANCH  18  24
ATOM      2  O   UNL     1      12.074  12.410  21.369  0.00  0.00    -0.348 OA
ATOM     10  N   UNL     1      12.629  12.116  20.129  0.00  0.00    -0.082 NA
ATOM     24  C   UNL     1      12.959  10.823  20.197  0.00  0.00    +0.085 A 
ATOM     28  C   UNL     1      12.640  10.255  21.443  0.00  0.00    +0.083 A 
ATOM     31  C   UNL     1      12.087  11.294  22.142  0.00  0.00    +0.244 A 
BRANCH  31  34
ATOM      5  O   UNL     1      12.195  11.666  24.504  0.00  0.00    -0.242 OA
ATOM     34  C   UNL     1      11.559  11.382  23.459  0.00  0.00    +0.375 C 
BRANCH  34   4
ATOM      4  O   UNL     1      10.212  11.118  23.535  0.00  0.00    -0.475 OA
ATOM     37  H   UNL     1       9.924  10.977  24.462  0.00  0.00    +0.296 HD
ENDBRANCH  34   4
ENDBRANCH  31  34
ENDBRANCH  18  24
ENDBRANCH  12  18
ENDBRANCH  14  11
ENDBRANCH  23  14
TORSDOF 7
ENDMDL
MODEL 2
REMARK VINA RESULT:      -7.0     27.442     30.017
REMARK  Name = 26743066
REMARK  7 active torsions:
REMARK  status: ('A' for Active; 'I' for Inactive)
REMARK    1  A    between atoms: O_4  and  C_34
REMARK    2  A    between atoms: N_8  and  C_16
REMARK    3  A    between atoms: C_11  and  C_14
REMARK    4  A    between atoms: C_12  and  C_18
REMARK    5  A    between atoms: C_14  and  C_23
REMARK    6  A    between atoms: C_18  and  C_24
REMARK    7  A    between atoms: C_31  and  C_34
REMARK                            x       y       z     vdW  Elec       q    Type
REMARK                         _______ _______ _______ _____ _____    ______ ____
ROOT
ATOM      1  O   UNL     1      -8.163 -13.459  15.252  0.00  0.00    -0.276 OA
ATOM      6  N   UNL     1      -8.343 -11.390  14.211  0.00  0.00    -0.301 N 
ATOM     16  C   UNL     1      -7.611  -9.881  11.852  0.00  0.00    +0.095 C 
ATOM     19  C   UNL     1      -7.592 -11.412  11.864  0.00  0.00    +0.044 C 
ATOM     20  C   UNL     1      -7.386  -9.326  13.262  0.00  0.00    +0.044 C 
ATOM     21  C   UNL     1      -8.580 -11.968  12.887  0.00  0.00    +0.110 C 
ATOM     22  C   UNL     1      -8.378  -9.923  14.258  0.00  0.00    +0.110 C 
ATOM     23  C   UNL     1      -8.150 -12.227  15.310  0.00  0.00    +0.216 C 
ENDROOT
BRANCH  16   8
ATOM      3  O   UNL     1      -7.996  -8.232   9.357  0.00  0.00    -0.247 OA
ATOM      8  N   UNL     1      -6.625  -9.367  10.933  0.00  0.00    -0.289 N 
ATOM      9  N   UNL     1      -5.638  -8.317   9.185  0.00  0.00    -0.306 N 
ATOM     25  C   UNL     1      -5.241  -9.552  11.043  0.00  0.00    +0.070 A 
ATOM     26  C   UNL     1      -6.905  -8.594   9.775  0.00  0.00    +0.328 A 
ATOM     27  C   UNL     1      -4.641  -8.904   9.965  0.00  0.00    +0.067 A 
ATOM     29  C   UNL     1      -4.494 -10.225  11.986  0.00  0.00    +0.028 A 
ATOM     30  C   UNL     1      -3.277  -8.895   9.775  0.00  0.00    +0.028 A 
ATOM     32  C   UNL     1      -3.106 -10.230  11.816  0.00  0.00    +0.002 A 
ATOM     33  C   UNL     1      -2.504  -9.572  10.722  0.00  0.00    +0.002 A 
ATOM     36  H   UNL     1      -5.475  -7.784   8.340  0.00  0.00    +0.170 HD
ENDBRANCH  16   8
BRANCH  23  14
ATOM     14  C   UNL     1      -7.909 -11.554  16.638  0.00  0.00    +0.100 C 
BRANCH  14  11
ATOM      7  N   UNL     1      -6.438 -11.142  20.090  0.00  0.00    -0.316 NA
ATOM     11  C   UNL     1      -6.750 -12.241  17.370  0.00  0.00    +0.004 C 
ATOM     12  C   UNL     1      -5.597 -11.285  17.759  0.00  0.00    +0.012 C 
ATOM     13  C   UNL     1      -7.250 -12.964  18.632  0.00  0.00    +0.019 C 
ATOM     15  C   UNL     1      -5.988 -10.371  18.931  0.00  0.00    +0.085 C 
ATOM     17  C   UNL     1      -7.580 -11.994  19.766  0.00  0.00    +0.081 C 
ATOM     35  H   UNL     1      -6.695 -10.503  20.842  0.00  0.00    +0.122 HD
BRANCH  12  18
ATOM     18  C   UNL     1      -5.083 -10.457  16.580  0.00  0.00    +0.064 C 
BRANCH  18  24
ATOM      2  O   UNL     1      -1.880 -11.476  15.287  0.00  0.00    -0.348 OA
ATOM     10  N   UNL     1      -2.693 -10.626  16.026  0.00  0.00    -0.082 NA
ATOM     24  C   UNL     1      -3.924 -11.131  15.902  0.00  0.00    +0.085 A 
ATOM     28  C   UNL     1      -3.949 -12.287  15.103  0.00  0.00    +0.083 A 
ATOM     31  C   UNL     1      -2.640 -12.461  14.741  0.00  0.00    +0.244 A 
BRANCH  31  34
ATOM      5  O   UNL     1      -2.081 -14.689  14.071  0.00  0.00    -0.242 OA
ATOM     34  C   UNL     1      -1.995 -13.443  13.941  0.00  0.00    +0.375 C 
BRANCH  34   4
ATOM      4  O   UNL     1      -1.213 -12.917  12.941  0.00  0.00    -0.475 OA
ATOM     37  H   UNL     1      -0.455 -13.503  12.730  0.00  0.00    +0.296 HD
ENDBRANCH  34   4
ENDBRANCH  31  34
ENDBRANCH  18  24
ENDBRANCH  12  18
ENDBRANCH  14  11
ENDBRANCH  23  14
TORSDOF 7
ENDMDL
MODEL 3
REMARK VINA RESULT:      -6.9     13.103     15.234
REMARK  Name = 26743066
REMARK  7 active torsions:
REMARK  status: ('A' for Active; 'I' for Inactive)
REMARK    1  A    between atoms: O_4  and  C_34
REMARK    2  A    between atoms: N_8  and  C_16
REMARK    3  A    between atoms: C_11  and  C_14
REMARK    4  A    between atoms: C_12  and  C_18
REMARK    5  A    between atoms: C_14  and  C_23
REMARK    6  A    between atoms: C_18  and  C_24
REMARK    7  A    between atoms: C_31  and  C_34
REMARK                            x       y       z     vdW  Elec       q    Type
REMARK                         _______ _______ _______ _____ _____    ______ ____
ROOT
ATOM      1  O   UNL     1      11.619  11.456   5.858  0.00  0.00    -0.276 OA
ATOM      6  N   UNL     1      13.256   9.936   6.497  0.00  0.00    -0.301 N 
ATOM     16  C   UNL     1      15.963   9.052   5.978  0.00  0.00    +0.095 C 
ATOM     19  C   UNL     1      15.472  10.435   5.541  0.00  0.00    +0.044 C 
ATOM     20  C   UNL     1      14.797   8.063   6.054  0.00  0.00    +0.044 C 
ATOM     21  C   UNL     1      14.334  10.925   6.434  0.00  0.00    +0.110 C 
ATOM     22  C   UNL     1      13.672   8.599   6.937  0.00  0.00    +0.110 C 
ATOM     23  C   UNL     1      11.949  10.315   6.190  0.00  0.00    +0.216 C 
ENDROOT
BRANCH  16   8
ATOM      3  O   UNL     1      15.765   8.294   3.066  0.00  0.00    -0.247 OA
ATOM      8  N   UNL     1      16.989   8.571   5.086  0.00  0.00    -0.289 N 
ATOM      9  N   UNL     1      18.075   7.814   3.247  0.00  0.00    -0.306 N 
ATOM     25  C   UNL     1      18.330   8.360   5.431  0.00  0.00    +0.070 A 
ATOM     26  C   UNL     1      16.799   8.237   3.719  0.00  0.00    +0.328 A 
ATOM     27  C   UNL     1      18.991   7.895   4.296  0.00  0.00    +0.067 A 
ATOM     29  C   UNL     1      18.991   8.539   6.628  0.00  0.00    +0.028 A 
ATOM     30  C   UNL     1      20.334   7.588   4.298  0.00  0.00    +0.028 A 
ATOM     32  C   UNL     1      20.356   8.234   6.655  0.00  0.00    +0.002 A 
ATOM     33  C   UNL     1      21.020   7.763   5.502  0.00  0.00    +0.002 A 
ATOM     36  H   UNL     1      18.294   7.504   2.309  0.00  0.00    +0.170 HD
ENDBRANCH  16   8
BRANCH  23  14
ATOM     14  C   UNL     1      10.896   9.238   6.275  0.00  0.00    +0.100 C 
BRANCH  14  11
ATOM      7  N   UNL     1       7.753   7.833   4.726  0.00  0.00    -0.316 NA
ATOM     11  C   UNL     1      10.564   8.718   4.871  0.00  0.00    +0.004 C 
ATOM     12  C   UNL     1      10.159   7.226   4.831  0.00  0.00    +0.012 C 
ATOM     13  C   UNL     1       9.448   9.559   4.227  0.00  0.00    +0.019 C 
ATOM     15  C   UNL     1       8.750   7.004   5.406  0.00  0.00    +0.085 C 
ATOM     17  C   UNL     1       8.074   9.256   4.821  0.00  0.00    +0.081 C 
ATOM     35  H   UNL     1       6.836   7.664   5.139  0.00  0.00    +0.122 HD
BRANCH  12  18
ATOM     18  C   UNL     1      11.171   6.312   5.523  0.00  0.00    +0.064 C 
BRANCH  18  24
ATOM      2  O   UNL     1       9.493   4.020   7.737  0.00  0.00    -0.348 OA
ATOM     10  N   UNL     1       9.951   4.406   6.482  0.00  0.00    -0.082 NA
ATOM     24  C   UNL     1      10.549   5.584   6.680  0.00  0.00    +0.085 A 
ATOM     28  C   UNL     1      10.500   5.988   8.025  0.00  0.00    +0.083 A 
ATOM     31  C   UNL     1       9.826   4.971   8.647  0.00  0.00    +0.244 A 
BRANCH  31  34
ATOM      5  O   UNL     1       8.282   4.595  10.436  0.00  0.00    -0.242 OA
ATOM     34  C   UNL     1       9.448   4.768  10.002  0.00  0.00    +0.375 C 
BRANCH  34   4
ATOM      4  O   UNL     1      10.506   4.770  10.879  0.00  0.00    -0.475 OA
ATOM     37  H   UNL     1      11.119   4.024  10.706  0.00  0.00    +0.296 HD
ENDBRANCH  34   4
ENDBRANCH  31  34
ENDBRANCH  18  24
ENDBRANCH  12  18
ENDBRANCH  14  11
ENDBRANCH  23  14
TORSDOF 7
ENDMDL
MODEL 4
REMARK VINA RESULT:      -6.9      4.060      7.096
REMARK  Name = 26743066
REMARK  7 active torsions:
REMARK  status: ('A' for Active; 'I' for Inactive)
REMARK    1  A    between atoms: O_4  and  C_34
REMARK    2  A    between atoms: N_8  and  C_16
REMARK    3  A    between atoms: C_11  and  C_14
REMARK    4  A    between atoms: C_12  and  C_18
REMARK    5  A    between atoms: C_14  and  C_23
REMARK    6  A    between atoms: C_18  and  C_24
REMARK    7  A    between atoms: C_31  and  C_34
REMARK                            x       y       z     vdW  Elec       q    Type
REMARK                         _______ _______ _______ _____ _____    ______ ____
ROOT
ATOM      1  O   UNL     1      13.328  11.535  20.101  0.00  0.00    -0.276 OA
ATOM      6  N   UNL     1      12.169  11.589  22.114  0.00  0.00    -0.301 N 
ATOM     16  C   UNL     1      11.911  12.993  24.632  0.00  0.00    +0.095 C 
ATOM     19  C   UNL     1      12.575  13.643  23.414  0.00  0.00    +0.044 C 
ATOM     20  C   UNL     1      12.048  11.469  24.573  0.00  0.00    +0.044 C 
ATOM     21  C   UNL     1      12.042  13.048  22.113  0.00  0.00    +0.110 C 
ATOM     22  C   UNL     1      11.526  10.916  23.249  0.00  0.00    +0.110 C 
ATOM     23  C   UNL     1      12.827  10.949  21.064  0.00  0.00    +0.216 C 
ENDROOT
BRANCH  16   8
ATOM      3  O   UNL     1      10.882  15.186  26.428  0.00  0.00    -0.247 OA
ATOM      8  N   UNL     1      12.472  13.514  25.855  0.00  0.00    -0.289 N 
ATOM      9  N   UNL     1      12.798  14.730  27.738  0.00  0.00    -0.306 N 
ATOM     25  C   UNL     1      13.656  13.069  26.457  0.00  0.00    +0.070 A 
ATOM     26  C   UNL     1      11.910  14.557  26.638  0.00  0.00    +0.328 A 
ATOM     27  C   UNL     1      13.850  13.821  27.614  0.00  0.00    +0.067 A 
ATOM     29  C   UNL     1      14.546  12.087  26.078  0.00  0.00    +0.028 A 
ATOM     30  C   UNL     1      14.932  13.633  28.444  0.00  0.00    +0.028 A 
ATOM     32  C   UNL     1      15.654  11.876  26.905  0.00  0.00    +0.002 A 
ATOM     33  C   UNL     1      15.845  12.642  28.076  0.00  0.00    +0.002 A 
ATOM     36  H   UNL     1      12.694  15.397  28.492  0.00  0.00    +0.170 HD
ENDBRANCH  16   8
BRANCH  23  14
ATOM     14  C   UNL     1      12.918   9.445  21.140  0.00  0.00    +0.100 C 
BRANCH  14  11
ATOM      7  N   UNL     1      11.523   5.964  20.707  0.00  0.00    -0.316 NA
ATOM     11  C   UNL     1      11.995   8.811  20.093  0.00  0.00    +0.004 C 
ATOM     12  C   UNL     1      12.650   7.663  19.289  0.00  0.00    +0.012 C 
ATOM     13  C   UNL     1      10.702   8.294  20.745  0.00  0.00    +0.019 C 
ATOM     15  C   UNL     1      12.802   6.390  20.138  0.00  0.00    +0.085 C 
ATOM     17  C   UNL     1      10.923   7.007  21.538  0.00  0.00    +0.081 C 
ATOM     35  H   UNL     1      11.666   5.125  21.268  0.00  0.00    +0.122 HD
BRANCH  12  18
ATOM     18  C   UNL     1      13.990   8.057  18.666  0.00  0.00    +0.064 C 
BRANCH  18  24
ATOM      2  O   UNL     1      13.273   8.990  15.263  0.00  0.00    -0.348 OA
ATOM     10  N   UNL     1      13.321   8.066  16.300  0.00  0.00    -0.082 NA
ATOM     24  C   UNL     1      13.797   8.747  17.346  0.00  0.00    +0.085 A 
ATOM     28  C   UNL     1      14.066  10.091  17.031  0.00  0.00    +0.083 A 
ATOM     31  C   UNL     1      13.719  10.191  15.710  0.00  0.00    +0.244 A 
BRANCH  31  34
ATOM      5  O   UNL     1      14.683  12.108  14.650  0.00  0.00    -0.242 OA
ATOM     34  C   UNL     1      13.750  11.281  14.798  0.00  0.00    +0.375 C 
BRANCH  34   4
ATOM      4  O   UNL     1      12.617  11.390  14.027  0.00  0.00    -0.475 OA
ATOM     37  H   UNL     1      11.808  11.185  14.543  0.00  0.00    +0.296 HD
ENDBRANCH  34   4
ENDBRANCH  31  34
ENDBRANCH  18  24
ENDBRANCH  12  18
ENDBRANCH  14  11
ENDBRANCH  23  14
TORSDOF 7
ENDMDL
MODEL 5
REMARK VINA RESULT:      -6.9     25.670     29.020
REMARK  Name = 26743066
REMARK  7 active torsions:
REMARK  status: ('A' for Active; 'I' for Inactive)
REMARK    1  A    between atoms: O_4  and  C_34
REMARK    2  A    between atoms: N_8  and  C_16
REMARK    3  A    between atoms: C_11  and  C_14
REMARK    4  A    between atoms: C_12  and  C_18
REMARK    5  A    between atoms: C_14  and  C_23
REMARK    6  A    between atoms: C_18  and  C_24
REMARK    7  A    between atoms: C_31  and  C_34
REMARK                            x       y       z     vdW  Elec       q    Type
REMARK                         _______ _______ _______ _____ _____    ______ ____
ROOT
ATOM      1  O   UNL     1       4.565   9.589  -2.074  0.00  0.00    -0.276 OA
ATOM      6  N   UNL     1       2.563  10.027  -3.171  0.00  0.00    -0.301 N 
ATOM     16  C   UNL     1      -0.260  10.535  -2.781  0.00  0.00    +0.095 C 
ATOM     19  C   UNL     1       0.755  10.728  -1.650  0.00  0.00    +0.044 C 
ATOM     20  C   UNL     1       0.237   9.485  -3.780  0.00  0.00    +0.044 C 
ATOM     21  C   UNL     1       2.144  11.042  -2.203  0.00  0.00    +0.110 C 
ATOM     22  C   UNL     1       1.636   9.823  -4.290  0.00  0.00    +0.110 C 
ATOM     23  C   UNL     1       3.784   9.373  -3.005  0.00  0.00    +0.216 C 
ENDROOT
BRANCH  16   8
ATOM      3  O   UNL     1      -0.933   8.982  -0.285  0.00  0.00    -0.247 OA
ATOM      8  N   UNL     1      -1.550  10.171  -2.250  0.00  0.00    -0.289 N 
ATOM      9  N   UNL     1      -3.183   9.314  -0.935  0.00  0.00    -0.306 N 
ATOM     25  C   UNL     1      -2.784  10.491  -2.829  0.00  0.00    +0.070 A 
ATOM     26  C   UNL     1      -1.769   9.432  -1.057  0.00  0.00    +0.328 A 
ATOM     27  C   UNL     1      -3.784   9.961  -2.016  0.00  0.00    +0.067 A 
ATOM     29  C   UNL     1      -3.086  11.189  -3.979  0.00  0.00    +0.028 A 
ATOM     30  C   UNL     1      -5.123  10.100  -2.305  0.00  0.00    +0.028 A 
ATOM     32  C   UNL     1      -4.439  11.344  -4.296  0.00  0.00    +0.002 A 
ATOM     33  C   UNL     1      -5.447  10.805  -3.467  0.00  0.00    +0.002 A 
ATOM     36  H   UNL     1      -3.683   8.842  -0.191  0.00  0.00    +0.170 HD
ENDBRANCH  16   8
BRANCH  23  14
ATOM     14  C   UNL     1       4.143   8.339  -4.043  0.00  0.00    +0.100 C 
BRANCH  14  11
ATOM      7  N   UNL     1       6.265   5.326  -4.864  0.00  0.00    -0.316 NA
ATOM     11  C   UNL     1       4.315   6.968  -3.378  0.00  0.00    +0.004 C 
ATOM     12  C   UNL     1       3.896   5.777  -4.272  0.00  0.00    +0.012 C 
ATOM     13  C   UNL     1       5.768   6.762  -2.916  0.00  0.00    +0.019 C 
ATOM     15  C   UNL     1       4.915   5.523  -5.394  0.00  0.00    +0.085 C 
ATOM     17  C   UNL     1       6.714   6.475  -4.081  0.00  0.00    +0.081 C 
ATOM     35  H   UNL     1       6.911   5.169  -5.636  0.00  0.00    +0.122 HD
BRANCH  12  18
ATOM     18  C   UNL     1       2.488   5.929  -4.849  0.00  0.00    +0.064 C 
BRANCH  18  24
ATOM      2  O   UNL     1       0.332   3.185  -3.962  0.00  0.00    -0.348 OA
ATOM     10  N   UNL     1       0.861   4.452  -3.747  0.00  0.00    -0.082 NA
ATOM     24  C   UNL     1       1.716   4.644  -4.755  0.00  0.00    +0.085 A 
ATOM     28  C   UNL     1       1.769   3.543  -5.627  0.00  0.00    +0.083 A 
ATOM     31  C   UNL     1       0.881   2.654  -5.084  0.00  0.00    +0.244 A 
BRANCH  31  34
ATOM      5  O   UNL     1       1.159   0.303  -5.438  0.00  0.00    -0.242 OA
ATOM     34  C   UNL     1       0.471   1.352  -5.483  0.00  0.00    +0.375 C 
BRANCH  34   4
ATOM      4  O   UNL     1      -0.818   1.299  -5.957  0.00  0.00    -0.475 OA
ATOM     37  H   UNL     1      -0.891   1.702  -6.849  0.00  0.00    +0.296 HD
ENDBRANCH  34   4
ENDBRANCH  31  34
ENDBRANCH  18  24
ENDBRANCH  12  18
ENDBRANCH  14  11
ENDBRANCH  23  14
TORSDOF 7
ENDMDL
MODEL 6
REMARK VINA RESULT:      -6.8     27.389     29.848
REMARK  Name = 26743066
REMARK  7 active torsions:
REMARK  status: ('A' for Active; 'I' for Inactive)
REMARK    1  A    between atoms: O_4  and  C_34
REMARK    2  A    between atoms: N_8  and  C_16
REMARK    3  A    between atoms: C_11  and  C_14
REMARK    4  A    between atoms: C_12  and  C_18
REMARK    5  A    between atoms: C_14  and  C_23
REMARK    6  A    between atoms: C_18  and  C_24
REMARK    7  A    between atoms: C_31  and  C_34
REMARK                            x       y       z     vdW  Elec       q    Type
REMARK                         _______ _______ _______ _____ _____    ______ ____
ROOT
ATOM      1  O   UNL     1      -1.891 -10.226  14.966  0.00  0.00    -0.276 OA
ATOM      6  N   UNL     1      -2.815 -11.301  13.125  0.00  0.00    -0.301 N 
ATOM     16  C   UNL     1      -3.683 -10.932  10.389  0.00  0.00    +0.095 C 
ATOM     19  C   UNL     1      -2.716  -9.954  11.063  0.00  0.00    +0.044 C 
ATOM     20  C   UNL     1      -4.576 -11.614  11.429  0.00  0.00    +0.044 C 
ATOM     21  C   UNL     1      -1.921 -10.642  12.171  0.00  0.00    +0.110 C 
ATOM     22  C   UNL     1      -3.745 -12.268  12.531  0.00  0.00    +0.110 C 
ATOM     23  C   UNL     1      -2.708 -11.017  14.487  0.00  0.00    +0.216 C 
ENDROOT
BRANCH  16   8
ATOM      3  O   UNL     1      -5.125  -8.289  10.562  0.00  0.00    -0.247 OA
ATOM      8  N   UNL     1      -4.477 -10.256   9.393  0.00  0.00    -0.289 N 
ATOM      9  N   UNL     1      -5.781  -8.736   8.333  0.00  0.00    -0.306 N 
ATOM     25  C   UNL     1      -4.732 -10.731   8.100  0.00  0.00    +0.070 A 
ATOM     26  C   UNL     1      -5.123  -9.003   9.568  0.00  0.00    +0.328 A 
ATOM     27  C   UNL     1      -5.534  -9.792   7.455  0.00  0.00    +0.067 A 
ATOM     29  C   UNL     1      -4.327 -11.888   7.469  0.00  0.00    +0.028 A 
ATOM     30  C   UNL     1      -5.969  -9.958   6.158  0.00  0.00    +0.028 A 
ATOM     32  C   UNL     1      -4.755 -12.080   6.152  0.00  0.00    +0.002 A 
ATOM     33  C   UNL     1      -5.567 -11.125   5.503  0.00  0.00    +0.002 A 
ATOM     36  H   UNL     1      -6.338  -7.919   8.115  0.00  0.00    +0.170 HD
ENDBRANCH  16   8
BRANCH  23  14
ATOM     14  C   UNL     1      -3.666 -11.734  15.404  0.00  0.00    +0.100 C 
BRANCH  14  11
ATOM      7  N   UNL     1      -5.728 -12.235  18.527  0.00  0.00    -0.316 NA
ATOM     11  C   UNL     1      -4.160 -10.778  16.496  0.00  0.00    +0.004 C 
ATOM     12  C   UNL     1      -5.700 -10.676  16.595  0.00  0.00    +0.012 C 
ATOM     13  C   UNL     1      -3.594 -11.177  17.870  0.00  0.00    +0.019 C 
ATOM     15  C   UNL     1      -6.314 -11.939  17.219  0.00  0.00    +0.085 C 
ATOM     17  C   UNL     1      -4.280 -12.416  18.444  0.00  0.00    +0.081 C 
ATOM     35  H   UNL     1      -6.153 -13.082  18.904  0.00  0.00    +0.122 HD
BRANCH  12  18
ATOM     18  C   UNL     1      -6.366 -10.360  15.255  0.00  0.00    +0.064 C 
BRANCH  18  24
ATOM      2  O   UNL     1      -9.681  -8.988  14.945  0.00  0.00    -0.348 OA
ATOM     10  N   UNL     1      -8.565  -9.636  14.428  0.00  0.00    -0.082 NA
ATOM     24  C   UNL     1      -7.707  -9.712  15.449  0.00  0.00    +0.085 A 
ATOM     28  C   UNL     1      -8.221  -9.135  16.623  0.00  0.00    +0.083 A 
ATOM     31  C   UNL     1      -9.464  -8.695  16.252  0.00  0.00    +0.244 A 
BRANCH  31  34
ATOM      5  O   UNL     1     -11.376  -8.561  17.686  0.00  0.00    -0.242 OA
ATOM     34  C   UNL     1     -10.492  -8.027  16.972  0.00  0.00    +0.375 C 
BRANCH  34   4
ATOM      4  O   UNL     1     -10.464  -6.659  16.835  0.00  0.00    -0.475 OA
ATOM     37  H   UNL     1     -10.718  -6.383  15.929  0.00  0.00    +0.296 HD
ENDBRANCH  34   4
ENDBRANCH  31  34
ENDBRANCH  18  24
ENDBRANCH  12  18
ENDBRANCH  14  11
ENDBRANCH  23  14
TORSDOF 7
ENDMDL
MODEL 7
REMARK VINA RESULT:      -6.7     14.513     19.522
REMARK  Name = 26743066
REMARK  7 active torsions:
REMARK  status: ('A' for Active; 'I' for Inactive)
REMARK    1  A    between atoms: O_4  and  C_34
REMARK    2  A    between atoms: N_8  and  C_16
REMARK    3  A    between atoms: C_11  and  C_14
REMARK    4  A    between atoms: C_12  and  C_18
REMARK    5  A    between atoms: C_14  and  C_23
REMARK    6  A    between atoms: C_18  and  C_24
REMARK    7  A    between atoms: C_31  and  C_34
REMARK                            x       y       z     vdW  Elec       q    Type
REMARK                         _______ _______ _______ _____ _____    ______ ____
ROOT
ATOM      1  O   UNL     1      11.323   5.870   4.782  0.00  0.00    -0.276 OA
ATOM      6  N   UNL     1      10.649   5.649   2.570  0.00  0.00    -0.301 N 
ATOM     16  C   UNL     1      11.304   4.418   0.033  0.00  0.00    +0.095 C 
ATOM     19  C   UNL     1      11.871   3.888   1.353  0.00  0.00    +0.044 C 
ATOM     20  C   UNL     1      10.987   5.913   0.142  0.00  0.00    +0.044 C 
ATOM     21  C   UNL     1      10.944   4.216   2.522  0.00  0.00    +0.110 C 
ATOM     22  C   UNL     1      10.079   6.201   1.335  0.00  0.00    +0.110 C 
ATOM     23  C   UNL     1      10.876   6.366   3.744  0.00  0.00    +0.216 C 
ENDROOT
BRANCH  16   8
ATOM      3  O   UNL     1      14.312   4.626  -0.021  0.00  0.00    -0.247 OA
ATOM      8  N   UNL     1      12.220   4.164  -1.052  0.00  0.00    -0.289 N 
ATOM      9  N   UNL     1      14.112   3.942  -2.277  0.00  0.00    -0.306 N 
ATOM     25  C   UNL     1      11.855   3.754  -2.341  0.00  0.00    +0.070 A 
ATOM     26  C   UNL     1      13.632   4.290  -0.982  0.00  0.00    +0.328 A 
ATOM     27  C   UNL     1      13.023   3.619  -3.088  0.00  0.00    +0.067 A 
ATOM     29  C   UNL     1      10.616   3.498  -2.888  0.00  0.00    +0.028 A 
ATOM     30  C   UNL     1      13.014   3.226  -4.408  0.00  0.00    +0.028 A 
ATOM     32  C   UNL     1      10.580   3.098  -4.227  0.00  0.00    +0.002 A 
ATOM     33  C   UNL     1      11.767   2.963  -4.980  0.00  0.00    +0.002 A 
ATOM     36  H   UNL     1      15.080   3.926  -2.573  0.00  0.00    +0.170 HD
ENDBRANCH  16   8
BRANCH  23  14
ATOM     14  C   UNL     1      10.549   7.838   3.712  0.00  0.00    +0.100 C 
BRANCH  14  11
ATOM      7  N   UNL     1       8.251  10.832   3.787  0.00  0.00    -0.316 NA
ATOM     11  C   UNL     1       9.169   8.082   4.333  0.00  0.00    +0.004 C 
ATOM     12  C   UNL     1       9.151   9.187   5.415  0.00  0.00    +0.012 C 
ATOM     13  C   UNL     1       8.133   8.424   3.249  0.00  0.00    +0.019 C 
ATOM     15  C   UNL     1       9.282  10.589   4.796  0.00  0.00    +0.085 C 
ATOM     17  C   UNL     1       8.300   9.844   2.711  0.00  0.00    +0.081 C 
ATOM     35  H   UNL     1       8.375  11.765   3.395  0.00  0.00    +0.122 HD
BRANCH  12  18
ATOM     18  C   UNL     1      10.208   8.979   6.501  0.00  0.00    +0.064 C 
BRANCH  18  24
ATOM      2  O   UNL     1       8.649   6.594   8.704  0.00  0.00    -0.348 OA
ATOM     10  N   UNL     1       8.639   7.763   7.951  0.00  0.00    -0.082 NA
ATOM     24  C   UNL     1       9.852   7.826   7.396  0.00  0.00    +0.085 A 
ATOM     28  C   UNL     1      10.664   6.738   7.760  0.00  0.00    +0.083 A 
ATOM     31  C   UNL     1       9.861   5.993   8.582  0.00  0.00    +0.244 A 
BRANCH  31  34
ATOM      5  O   UNL     1      10.108   4.618  10.525  0.00  0.00    -0.242 OA
ATOM     34  C   UNL     1      10.081   4.774   9.280  0.00  0.00    +0.375 C 
BRANCH  34   4
ATOM      4  O   UNL     1      10.277   3.692   8.455  0.00  0.00    -0.475 OA
ATOM     37  H   UNL     1       9.463   3.151   8.370  0.00  0.00    +0.296 HD
ENDBRANCH  34   4
ENDBRANCH  31  34
ENDBRANCH  18  24
ENDBRANCH  12  18
ENDBRANCH  14  11
ENDBRANCH  23  14
TORSDOF 7
ENDMDL
MODEL 8
REMARK VINA RESULT:      -6.4     11.860     15.816
REMARK  Name = 26743066
REMARK  7 active torsions:
REMARK  status: ('A' for Active; 'I' for Inactive)
REMARK    1  A    between atoms: O_4  and  C_34
REMARK    2  A    between atoms: N_8  and  C_16
REMARK    3  A    between atoms: C_11  and  C_14
REMARK    4  A    between atoms: C_12  and  C_18
REMARK    5  A    between atoms: C_14  and  C_23
REMARK    6  A    between atoms: C_18  and  C_24
REMARK    7  A    between atoms: C_31  and  C_34
REMARK                            x       y       z     vdW  Elec       q    Type
REMARK                         _______ _______ _______ _____ _____    ______ ____
ROOT
ATOM      1  O   UNL     1       8.451   9.307   2.670  0.00  0.00    -0.276 OA
ATOM      6  N   UNL     1       8.437   8.994   4.972  0.00  0.00    -0.301 N 
ATOM     16  C   UNL     1       9.252  10.148   7.499  0.00  0.00    +0.095 C 
ATOM     19  C   UNL     1       9.131  10.997   6.229  0.00  0.00    +0.044 C 
ATOM     20  C   UNL     1       9.558   8.689   7.146  0.00  0.00    +0.044 C 
ATOM     21  C   UNL     1       8.119  10.394   5.257  0.00  0.00    +0.110 C 
ATOM     22  C   UNL     1       8.538   8.132   6.156  0.00  0.00    +0.110 C 
ATOM     23  C   UNL     1       8.577   8.570   3.651  0.00  0.00    +0.216 C 
ENDROOT
BRANCH  16   8
ATOM      3  O   UNL     1      12.231  10.374   7.083  0.00  0.00    -0.247 OA
ATOM      8  N   UNL     1      10.260  10.688   8.377  0.00  0.00    -0.289 N 
ATOM      9  N   UNL     1      12.248  11.354   9.237  0.00  0.00    -0.306 N 
ATOM     25  C   UNL     1      10.023  11.232   9.646  0.00  0.00    +0.070 A 
ATOM     26  C   UNL     1      11.650  10.752   8.092  0.00  0.00    +0.328 A 
ATOM     27  C   UNL     1      11.249  11.639  10.168  0.00  0.00    +0.067 A 
ATOM     29  C   UNL     1       8.849  11.390  10.353  0.00  0.00    +0.028 A 
ATOM     30  C   UNL     1      11.365  12.220  11.411  0.00  0.00    +0.028 A 
ATOM     32  C   UNL     1       8.942  11.978  11.618  0.00  0.00    +0.002 A 
ATOM     33  C   UNL     1      10.186  12.389  12.142  0.00  0.00    +0.002 A 
ATOM     36  H   UNL     1      13.233  11.550   9.365  0.00  0.00    +0.170 HD
ENDBRANCH  16   8
BRANCH  23  14
ATOM     14  C   UNL     1       8.908   7.113   3.441  0.00  0.00    +0.100 C 
BRANCH  14  11
ATOM      7  N   UNL     1      10.816   4.331   1.745  0.00  0.00    -0.316 NA
ATOM     11  C   UNL     1      10.367   6.967   2.994  0.00  0.00    +0.004 C 
ATOM     12  C   UNL     1      11.132   5.825   3.703  0.00  0.00    +0.012 C 
ATOM     13  C   UNL     1      10.456   6.760   1.472  0.00  0.00    +0.019 C 
ATOM     15  C   UNL     1      10.687   4.443   3.198  0.00  0.00    +0.085 C 
ATOM     17  C   UNL     1      10.035   5.353   1.050  0.00  0.00    +0.081 C 
ATOM     35  H   UNL     1      10.504   3.407   1.448  0.00  0.00    +0.122 HD
BRANCH  12  18
ATOM     18  C   UNL     1      11.035   5.897   5.228  0.00  0.00    +0.064 C 
BRANCH  18  24
ATOM      2  O   UNL     1      13.605   7.283   7.335  0.00  0.00    -0.348 OA
ATOM     10  N   UNL     1      12.454   6.530   7.133  0.00  0.00    -0.082 NA
ATOM     24  C   UNL     1      12.222   6.603   5.819  0.00  0.00    +0.085 A 
ATOM     28  C   UNL     1      13.183   7.379   5.149  0.00  0.00    +0.083 A 
ATOM     31  C   UNL     1      14.029   7.783   6.146  0.00  0.00    +0.244 A 
BRANCH  31  34
ATOM      5  O   UNL     1      16.301   8.300   5.602  0.00  0.00    -0.242 OA
ATOM     34  C   UNL     1      15.201   8.588   6.134  0.00  0.00    +0.375 C 
BRANCH  34   4
ATOM      4  O   UNL     1      15.055   9.789   6.785  0.00  0.00    -0.475 OA
ATOM     37  H   UNL     1      14.123   9.946   7.048  0.00  0.00    +0.296 HD
ENDBRANCH  34   4
ENDBRANCH  31  34
ENDBRANCH  18  24
ENDBRANCH  12  18
ENDBRANCH  14  11
ENDBRANCH  23  14
TORSDOF 7
ENDMDL
MODEL 9
REMARK VINA RESULT:      -6.3     14.213     16.601
REMARK  Name = 26743066
REMARK  7 active torsions:
REMARK  status: ('A' for Active; 'I' for Inactive)
REMARK    1  A    between atoms: O_4  and  C_34
REMARK    2  A    between atoms: N_8  and  C_16
REMARK    3  A    between atoms: C_11  and  C_14
REMARK    4  A    between atoms: C_12  and  C_18
REMARK    5  A    between atoms: C_14  and  C_23
REMARK    6  A    between atoms: C_18  and  C_24
REMARK    7  A    between atoms: C_31  and  C_34
REMARK                            x       y       z     vdW  Elec       q    Type
REMARK                         _______ _______ _______ _____ _____    ______ ____
ROOT
ATOM      1  O   UNL     1      11.789  11.203   5.536  0.00  0.00    -0.276 OA
ATOM      6  N   UNL     1      13.433   9.736   6.272  0.00  0.00    -0.301 N 
ATOM     16  C   UNL     1      16.196   8.948   5.925  0.00  0.00    +0.095 C 
ATOM     19  C   UNL     1      15.687  10.317   5.463  0.00  0.00    +0.044 C 
ATOM     20  C   UNL     1      15.062   7.919   5.921  0.00  0.00    +0.044 C 
ATOM     21  C   UNL     1      14.478  10.761   6.284  0.00  0.00    +0.110 C 
ATOM     22  C   UNL     1      13.864   8.411   6.732  0.00  0.00    +0.110 C 
ATOM     23  C   UNL     1      12.136  10.072   5.884  0.00  0.00    +0.216 C 
ENDROOT
BRANCH  16   8
ATOM      3  O   UNL     1      16.207   8.182   3.008  0.00  0.00    -0.247 OA
ATOM      8  N   UNL     1      17.293   8.508   5.098  0.00  0.00    -0.289 N 
ATOM      9  N   UNL     1      18.518   7.795   3.331  0.00  0.00    -0.306 N 
ATOM     25  C   UNL     1      18.617   8.350   5.525  0.00  0.00    +0.070 A 
ATOM     26  C   UNL     1      17.200   8.166   3.723  0.00  0.00    +0.328 A 
ATOM     27  C   UNL     1      19.365   7.911   4.434  0.00  0.00    +0.067 A 
ATOM     29  C   UNL     1      19.196   8.556   6.760  0.00  0.00    +0.028 A 
ATOM     30  C   UNL     1      20.716   7.658   4.518  0.00  0.00    +0.028 A 
ATOM     32  C   UNL     1      20.568   8.305   6.871  0.00  0.00    +0.002 A 
ATOM     33  C   UNL     1      21.320   7.861   5.762  0.00  0.00    +0.002 A 
ATOM     36  H   UNL     1      18.806   7.494   2.408  0.00  0.00    +0.170 HD
ENDBRANCH  16   8
BRANCH  23  14
ATOM     14  C   UNL     1      11.117   8.959   5.896  0.00  0.00    +0.100 C 
BRANCH  14  11
ATOM      7  N   UNL     1       7.894   7.329   6.995  0.00  0.00    -0.316 NA
ATOM     11  C   UNL     1       9.739   9.516   6.274  0.00  0.00    +0.004 C 
ATOM     12  C   UNL     1       8.595   9.047   5.345  0.00  0.00    +0.012 C 
ATOM     13  C   UNL     1       9.384   9.159   7.727  0.00  0.00    +0.019 C 
ATOM     15  C   UNL     1       8.230   7.574   5.592  0.00  0.00    +0.085 C 
ATOM     17  C   UNL     1       8.994   7.690   7.888  0.00  0.00    +0.081 C 
ATOM     35  H   UNL     1       7.667   6.343   7.121  0.00  0.00    +0.122 HD
BRANCH  12  18
ATOM     18  C   UNL     1       8.890   9.285   3.863  0.00  0.00    +0.064 C 
BRANCH  18  24
ATOM      2  O   UNL     1       6.295   9.581   1.385  0.00  0.00    -0.348 OA
ATOM     10  N   UNL     1       7.581   9.236   1.783  0.00  0.00    -0.082 NA
ATOM     24  C   UNL     1       7.629   9.530   3.086  0.00  0.00    +0.085 A 
ATOM     28  C   UNL     1       6.415  10.058   3.559  0.00  0.00    +0.083 A 
ATOM     31  C   UNL     1       5.610  10.070   2.451  0.00  0.00    +0.244 A 
BRANCH  31  34
ATOM      5  O   UNL     1       3.831  11.661   2.285  0.00  0.00    -0.242 OA
ATOM     34  C   UNL     1       4.264  10.483   2.256  0.00  0.00    +0.375 C 
BRANCH  34   4
ATOM      4  O   UNL     1       3.396   9.445   2.014  0.00  0.00    -0.475 OA
ATOM     37  H   UNL     1       3.470   8.746   2.699  0.00  0.00    +0.296 HD
ENDBRANCH  34   4
ENDBRANCH  31  34
ENDBRANCH  18  24
ENDBRANCH  12  18
ENDBRANCH  14  11
ENDBRANCH  23  14
TORSDOF 7
ENDMDL
MODEL 10
REMARK VINA RESULT:      -6.3     27.370     30.428
REMARK  Name = 26743066
REMARK  7 active torsions:
REMARK  status: ('A' for Active; 'I' for Inactive)
REMARK    1  A    between atoms: O_4  and  C_34
REMARK    2  A    between atoms: N_8  and  C_16
REMARK    3  A    between atoms: C_11  and  C_14
REMARK    4  A    between atoms: C_12  and  C_18
REMARK    5  A    between atoms: C_14  and  C_23
REMARK    6  A    between atoms: C_18  and  C_24
REMARK    7  A    between atoms: C_31  and  C_34
REMARK                            x       y       z     vdW  Elec       q    Type
REMARK                         _______ _______ _______ _____ _____    ______ ____
ROOT
ATOM      1  O   UNL     1     -11.129 -11.658  15.239  0.00  0.00    -0.276 OA
ATOM      6  N   UNL     1      -9.035 -10.988  14.487  0.00  0.00    -0.301 N 
ATOM     16  C   UNL     1      -6.187 -11.309  14.890  0.00  0.00    +0.095 C 
ATOM     19  C   UNL     1      -7.193 -12.344  15.403  0.00  0.00    +0.044 C 
ATOM     20  C   UNL     1      -6.834  -9.924  14.801  0.00  0.00    +0.044 C 
ATOM     21  C   UNL     1      -8.469 -12.336  14.564  0.00  0.00    +0.110 C 
ATOM     22  C   UNL     1      -8.118  -9.963  13.975  0.00  0.00    +0.110 C 
ATOM     23  C   UNL     1     -10.366 -10.772  14.846  0.00  0.00    +0.216 C 
ENDROOT
BRANCH  16   8
ATOM      3  O   UNL     1      -5.927 -11.918  17.831  0.00  0.00    -0.247 OA
ATOM      8  N   UNL     1      -5.016 -11.278  15.730  0.00  0.00    -0.289 N 
ATOM      9  N   UNL     1      -3.635 -11.419  17.521  0.00  0.00    -0.306 N 
ATOM     25  C   UNL     1      -3.723 -10.942  15.308  0.00  0.00    +0.070 A 
ATOM     26  C   UNL     1      -4.991 -11.583  17.117  0.00  0.00    +0.328 A 
ATOM     27  C   UNL     1      -2.880 -11.031  16.413  0.00  0.00    +0.067 A 
ATOM     29  C   UNL     1      -3.249 -10.576  14.066  0.00  0.00    +0.028 A 
ATOM     30  C   UNL     1      -1.532 -10.761  16.337  0.00  0.00    +0.028 A 
ATOM     32  C   UNL     1      -1.882 -10.297  13.963  0.00  0.00    +0.002 A 
ATOM     33  C   UNL     1      -1.032 -10.388  15.087  0.00  0.00    +0.002 A 
ATOM     36  H   UNL     1      -3.267 -11.558  18.453  0.00  0.00    +0.170 HD
ENDBRANCH  16   8
BRANCH  23  14
ATOM     14  C   UNL     1     -10.873  -9.355  14.741  0.00  0.00    +0.100 C 
BRANCH  14  11
ATOM      7  N   UNL     1     -12.496  -6.173  15.964  0.00  0.00    -0.316 NA
ATOM     11  C   UNL     1     -11.788  -9.037  15.930  0.00  0.00    +0.004 C 
ATOM     12  C   UNL     1     -11.181  -8.038  16.943  0.00  0.00    +0.012 C 
ATOM     13  C   UNL     1     -13.146  -8.500  15.447  0.00  0.00    +0.019 C 
ATOM     15  C   UNL     1     -11.163  -6.605  16.386  0.00  0.00    +0.085 C 
ATOM     17  C   UNL     1     -13.058  -7.060  14.946  0.00  0.00    +0.081 C 
ATOM     35  H   UNL     1     -12.442  -5.225  15.594  0.00  0.00    +0.122 HD
BRANCH  12  18
ATOM     18  C   UNL     1      -9.787  -8.445  17.423  0.00  0.00    +0.064 C 
BRANCH  18  24
ATOM      2  O   UNL     1     -10.586 -11.008  19.823  0.00  0.00    -0.348 OA
ATOM     10  N   UNL     1     -10.835  -9.797  19.188  0.00  0.00    -0.082 NA
ATOM     24  C   UNL     1      -9.844  -9.661  18.302  0.00  0.00    +0.085 A 
ATOM     28  C   UNL     1      -8.949 -10.744  18.333  0.00  0.00    +0.083 A 
ATOM     31  C   UNL     1      -9.460 -11.562  19.305  0.00  0.00    +0.244 A 
BRANCH  31  34
ATOM      5  O   UNL     1      -9.578 -13.481  20.729  0.00  0.00    -0.242 OA
ATOM     34  C   UNL     1      -9.027 -12.814  19.820  0.00  0.00    +0.375 C 
BRANCH  34   4
ATOM      4  O   UNL     1      -7.885 -13.293  19.224  0.00  0.00    -0.475 OA
ATOM     37  H   UNL     1      -7.424 -13.943  19.797  0.00  0.00    +0.296 HD
ENDBRANCH  34   4
ENDBRANCH  31  34
ENDBRANCH  18  24
ENDBRANCH  12  18
ENDBRANCH  14  11
ENDBRANCH  23  14
TORSDOF 7
ENDMDL
