REMARK  Name = 75368677
REMARK  5 active torsions:
REMARK  status: ('A' for Active; 'I' for Inactive)
REMARK    1  A    between atoms: O_6  and  C_25
REMARK    2  A    between atoms: O_6  and  C_28
REMARK    3  A    between atoms: N_8  and  C_12
REMARK    4  A    between atoms: N_9  and  C_19
REMARK    5  A    between atoms: C_19  and  C_22
REMARK                            x       y       z     vdW  Elec       q    Type
REMARK                         _______ _______ _______ _____ _____    ______ ____
ROOT
ATOM      5  O   UNL     1       4.167   2.559   0.241  0.00  0.00    -0.252 OA
ATOM      7  N   UNL     1       1.885   2.113  -0.091  0.00  0.00    -0.278 N 
ATOM      8  N   UNL     1       3.324   0.390  -0.144  0.00  0.00    -0.280 N 
ATOM      9  N   UNL     1      -0.897   2.231   0.305  0.00  0.00    -0.295 NA
ATOM     10  C   UNL     1       1.073   0.974  -0.465  0.00  0.00    +0.109 C 
ATOM     11  C   UNL     1       2.010  -0.217  -0.273  0.00  0.00    +0.133 C 
ATOM     13  C   UNL     1      -0.202   0.930   0.376  0.00  0.00    +0.109 C 
ATOM     14  C   UNL     1       1.267   3.419   0.015  0.00  0.00    +0.125 C 
ATOM     15  C   UNL     1       3.242   1.787   0.025  0.00  0.00    +0.305 C 
ATOM     16  C   UNL     1      -0.035   3.317   0.813  0.00  0.00    +0.104 C 
ENDROOT
BRANCH   8  12
ATOM      4  O   UNL     1       5.802  -2.978  -0.188  0.00  0.00    -0.380 OA
ATOM     12  C   UNL     1       4.525  -0.401  -0.052  0.00  0.00    +0.082 C 
ATOM     17  C   UNL     1       4.821  -1.101  -1.379  0.00  0.00    +0.050 C 
ATOM     18  C   UNL     1       4.426  -1.427   1.078  0.00  0.00    +0.050 C 
ATOM     20  C   UNL     1       6.016  -2.036  -1.240  0.00  0.00    +0.161 C 
ATOM     21  C   UNL     1       5.644  -2.343   1.080  0.00  0.00    +0.161 C 
ENDBRANCH   8  12
BRANCH   9  19
ATOM     19  C   UNL     1      -2.151   2.181   1.057  0.00  0.00    +0.119 C 
BRANCH  19  22
ATOM     22  C   UNL     1      -3.230   1.452   0.301  0.00  0.00    -0.030 A 
ATOM     23  C   UNL     1      -3.573   0.148   0.660  0.00  0.00    +0.051 A 
ATOM     24  C   UNL     1      -3.885   2.079  -0.758  0.00  0.00    +0.005 A 
ATOM     25  C   UNL     1      -4.572  -0.528  -0.040  0.00  0.00    +0.130 A 
ATOM     26  C   UNL     1      -4.884   1.403  -1.458  0.00  0.00    +0.004 A 
ATOM     27  C   UNL     1      -5.228   0.099  -1.099  0.00  0.00    +0.046 A 
BRANCH  25   6
ATOM      6  O   UNL     1      -4.906  -1.800   0.310  0.00  0.00    -0.406 OA
BRANCH   6  28
ATOM      1  F   UNL     1      -4.476  -3.986  -0.055  0.00  0.00    -0.133 F 
ATOM      2  F   UNL     1      -3.276  -2.939   1.442  0.00  0.00    -0.133 F 
ATOM      3  F   UNL     1      -2.990  -2.523  -0.710  0.00  0.00    -0.133 F 
ATOM     28  C   UNL     1      -3.897  -2.802   0.251  0.00  0.00    +0.575 C 
ENDBRANCH   6  28
ENDBRANCH  25   6
ENDBRANCH  19  22
ENDBRANCH   9  19
TORSDOF 5
