REMARK  Name = 45361529
REMARK  11 active torsions:
REMARK  status: ('A' for Active; 'I' for Inactive)
REMARK    1  A    between atoms: O_2  and  C_10
REMARK    2  A    between atoms: N_5  and  C_14
REMARK    3  A    between atoms: N_6  and  C_24
REMARK    4  A    between atoms: C_7  and  C_17
REMARK    5  A    between atoms: C_9  and  C_19
REMARK    6  A    between atoms: C_13  and  C_18
REMARK    7  A    between atoms: C_18  and  C_20
REMARK    8  A    between atoms: C_18  and  C_21
REMARK    9  A    between atoms: C_22  and  C_23
REMARK   10  A    between atoms: C_23  and  C_25
REMARK   11  A    between atoms: C_24  and  C_26
REMARK                            x       y       z     vdW  Elec       q    Type
REMARK                         _______ _______ _______ _____ _____    ______ ____
ROOT
ATOM      7  C   UNL     1      -0.489   0.487   1.895  0.00  0.00    -0.027 C 
ATOM      8  C   UNL     1      -0.072   0.556   0.388  0.00  0.00    +0.028 C 
ATOM      9  C   UNL     1       1.441   0.952   0.244  0.00  0.00    +0.012 C 
ATOM     10  C   UNL     1      -1.071   1.420  -0.435  0.00  0.00    +0.122 C 
ATOM     11  C   UNL     1      -1.948  -0.015   2.004  0.00  0.00    +0.007 C 
ATOM     12  C   UNL     1       0.415  -0.534   2.622  0.00  0.00    +0.009 C 
ATOM     13  C   UNL     1      -2.540   0.979  -0.239  0.00  0.00    +0.029 C 
ATOM     14  C   UNL     1       2.335  -0.038   1.041  0.00  0.00    +0.076 C 
ATOM     15  C   UNL     1      -2.934   0.852   1.232  0.00  0.00    +0.007 C 
ATOM     16  C   UNL     1       1.898  -0.216   2.495  0.00  0.00    +0.023 C 
ATOM     17  C   UNL     1      -0.381   1.861   2.604  0.00  0.00    +0.011 C 
ATOM     19  C   UNL     1       1.926   1.010  -1.214  0.00  0.00    +0.010 C 
ENDROOT
BRANCH  14   5
ATOM      4  O   UNL     1       4.632  -1.772   1.096  0.00  0.00    -0.275 OA
ATOM      5  N   UNL     1       3.726   0.364   1.026  0.00  0.00    -0.312 N 
ATOM     22  C   UNL     1       4.766  -0.551   1.056  0.00  0.00    +0.218 C 
ATOM     35  H   UNL     1       3.929   1.359   1.058  0.00  0.00    +0.149 HD
BRANCH  22  23
ATOM     23  C   UNL     1       6.114   0.142   1.025  0.00  0.00    +0.130 C 
BRANCH  23  25
ATOM     25  C   UNL     1       6.954  -0.239  -0.166  0.00  0.00    -0.039 A 
ATOM     27  C   UNL     1       7.825  -1.325  -0.085  0.00  0.00    +0.004 A 
ATOM     28  C   UNL     1       6.861   0.495  -1.348  0.00  0.00    +0.004 A 
ATOM     30  C   UNL     1       8.604  -1.678  -1.188  0.00  0.00    +0.000 A 
ATOM     31  C   UNL     1       7.639   0.142  -2.451  0.00  0.00    +0.000 A 
ATOM     32  C   UNL     1       8.510  -0.944  -2.371  0.00  0.00    +0.000 A 
ENDBRANCH  23  25
ENDBRANCH  22  23
ENDBRANCH  14   5
BRANCH  10   2
ATOM      2  O   UNL     1      -0.786   1.283  -1.827  0.00  0.00    -0.391 OA
ATOM     36  H   UNL     1      -0.879   0.345  -2.064  0.00  0.00    +0.210 HD
ENDBRANCH  10   2
BRANCH  13  18
ATOM     18  C   UNL     1      -3.517   1.921  -0.952  0.00  0.00    +0.077 C 
ATOM     20  C   UNL     1      -3.364   3.340  -0.415  0.00  0.00    +0.017 C 
BRANCH  18  21
ATOM      3  O   UNL     1      -5.673   1.770   0.142  0.00  0.00    -0.276 OA
ATOM      6  N   UNL     1      -5.314   0.521  -1.780  0.00  0.00    -0.310 N 
ATOM     21  C   UNL     1      -4.946   1.414  -0.784  0.00  0.00    +0.216 C 
ATOM     37  H   UNL     1      -4.639   0.263  -2.494  0.00  0.00    +0.149 HD
BRANCH   6  24
ATOM     24  C   UNL     1      -6.619  -0.096  -1.832  0.00  0.00    +0.146 C 
BRANCH  24  26
ATOM      1  S   UNL     1      -8.143  -1.845  -0.305  0.00  0.00    -0.100 S 
ATOM     26  C   UNL     1      -6.671  -1.369  -1.038  0.00  0.00    +0.007 A 
ATOM     29  C   UNL     1      -5.657  -2.268  -0.792  0.00  0.00    +0.013 A 
ATOM     33  C   UNL     1      -6.094  -3.362   0.009  0.00  0.00    +0.008 A 
ATOM     34  C   UNL     1      -7.426  -3.258   0.345  0.00  0.00    +0.045 A 
ENDBRANCH  24  26
ENDBRANCH   6  24
ENDBRANCH  18  21
ENDBRANCH  13  18
TORSDOF 8
