REMARK  Name = 51138087
REMARK  10 active torsions:
REMARK  status: ('A' for Active; 'I' for Inactive)
REMARK    1  A    between atoms: N_3  and  C_10
REMARK    2  A    between atoms: N_4  and  C_24
REMARK    3  A    between atoms: N_5  and  C_30
REMARK    4  A    between atoms: C_7  and  C_10
REMARK    5  A    between atoms: C_11  and  C_17
REMARK    6  A    between atoms: C_12  and  C_18
REMARK    7  A    between atoms: C_17  and  C_20
REMARK    8  A    between atoms: C_20  and  C_26
REMARK    9  A    between atoms: C_20  and  C_27
REMARK   10  A    between atoms: C_24  and  C_28
REMARK                            x       y       z     vdW  Elec       q    Type
REMARK                         _______ _______ _______ _____ _____    ______ ____
ROOT
ATOM      2  N   UNL     1      -1.921  -0.261  -0.453  0.00  0.00    -0.299 NA
ATOM      4  N   UNL     1       2.879   0.838   0.666  0.00  0.00    -0.339 N 
ATOM     11  C   UNL     1      -1.409  -1.422   0.287  0.00  0.00    +0.085 C 
ATOM     12  C   UNL     1      -1.806   1.008   0.250  0.00  0.00    +0.145 C 
ATOM     13  C   UNL     1      -0.559   1.778  -0.182  0.00  0.00    +0.065 C 
ATOM     14  C   UNL     1       0.093  -1.415   0.586  0.00  0.00    -0.021 A 
ATOM     15  C   UNL     1       0.939  -0.271   0.516  0.00  0.00    +0.008 A 
ATOM     16  C   UNL     1       0.722   1.114   0.196  0.00  0.00    -0.020 A 
ATOM     19  C   UNL     1       2.297  -0.397   0.829  0.00  0.00    +0.050 A 
ATOM     21  C   UNL     1       1.941   1.754   0.291  0.00  0.00    +0.091 A 
ATOM     22  C   UNL     1       0.699  -2.613   1.045  0.00  0.00    +0.006 A 
ATOM     23  C   UNL     1       2.885  -1.597   1.234  0.00  0.00    +0.026 A 
ATOM     25  C   UNL     1       2.056  -2.705   1.350  0.00  0.00    +0.002 A 
ATOM     32  H   UNL     1      -1.502  -0.208  -1.381  0.00  0.00    +0.123 HD
ENDROOT
BRANCH  12  18
ATOM      1  O   UNL     1      -3.029   2.535  -1.116  0.00  0.00    -0.274 OA
ATOM      3  N   UNL     1      -4.085   1.571   0.721  0.00  0.00    -0.314 N 
ATOM     18  C   UNL     1      -3.024   1.787  -0.142  0.00  0.00    +0.230 C 
ATOM     33  H   UNL     1      -3.981   0.907   1.484  0.00  0.00    +0.149 HD
BRANCH   3  10
ATOM     10  C   UNL     1      -5.367   2.221   0.576  0.00  0.00    +0.107 C 
BRANCH  10   7
ATOM      7  C   UNL     1      -6.285   1.416  -0.280  0.00  0.00    +0.006 C 
ATOM      8  C   UNL     1      -7.169   0.386   0.360  0.00  0.00    +0.005 C 
ATOM      9  C   UNL     1      -7.764   1.648  -0.191  0.00  0.00    +0.005 C 
ENDBRANCH  10   7
ENDBRANCH   3  10
ENDBRANCH  12  18
BRANCH  11  17
ATOM     17  C   UNL     1      -1.839  -2.639  -0.551  0.00  0.00    +0.026 C 
BRANCH  17  20
ATOM     20  C   UNL     1      -3.324  -2.982  -0.392  0.00  0.00    -0.015 C 
ATOM     26  C   UNL     1      -3.644  -4.232  -1.214  0.00  0.00    +0.007 C 
ATOM     27  C   UNL     1      -4.242  -1.835  -0.816  0.00  0.00    +0.007 C 
ENDBRANCH  17  20
ENDBRANCH  11  17
BRANCH   4  24
ATOM     24  C   UNL     1       4.278   1.145   0.876  0.00  0.00    +0.196 C 
BRANCH  24  28
ATOM      5  N   UNL     1       6.525   0.702  -0.171  0.00  0.00    -0.336 N 
ATOM      6  N   UNL     1       4.753   0.342  -1.461  0.00  0.00    -0.239 NA
ATOM     28  C   UNL     1       5.162   0.724  -0.272  0.00  0.00    +0.129 A 
ATOM     29  C   UNL     1       7.017   0.279  -1.374  0.00  0.00    +0.106 A 
ATOM     30  C   UNL     1       7.315   1.057   0.984  0.00  0.00    +0.150 C 
ATOM     31  C   UNL     1       5.905   0.063  -2.153  0.00  0.00    +0.130 A 
ENDBRANCH  24  28
ENDBRANCH   4  24
TORSDOF 7
