MODEL 1
REMARK VINA RESULT:      -7.2      0.000      0.000
REMARK  Name = 45784327
REMARK  5 active torsions:
REMARK  status: ('A' for Active; 'I' for Inactive)
REMARK    1  A    between atoms: N_4  and  C_13
REMARK    2  A    between atoms: C_8  and  C_12
REMARK    3  A    between atoms: C_13  and  C_14
REMARK    4  A    between atoms: C_23  and  C_26
REMARK    5  A    between atoms: C_24  and  C_27
REMARK                            x       y       z     vdW  Elec       q    Type
REMARK                         _______ _______ _______ _____ _____    ______ ____
ROOT
ATOM      4  N   UNL     1     -15.154   6.224  21.851  0.00  0.00    -0.297 NA
ATOM      8  C   UNL     1     -15.849   4.205  22.821  0.00  0.00    +0.070 C 
ATOM      9  C   UNL     1     -17.079   4.997  22.342  0.00  0.00    +0.028 C 
ATOM     10  C   UNL     1     -14.706   5.229  22.828  0.00  0.00    +0.096 C 
ATOM     11  C   UNL     1     -16.575   6.419  22.135  0.00  0.00    +0.085 C 
ENDROOT
BRANCH   8  12
ATOM      5  N   UNL     1     -15.708   4.127  25.326  0.00  0.00    -0.342 N 
ATOM      6  N   UNL     1     -16.469   2.285  24.343  0.00  0.00    -0.232 NA
ATOM     12  C   UNL     1     -16.023   3.505  24.149  0.00  0.00    +0.113 A 
ATOM     15  C   UNL     1     -15.970   3.249  26.346  0.00  0.00    +0.067 A 
ATOM     16  C   UNL     1     -16.443   2.107  25.707  0.00  0.00    +0.089 A 
ATOM     19  C   UNL     1     -15.836   3.352  27.731  0.00  0.00    +0.046 A 
ATOM     20  C   UNL     1     -16.812   0.992  26.478  0.00  0.00    +0.031 A 
ATOM     24  C   UNL     1     -16.207   2.234  28.484  0.00  0.00    +0.054 A 
ATOM     25  C   UNL     1     -16.686   1.074  27.872  0.00  0.00    +0.021 A 
ATOM     28  H   UNL     1     -15.346   5.066  25.429  0.00  0.00    +0.167 HD
BRANCH  24  27
ATOM      7  N   UNL     1     -16.002   2.317  31.065  0.00  0.00    -0.191 NA
ATOM     27  C   UNL     1     -16.093   2.280  29.909  0.00  0.00    +0.099 C 
ENDBRANCH  24  27
ENDBRANCH   8  12
BRANCH   4  13
ATOM     13  C   UNL     1     -14.395   7.464  21.933  0.00  0.00    +0.119 C 
BRANCH  13  14
ATOM     14  C   UNL     1     -13.458   7.626  20.767  0.00  0.00    -0.033 A 
ATOM     17  C   UNL     1     -13.966   7.916  19.500  0.00  0.00    +0.005 A 
ATOM     18  C   UNL     1     -12.082   7.491  20.952  0.00  0.00    +0.005 A 
ATOM     21  C   UNL     1     -13.098   8.066  18.419  0.00  0.00    +0.012 A 
ATOM     22  C   UNL     1     -11.214   7.642  19.870  0.00  0.00    +0.012 A 
ATOM     23  C   UNL     1     -11.722   7.930  18.604  0.00  0.00    +0.055 A 
BRANCH  23  26
ATOM      1  F   UNL     1     -10.213   6.929  17.042  0.00  0.00    -0.166 F 
ATOM      2  F   UNL     1      -9.761   8.944  17.719  0.00  0.00    -0.166 F 
ATOM      3  F   UNL     1     -11.398   8.600  16.331  0.00  0.00    -0.166 F 
ATOM     26  C   UNL     1     -10.794   8.096  17.447  0.00  0.00    +0.417 C 
ENDBRANCH  23  26
ENDBRANCH  13  14
ENDBRANCH   4  13
TORSDOF 5
ENDMDL
MODEL 2
REMARK VINA RESULT:      -7.1     26.509     29.748
REMARK  Name = 45784327
REMARK  5 active torsions:
REMARK  status: ('A' for Active; 'I' for Inactive)
REMARK    1  A    between atoms: N_4  and  C_13
REMARK    2  A    between atoms: C_8  and  C_12
REMARK    3  A    between atoms: C_13  and  C_14
REMARK    4  A    between atoms: C_23  and  C_26
REMARK    5  A    between atoms: C_24  and  C_27
REMARK                            x       y       z     vdW  Elec       q    Type
REMARK                         _______ _______ _______ _____ _____    ______ ____
ROOT
ATOM      4  N   UNL     1      11.668   9.705  21.034  0.00  0.00    -0.297 NA
ATOM      8  C   UNL     1      13.603   9.230  19.797  0.00  0.00    +0.070 C 
ATOM      9  C   UNL     1      12.372   8.672  19.062  0.00  0.00    +0.028 C 
ATOM     10  C   UNL     1      13.108   9.517  21.221  0.00  0.00    +0.096 C 
ATOM     11  C   UNL     1      11.266   8.645  20.109  0.00  0.00    +0.085 C 
ENDROOT
BRANCH   8  12
ATOM      5  N   UNL     1      15.856   8.515  20.640  0.00  0.00    -0.342 N 
ATOM      6  N   UNL     1      15.038   7.333  18.944  0.00  0.00    -0.232 NA
ATOM     12  C   UNL     1      14.821   8.337  19.764  0.00  0.00    +0.113 A 
ATOM     15  C   UNL     1      16.804   7.563  20.366  0.00  0.00    +0.067 A 
ATOM     16  C   UNL     1      16.271   6.838  19.304  0.00  0.00    +0.089 A 
ATOM     19  C   UNL     1      18.045   7.282  20.939  0.00  0.00    +0.046 A 
ATOM     20  C   UNL     1      17.004   5.765  18.770  0.00  0.00    +0.031 A 
ATOM     24  C   UNL     1      18.761   6.211  20.394  0.00  0.00    +0.054 A 
ATOM     25  C   UNL     1      18.253   5.465  19.329  0.00  0.00    +0.021 A 
ATOM     28  H   UNL     1      15.916   9.222  21.361  0.00  0.00    +0.167 HD
BRANCH  24  27
ATOM      7  N   UNL     1      21.077   5.603  21.384  0.00  0.00    -0.191 NA
ATOM     27  C   UNL     1      20.040   5.875  20.941  0.00  0.00    +0.099 C 
ENDBRANCH  24  27
ENDBRANCH   8  12
BRANCH   4  13
ATOM     13  C   UNL     1      10.934   9.653  22.290  0.00  0.00    +0.119 C 
BRANCH  13  14
ATOM     14  C   UNL     1      10.943  10.980  23.000  0.00  0.00    -0.033 A 
ATOM     17  C   UNL     1      10.942  12.165  22.262  0.00  0.00    +0.005 A 
ATOM     18  C   UNL     1      10.949  11.028  24.394  0.00  0.00    +0.005 A 
ATOM     21  C   UNL     1      10.949  13.395  22.919  0.00  0.00    +0.012 A 
ATOM     22  C   UNL     1      10.957  12.258  25.051  0.00  0.00    +0.012 A 
ATOM     23  C   UNL     1      10.956  13.442  24.314  0.00  0.00    +0.055 A 
BRANCH  23  26
ATOM      1  F   UNL     1      11.050  14.654  26.373  0.00  0.00    -0.166 F 
ATOM      2  F   UNL     1       9.831  15.484  24.777  0.00  0.00    -0.166 F 
ATOM      3  F   UNL     1      12.000  15.567  24.651  0.00  0.00    -0.166 F 
ATOM     26  C   UNL     1      10.961  14.758  25.015  0.00  0.00    +0.417 C 
ENDBRANCH  23  26
ENDBRANCH  13  14
ENDBRANCH   4  13
TORSDOF 5
ENDMDL
MODEL 3
REMARK VINA RESULT:      -7.1     27.700     29.745
REMARK  Name = 45784327
REMARK  5 active torsions:
REMARK  status: ('A' for Active; 'I' for Inactive)
REMARK    1  A    between atoms: N_4  and  C_13
REMARK    2  A    between atoms: C_8  and  C_12
REMARK    3  A    between atoms: C_13  and  C_14
REMARK    4  A    between atoms: C_23  and  C_26
REMARK    5  A    between atoms: C_24  and  C_27
REMARK                            x       y       z     vdW  Elec       q    Type
REMARK                         _______ _______ _______ _____ _____    ______ ____
ROOT
ATOM      4  N   UNL     1      13.725   7.218  19.857  0.00  0.00    -0.297 NA
ATOM      8  C   UNL     1      12.509   8.287  21.553  0.00  0.00    +0.070 C 
ATOM      9  C   UNL     1      11.538   7.584  20.588  0.00  0.00    +0.028 C 
ATOM     10  C   UNL     1      13.842   8.336  20.795  0.00  0.00    +0.096 C 
ATOM     11  C   UNL     1      12.361   7.303  19.337  0.00  0.00    +0.085 C 
ENDROOT
BRANCH   8  12
ATOM      5  N   UNL     1      12.061   9.968  23.362  0.00  0.00    -0.342 N 
ATOM      6  N   UNL     1      11.617  10.637  21.290  0.00  0.00    -0.232 NA
ATOM     12  C   UNL     1      12.053   9.645  22.033  0.00  0.00    +0.113 A 
ATOM     15  C   UNL     1      11.598  11.252  23.484  0.00  0.00    +0.067 A 
ATOM     16  C   UNL     1      11.328  11.648  22.177  0.00  0.00    +0.089 A 
ATOM     19  C   UNL     1      11.399  12.078  24.592  0.00  0.00    +0.046 A 
ATOM     20  C   UNL     1      10.829  12.940  21.942  0.00  0.00    +0.031 A 
ATOM     24  C   UNL     1      10.902  13.360  24.339  0.00  0.00    +0.054 A 
ATOM     25  C   UNL     1      10.621  13.786  23.039  0.00  0.00    +0.021 A 
ATOM     28  H   UNL     1      12.354   9.368  24.123  0.00  0.00    +0.167 HD
BRANCH  24  27
ATOM      7  N   UNL     1      10.495  14.975  26.324  0.00  0.00    -0.191 NA
ATOM     27  C   UNL     1      10.678  14.252  25.435  0.00  0.00    +0.099 C 
ENDBRANCH  24  27
ENDBRANCH   8  12
BRANCH   4  13
ATOM     13  C   UNL     1      14.726   7.272  18.801  0.00  0.00    +0.119 C 
BRANCH  13  14
ATOM     14  C   UNL     1      16.093   6.889  19.302  0.00  0.00    -0.033 A 
ATOM     17  C   UNL     1      16.678   7.607  20.346  0.00  0.00    +0.005 A 
ATOM     18  C   UNL     1      16.773   5.816  18.727  0.00  0.00    +0.005 A 
ATOM     21  C   UNL     1      17.944   7.253  20.812  0.00  0.00    +0.012 A 
ATOM     22  C   UNL     1      18.039   5.462  19.192  0.00  0.00    +0.012 A 
ATOM     23  C   UNL     1      18.625   6.180  20.235  0.00  0.00    +0.055 A 
BRANCH  23  26
ATOM      1  F   UNL     1      20.984   6.573  20.234  0.00  0.00    -0.166 F 
ATOM      2  F   UNL     1      20.312   4.515  20.423  0.00  0.00    -0.166 F 
ATOM      3  F   UNL     1      20.102   5.890  22.094  0.00  0.00    -0.166 F 
ATOM     26  C   UNL     1      19.977   5.800  20.736  0.00  0.00    +0.417 C 
ENDBRANCH  23  26
ENDBRANCH  13  14
ENDBRANCH   4  13
TORSDOF 5
ENDMDL
MODEL 4
REMARK VINA RESULT:      -7.0      1.811      2.678
REMARK  Name = 45784327
REMARK  5 active torsions:
REMARK  status: ('A' for Active; 'I' for Inactive)
REMARK    1  A    between atoms: N_4  and  C_13
REMARK    2  A    between atoms: C_8  and  C_12
REMARK    3  A    between atoms: C_13  and  C_14
REMARK    4  A    between atoms: C_23  and  C_26
REMARK    5  A    between atoms: C_24  and  C_27
REMARK                            x       y       z     vdW  Elec       q    Type
REMARK                         _______ _______ _______ _____ _____    ______ ____
ROOT
ATOM      4  N   UNL     1     -13.228   6.438  21.010  0.00  0.00    -0.297 NA
ATOM      8  C   UNL     1     -14.899   4.999  21.807  0.00  0.00    +0.070 C 
ATOM      9  C   UNL     1     -15.539   6.310  21.319  0.00  0.00    +0.028 C 
ATOM     10  C   UNL     1     -13.405   5.322  21.941  0.00  0.00    +0.096 C 
ATOM     11  C   UNL     1     -14.387   7.302  21.233  0.00  0.00    +0.085 C 
ENDROOT
BRANCH   8  12
ATOM      5  N   UNL     1     -15.893   3.128  23.154  0.00  0.00    -0.342 N 
ATOM      6  N   UNL     1     -15.704   5.079  24.202  0.00  0.00    -0.232 NA
ATOM     12  C   UNL     1     -15.497   4.435  23.076  0.00  0.00    +0.113 A 
ATOM     15  C   UNL     1     -16.389   2.916  24.414  0.00  0.00    +0.067 A 
ATOM     16  C   UNL     1     -16.260   4.148  25.049  0.00  0.00    +0.089 A 
ATOM     19  C   UNL     1     -16.923   1.786  25.035  0.00  0.00    +0.046 A 
ATOM     20  C   UNL     1     -16.683   4.280  26.382  0.00  0.00    +0.031 A 
ATOM     24  C   UNL     1     -17.338   1.936  26.362  0.00  0.00    +0.054 A 
ATOM     25  C   UNL     1     -17.222   3.158  27.026  0.00  0.00    +0.021 A 
ATOM     28  H   UNL     1     -15.834   2.439  22.415  0.00  0.00    +0.167 HD
BRANCH  24  27
ATOM      7  N   UNL     1     -18.345  -0.098  27.612  0.00  0.00    -0.191 NA
ATOM     27  C   UNL     1     -17.894   0.812  27.052  0.00  0.00    +0.099 C 
ENDBRANCH  24  27
ENDBRANCH   8  12
BRANCH   4  13
ATOM     13  C   UNL     1     -11.967   7.136  21.213  0.00  0.00    +0.119 C 
BRANCH  13  14
ATOM     14  C   UNL     1     -11.569   7.939  20.004  0.00  0.00    -0.033 A 
ATOM     17  C   UNL     1     -11.464   7.317  18.759  0.00  0.00    +0.005 A 
ATOM     18  C   UNL     1     -11.308   9.304  20.126  0.00  0.00    +0.005 A 
ATOM     21  C   UNL     1     -11.095   8.060  17.638  0.00  0.00    +0.012 A 
ATOM     22  C   UNL     1     -10.939  10.047  19.005  0.00  0.00    +0.012 A 
ATOM     23  C   UNL     1     -10.833   9.425  17.761  0.00  0.00    +0.055 A 
BRANCH  23  26
ATOM      1  F   UNL     1     -11.433  11.041  16.102  0.00  0.00    -0.166 F 
ATOM      2  F   UNL     1     -10.099   9.434  15.499  0.00  0.00    -0.166 F 
ATOM      3  F   UNL     1      -9.371  11.039  16.772  0.00  0.00    -0.166 F 
ATOM     26  C   UNL     1     -10.443  10.220  16.560  0.00  0.00    +0.417 C 
ENDBRANCH  23  26
ENDBRANCH  13  14
ENDBRANCH   4  13
TORSDOF 5
ENDMDL
MODEL 5
REMARK VINA RESULT:      -6.9     19.717     20.912
REMARK  Name = 45784327
REMARK  5 active torsions:
REMARK  status: ('A' for Active; 'I' for Inactive)
REMARK    1  A    between atoms: N_4  and  C_13
REMARK    2  A    between atoms: C_8  and  C_12
REMARK    3  A    between atoms: C_13  and  C_14
REMARK    4  A    between atoms: C_23  and  C_26
REMARK    5  A    between atoms: C_24  and  C_27
REMARK                            x       y       z     vdW  Elec       q    Type
REMARK                         _______ _______ _______ _____ _____    ______ ____
ROOT
ATOM      4  N   UNL     1      -1.912 -10.914  13.812  0.00  0.00    -0.297 NA
ATOM      8  C   UNL     1      -3.058 -10.176  15.720  0.00  0.00    +0.070 C 
ATOM      9  C   UNL     1      -1.659 -10.673  16.120  0.00  0.00    +0.028 C 
ATOM     10  C   UNL     1      -3.277 -10.731  14.306  0.00  0.00    +0.096 C 
ATOM     11  C   UNL     1      -1.179 -11.499  14.934  0.00  0.00    +0.085 C 
ENDROOT
BRANCH   8  12
ATOM      5  N   UNL     1      -5.394  -9.956  16.612  0.00  0.00    -0.342 N 
ATOM      6  N   UNL     1      -4.100 -11.440  17.644  0.00  0.00    -0.232 NA
ATOM     12  C   UNL     1      -4.164 -10.551  16.679  0.00  0.00    +0.113 A 
ATOM     15  C   UNL     1      -6.174 -10.498  17.600  0.00  0.00    +0.067 A 
ATOM     16  C   UNL     1      -5.344 -11.421  18.230  0.00  0.00    +0.089 A 
ATOM     19  C   UNL     1      -7.496 -10.267  17.986  0.00  0.00    +0.046 A 
ATOM     20  C   UNL     1      -5.845 -12.168  19.310  0.00  0.00    +0.031 A 
ATOM     24  C   UNL     1      -7.977 -11.019  19.062  0.00  0.00    +0.054 A 
ATOM     25  C   UNL     1      -7.169 -11.952  19.714  0.00  0.00    +0.021 A 
ATOM     28  H   UNL     1      -5.680  -9.243  15.954  0.00  0.00    +0.167 HD
BRANCH  24  27
ATOM      7  N   UNL     1     -10.418 -10.671  19.859  0.00  0.00    -0.191 NA
ATOM     27  C   UNL     1      -9.325 -10.827  19.503  0.00  0.00    +0.099 C 
ENDBRANCH  24  27
ENDBRANCH   8  12
BRANCH   4  13
ATOM     13  C   UNL     1      -1.859 -11.747  12.619  0.00  0.00    +0.119 C 
BRANCH  13  14
ATOM     14  C   UNL     1      -2.768 -11.232  11.535  0.00  0.00    -0.033 A 
ATOM     17  C   UNL     1      -2.633  -9.921  11.077  0.00  0.00    +0.005 A 
ATOM     18  C   UNL     1      -3.742 -12.066  10.985  0.00  0.00    +0.005 A 
ATOM     21  C   UNL     1      -3.474  -9.443  10.072  0.00  0.00    +0.012 A 
ATOM     22  C   UNL     1      -4.583 -11.588   9.981  0.00  0.00    +0.012 A 
ATOM     23  C   UNL     1      -4.449 -10.278   9.523  0.00  0.00    +0.055 A 
BRANCH  23  26
ATOM      1  F   UNL     1      -4.833  -9.919   7.190  0.00  0.00    -0.166 F 
ATOM      2  F   UNL     1      -5.614  -8.435   8.573  0.00  0.00    -0.166 F 
ATOM      3  F   UNL     1      -6.564 -10.384   8.412  0.00  0.00    -0.166 F 
ATOM     26  C   UNL     1      -5.346  -9.767   8.446  0.00  0.00    +0.417 C 
ENDBRANCH  23  26
ENDBRANCH  13  14
ENDBRANCH   4  13
TORSDOF 5
ENDMDL
MODEL 6
REMARK VINA RESULT:      -6.9     33.653     36.830
REMARK  Name = 45784327
REMARK  5 active torsions:
REMARK  status: ('A' for Active; 'I' for Inactive)
REMARK    1  A    between atoms: N_4  and  C_13
REMARK    2  A    between atoms: C_8  and  C_12
REMARK    3  A    between atoms: C_13  and  C_14
REMARK    4  A    between atoms: C_23  and  C_26
REMARK    5  A    between atoms: C_24  and  C_27
REMARK                            x       y       z     vdW  Elec       q    Type
REMARK                         _______ _______ _______ _____ _____    ______ ____
ROOT
ATOM      4  N   UNL     1      22.851   4.092  21.929  0.00  0.00    -0.297 NA
ATOM      8  C   UNL     1      21.295   5.081  20.480  0.00  0.00    +0.070 C 
ATOM      9  C   UNL     1      22.504   6.016  20.653  0.00  0.00    +0.028 C 
ATOM     10  C   UNL     1      21.419   4.070  21.627  0.00  0.00    +0.096 C 
ATOM     11  C   UNL     1      23.222   5.507  21.895  0.00  0.00    +0.085 C 
ENDROOT
BRANCH   8  12
ATOM      5  N   UNL     1      18.936   5.319  19.656  0.00  0.00    -0.342 N 
ATOM      6  N   UNL     1      19.604   6.843  21.130  0.00  0.00    -0.232 NA
ATOM     12  C   UNL     1      19.954   5.776  20.447  0.00  0.00    +0.113 A 
ATOM     15  C   UNL     1      17.859   6.147  19.840  0.00  0.00    +0.067 A 
ATOM     16  C   UNL     1      18.301   7.090  20.764  0.00  0.00    +0.089 A 
ATOM     19  C   UNL     1      16.575   6.152  19.295  0.00  0.00    +0.046 A 
ATOM     20  C   UNL     1      17.424   8.105  21.181  0.00  0.00    +0.031 A 
ATOM     24  C   UNL     1      15.715   7.170  19.721  0.00  0.00    +0.054 A 
ATOM     25  C   UNL     1      16.129   8.130  20.646  0.00  0.00    +0.021 A 
ATOM     28  H   UNL     1      18.969   4.515  19.042  0.00  0.00    +0.167 HD
BRANCH  24  27
ATOM      7  N   UNL     1      13.307   7.272  18.770  0.00  0.00    -0.191 NA
ATOM     27  C   UNL     1      14.385   7.227  19.196  0.00  0.00    +0.099 C 
ENDBRANCH  24  27
ENDBRANCH   8  12
BRANCH   4  13
ATOM     13  C   UNL     1      23.160   3.467  23.207  0.00  0.00    +0.119 C 
BRANCH  13  14
ATOM     14  C   UNL     1      24.019   2.242  23.039  0.00  0.00    -0.033 A 
ATOM     17  C   UNL     1      24.329   1.779  21.760  0.00  0.00    +0.005 A 
ATOM     18  C   UNL     1      24.507   1.572  24.161  0.00  0.00    +0.005 A 
ATOM     21  C   UNL     1      25.125   0.644  21.604  0.00  0.00    +0.012 A 
ATOM     22  C   UNL     1      25.303   0.438  24.005  0.00  0.00    +0.012 A 
ATOM     23  C   UNL     1      25.613  -0.026  22.727  0.00  0.00    +0.055 A 
BRANCH  23  26
ATOM      1  F   UNL     1      26.118  -2.008  21.486  0.00  0.00    -0.166 F 
ATOM      2  F   UNL     1      26.418  -2.069  23.638  0.00  0.00    -0.166 F 
ATOM      3  F   UNL     1      27.790  -0.951  22.376  0.00  0.00    -0.166 F 
ATOM     26  C   UNL     1      26.467  -1.237  22.558  0.00  0.00    +0.417 C 
ENDBRANCH  23  26
ENDBRANCH  13  14
ENDBRANCH   4  13
TORSDOF 5
ENDMDL
MODEL 7
REMARK VINA RESULT:      -6.8     30.434     33.601
REMARK  Name = 45784327
REMARK  5 active torsions:
REMARK  status: ('A' for Active; 'I' for Inactive)
REMARK    1  A    between atoms: N_4  and  C_13
REMARK    2  A    between atoms: C_8  and  C_12
REMARK    3  A    between atoms: C_13  and  C_14
REMARK    4  A    between atoms: C_23  and  C_26
REMARK    5  A    between atoms: C_24  and  C_27
REMARK                            x       y       z     vdW  Elec       q    Type
REMARK                         _______ _______ _______ _____ _____    ______ ____
ROOT
ATOM      4  N   UNL     1      18.008   7.599  20.696  0.00  0.00    -0.297 NA
ATOM      8  C   UNL     1      19.833   6.179  20.308  0.00  0.00    +0.070 C 
ATOM      9  C   UNL     1      18.547   5.518  19.784  0.00  0.00    +0.028 C 
ATOM     10  C   UNL     1      19.344   7.312  21.220  0.00  0.00    +0.096 C 
ATOM     11  C   UNL     1      17.411   6.287  20.445  0.00  0.00    +0.085 C 
ENDROOT
BRANCH   8  12
ATOM      5  N   UNL     1      21.499   4.301  20.295  0.00  0.00    -0.342 N 
ATOM      6  N   UNL     1      21.067   5.196  22.283  0.00  0.00    -0.232 NA
ATOM     12  C   UNL     1      20.794   5.239  20.998  0.00  0.00    +0.113 A 
ATOM     15  C   UNL     1      22.277   3.608  21.186  0.00  0.00    +0.067 A 
ATOM     16  C   UNL     1      21.989   4.185  22.420  0.00  0.00    +0.089 A 
ATOM     19  C   UNL     1      23.181   2.557  21.024  0.00  0.00    +0.046 A 
ATOM     20  C   UNL     1      22.632   3.698  23.570  0.00  0.00    +0.031 A 
ATOM     24  C   UNL     1      23.811   2.085  22.179  0.00  0.00    +0.054 A 
ATOM     25  C   UNL     1      23.543   2.643  23.431  0.00  0.00    +0.021 A 
ATOM     28  H   UNL     1      21.456   4.143  19.297  0.00  0.00    +0.167 HD
BRANCH  24  27
ATOM      7  N   UNL     1      25.508   0.136  21.991  0.00  0.00    -0.191 NA
ATOM     27  C   UNL     1      24.748   1.009  22.076  0.00  0.00    +0.099 C 
ENDBRANCH  24  27
ENDBRANCH   8  12
BRANCH   4  13
ATOM     13  C   UNL     1      17.213   8.405  21.611  0.00  0.00    +0.119 C 
BRANCH  13  14
ATOM     14  C   UNL     1      15.755   8.406  21.237  0.00  0.00    -0.033 A 
ATOM     17  C   UNL     1      14.826   7.765  22.056  0.00  0.00    +0.005 A 
ATOM     18  C   UNL     1      15.332   9.049  20.073  0.00  0.00    +0.005 A 
ATOM     21  C   UNL     1      13.475   7.765  21.711  0.00  0.00    +0.012 A 
ATOM     22  C   UNL     1      13.981   9.049  19.728  0.00  0.00    +0.012 A 
ATOM     23  C   UNL     1      13.052   8.408  20.546  0.00  0.00    +0.055 A 
BRANCH  23  26
ATOM      1  F   UNL     1      11.382   8.275  18.840  0.00  0.00    -0.166 F 
ATOM      2  F   UNL     1      10.975   9.564  20.541  0.00  0.00    -0.166 F 
ATOM      3  F   UNL     1      10.893   7.403  20.764  0.00  0.00    -0.166 F 
ATOM     26  C   UNL     1      11.606   8.411  20.180  0.00  0.00    +0.417 C 
ENDBRANCH  23  26
ENDBRANCH  13  14
ENDBRANCH   4  13
TORSDOF 5
ENDMDL
MODEL 8
REMARK VINA RESULT:      -6.8     18.275     19.505
REMARK  Name = 45784327
REMARK  5 active torsions:
REMARK  status: ('A' for Active; 'I' for Inactive)
REMARK    1  A    between atoms: N_4  and  C_13
REMARK    2  A    between atoms: C_8  and  C_12
REMARK    3  A    between atoms: C_13  and  C_14
REMARK    4  A    between atoms: C_23  and  C_26
REMARK    5  A    between atoms: C_24  and  C_27
REMARK                            x       y       z     vdW  Elec       q    Type
REMARK                         _______ _______ _______ _____ _____    ______ ____
ROOT
ATOM      4  N   UNL     1      -4.233 -11.789  16.448  0.00  0.00    -0.297 NA
ATOM      8  C   UNL     1      -5.744 -10.318  17.473  0.00  0.00    +0.070 C 
ATOM      9  C   UNL     1      -5.448 -11.494  18.420  0.00  0.00    +0.028 C 
ATOM     10  C   UNL     1      -5.243 -10.788  16.101  0.00  0.00    +0.096 C 
ATOM     11  C   UNL     1      -4.829 -12.567  17.533  0.00  0.00    +0.085 C 
ENDROOT
BRANCH   8  12
ATOM      5  N   UNL     1      -7.609  -8.879  16.607  0.00  0.00    -0.342 N 
ATOM      6  N   UNL     1      -8.166 -10.332  18.194  0.00  0.00    -0.232 NA
ATOM     12  C   UNL     1      -7.186  -9.867  17.452  0.00  0.00    +0.113 A 
ATOM     15  C   UNL     1      -8.951  -8.694  16.819  0.00  0.00    +0.067 A 
ATOM     16  C   UNL     1      -9.275  -9.612  17.813  0.00  0.00    +0.089 A 
ATOM     19  C   UNL     1      -9.882  -7.828  16.242  0.00  0.00    +0.046 A 
ATOM     20  C   UNL     1     -10.601  -9.686  18.272  0.00  0.00    +0.031 A 
ATOM     24  C   UNL     1     -11.196  -7.916  16.711  0.00  0.00    +0.054 A 
ATOM     25  C   UNL     1     -11.552  -8.826  17.708  0.00  0.00    +0.021 A 
ATOM     28  H   UNL     1      -7.037  -8.372  15.944  0.00  0.00    +0.167 HD
BRANCH  24  27
ATOM      7  N   UNL     1     -13.004  -6.355  15.707  0.00  0.00    -0.191 NA
ATOM     27  C   UNL     1     -12.195  -7.054  16.157  0.00  0.00    +0.099 C 
ENDBRANCH  24  27
ENDBRANCH   8  12
BRANCH   4  13
ATOM     13  C   UNL     1      -3.859 -12.618  15.311  0.00  0.00    +0.119 C 
BRANCH  13  14
ATOM     14  C   UNL     1      -3.682 -11.804  14.057  0.00  0.00    -0.033 A 
ATOM     17  C   UNL     1      -4.679 -11.805  13.081  0.00  0.00    +0.005 A 
ATOM     18  C   UNL     1      -2.525 -11.048  13.871  0.00  0.00    +0.005 A 
ATOM     21  C   UNL     1      -4.517 -11.051  11.918  0.00  0.00    +0.012 A 
ATOM     22  C   UNL     1      -2.363 -10.295  12.709  0.00  0.00    +0.012 A 
ATOM     23  C   UNL     1      -3.359 -10.295  11.733  0.00  0.00    +0.055 A 
BRANCH  23  26
ATOM      1  F   UNL     1      -1.917  -9.018  10.314  0.00  0.00    -0.166 F 
ATOM      2  F   UNL     1      -3.991  -8.384  10.467  0.00  0.00    -0.166 F 
ATOM      3  F   UNL     1      -3.476 -10.175   9.347  0.00  0.00    -0.166 F 
ATOM     26  C   UNL     1      -3.188  -9.487  10.491  0.00  0.00    +0.417 C 
ENDBRANCH  23  26
ENDBRANCH  13  14
ENDBRANCH   4  13
TORSDOF 5
ENDMDL
MODEL 9
REMARK VINA RESULT:      -6.7     30.958     34.096
REMARK  Name = 45784327
REMARK  5 active torsions:
REMARK  status: ('A' for Active; 'I' for Inactive)
REMARK    1  A    between atoms: N_4  and  C_13
REMARK    2  A    between atoms: C_8  and  C_12
REMARK    3  A    between atoms: C_13  and  C_14
REMARK    4  A    between atoms: C_23  and  C_26
REMARK    5  A    between atoms: C_24  and  C_27
REMARK                            x       y       z     vdW  Elec       q    Type
REMARK                         _______ _______ _______ _____ _____    ______ ____
ROOT
ATOM      4  N   UNL     1      20.531   7.039  22.155  0.00  0.00    -0.297 NA
ATOM      8  C   UNL     1      18.693   7.688  20.851  0.00  0.00    +0.070 C 
ATOM      9  C   UNL     1      19.176   8.883  21.692  0.00  0.00    +0.028 C 
ATOM     10  C   UNL     1      19.355   6.465  21.499  0.00  0.00    +0.096 C 
ATOM     11  C   UNL     1      20.052   8.272  22.778  0.00  0.00    +0.085 C 
ENDROOT
BRANCH   8  12
ATOM      5  N   UNL     1      16.368   7.917  21.767  0.00  0.00    -0.342 N 
ATOM      6  N   UNL     1      16.519   7.108  19.702  0.00  0.00    -0.232 NA
ATOM     12  C   UNL     1      17.192   7.556  20.737  0.00  0.00    +0.113 A 
ATOM     15  C   UNL     1      15.077   7.684  21.369  0.00  0.00    +0.067 A 
ATOM     16  C   UNL     1      15.197   7.180  20.078  0.00  0.00    +0.089 A 
ATOM     19  C   UNL     1      13.850   7.867  22.010  0.00  0.00    +0.046 A 
ATOM     20  C   UNL     1      14.036   6.832  19.367  0.00  0.00    +0.031 A 
ATOM     24  C   UNL     1      12.705   7.516  21.287  0.00  0.00    +0.054 A 
ATOM     25  C   UNL     1      12.794   7.007  19.990  0.00  0.00    +0.021 A 
ATOM     28  H   UNL     1      16.655   8.287  22.663  0.00  0.00    +0.167 HD
BRANCH  24  27
ATOM      7  N   UNL     1      10.375   7.815  22.379  0.00  0.00    -0.191 NA
ATOM     27  C   UNL     1      11.419   7.681  21.891  0.00  0.00    +0.099 C 
ENDBRANCH  24  27
ENDBRANCH   8  12
BRANCH   4  13
ATOM     13  C   UNL     1      21.131   6.127  23.118  0.00  0.00    +0.119 C 
BRANCH  13  14
ATOM     14  C   UNL     1      22.050   5.136  22.455  0.00  0.00    -0.033 A 
ATOM     17  C   UNL     1      22.279   3.893  23.048  0.00  0.00    +0.005 A 
ATOM     18  C   UNL     1      22.672   5.457  21.248  0.00  0.00    +0.005 A 
ATOM     21  C   UNL     1      23.130   2.975  22.434  0.00  0.00    +0.012 A 
ATOM     22  C   UNL     1      23.523   4.538  20.635  0.00  0.00    +0.012 A 
ATOM     23  C   UNL     1      23.752   3.297  21.227  0.00  0.00    +0.055 A 
BRANCH  23  26
ATOM      1  F   UNL     1      25.929   2.318  21.073  0.00  0.00    -0.166 F 
ATOM      2  F   UNL     1      24.795   2.534  19.231  0.00  0.00    -0.166 F 
ATOM      3  F   UNL     1      24.236   1.018  20.686  0.00  0.00    -0.166 F 
ATOM     26  C   UNL     1      24.659   2.312  20.570  0.00  0.00    +0.417 C 
ENDBRANCH  23  26
ENDBRANCH  13  14
ENDBRANCH   4  13
TORSDOF 5
ENDMDL
MODEL 10
REMARK VINA RESULT:      -6.7     28.368     33.420
REMARK  Name = 45784327
REMARK  5 active torsions:
REMARK  status: ('A' for Active; 'I' for Inactive)
REMARK    1  A    between atoms: N_4  and  C_13
REMARK    2  A    between atoms: C_8  and  C_12
REMARK    3  A    between atoms: C_13  and  C_14
REMARK    4  A    between atoms: C_23  and  C_26
REMARK    5  A    between atoms: C_24  and  C_27
REMARK                            x       y       z     vdW  Elec       q    Type
REMARK                         _______ _______ _______ _____ _____    ______ ____
ROOT
ATOM      4  N   UNL     1      14.309   6.525   2.217  0.00  0.00    -0.297 NA
ATOM      8  C   UNL     1      12.625   7.552   3.485  0.00  0.00    +0.070 C 
ATOM      9  C   UNL     1      13.981   8.203   3.807  0.00  0.00    +0.028 C 
ATOM     10  C   UNL     1      12.983   6.243   2.769  0.00  0.00    +0.096 C 
ATOM     11  C   UNL     1      15.024   7.222   3.287  0.00  0.00    +0.085 C 
ENDROOT
BRANCH   8  12
ATOM      5  N   UNL     1      11.853   6.248   5.486  0.00  0.00    -0.342 N 
ATOM      6  N   UNL     1      10.751   8.134   5.077  0.00  0.00    -0.232 NA
ATOM     12  C   UNL     1      11.722   7.344   4.678  0.00  0.00    +0.113 A 
ATOM     15  C   UNL     1      10.903   6.339   6.471  0.00  0.00    +0.067 A 
ATOM     16  C   UNL     1      10.228   7.524   6.193  0.00  0.00    +0.089 A 
ATOM     19  C   UNL     1      10.586   5.510   7.548  0.00  0.00    +0.046 A 
ATOM     20  C   UNL     1       9.172   7.923   7.029  0.00  0.00    +0.031 A 
ATOM     24  C   UNL     1       9.532   5.923   8.370  0.00  0.00    +0.054 A 
ATOM     25  C   UNL     1       8.836   7.106   8.117  0.00  0.00    +0.021 A 
ATOM     28  H   UNL     1      12.528   5.503   5.379  0.00  0.00    +0.167 HD
BRANCH  24  27
ATOM      7  N   UNL     1       8.861   4.458  10.398  0.00  0.00    -0.191 NA
ATOM     27  C   UNL     1       9.161   5.114   9.490  0.00  0.00    +0.099 C 
ENDBRANCH  24  27
ENDBRANCH   8  12
BRANCH   4  13
ATOM     13  C   UNL     1      14.999   5.319   1.783  0.00  0.00    +0.119 C 
BRANCH  13  14
ATOM     14  C   UNL     1      14.265   4.623   0.669  0.00  0.00    -0.033 A 
ATOM     17  C   UNL     1      13.517   3.476   0.937  0.00  0.00    +0.005 A 
ATOM     18  C   UNL     1      14.328   5.125  -0.631  0.00  0.00    +0.005 A 
ATOM     21  C   UNL     1      12.836   2.830  -0.094  0.00  0.00    +0.012 A 
ATOM     22  C   UNL     1      13.647   4.479  -1.663  0.00  0.00    +0.012 A 
ATOM     23  C   UNL     1      12.901   3.332  -1.395  0.00  0.00    +0.055 A 
BRANCH  23  26
ATOM      1  F   UNL     1      10.953   3.198  -2.777  0.00  0.00    -0.166 F 
ATOM      2  F   UNL     1      11.917   1.331  -2.220  0.00  0.00    -0.166 F 
ATOM      3  F   UNL     1      12.843   2.644  -3.685  0.00  0.00    -0.166 F 
ATOM     26  C   UNL     1      12.169   2.643  -2.497  0.00  0.00    +0.417 C 
ENDBRANCH  23  26
ENDBRANCH  13  14
ENDBRANCH   4  13
TORSDOF 5
ENDMDL
