REMARK  Name = 51137740
REMARK  5 active torsions:
REMARK  status: ('A' for Active; 'I' for Inactive)
REMARK    1  A    between atoms: S_1  and  N_5
REMARK    2  A    between atoms: S_1  and  C_14
REMARK    3  A    between atoms: C_9  and  C_13
REMARK    4  A    between atoms: C_17  and  C_20
REMARK    5  A    between atoms: C_21  and  C_26
REMARK                            x       y       z     vdW  Elec       q    Type
REMARK                         _______ _______ _______ _____ _____    ______ ____
ROOT
ATOM      5  N   UNL     1      -3.132   1.566   0.254  0.00  0.00    -0.176 NA
ATOM      9  C   UNL     1      -1.167   2.670  -0.622  0.00  0.00    +0.094 C 
ATOM     10  C   UNL     1      -2.261   2.593  -1.688  0.00  0.00    +0.031 C 
ATOM     11  C   UNL     1      -1.924   2.336   0.674  0.00  0.00    +0.122 C 
ATOM     12  C   UNL     1      -3.140   1.440  -1.223  0.00  0.00    +0.110 C 
ENDROOT
BRANCH   9  13
ATOM      2  O   UNL     1       1.073   1.806  -0.106  0.00  0.00    -0.420 OA
ATOM      6  N   UNL     1       0.199   0.993  -1.998  0.00  0.00    -0.112 NA
ATOM      7  N   UNL     1       1.450   0.430  -1.829  0.00  0.00    -0.107 NA
ATOM     13  C   UNL     1       0.021   1.789  -0.970  0.00  0.00    +0.222 A 
ATOM     17  C   UNL     1       1.923   0.933  -0.713  0.00  0.00    +0.248 A 
BRANCH  17  20
ATOM     20  C   UNL     1       3.173   0.708  -0.047  0.00  0.00    +0.038 A 
ATOM     22  C   UNL     1       4.107  -0.171  -0.594  0.00  0.00    +0.013 A 
ATOM     23  C   UNL     1       3.454   1.369   1.149  0.00  0.00    +0.013 A 
ATOM     24  C   UNL     1       5.322  -0.390   0.054  0.00  0.00    +0.001 A 
ATOM     25  C   UNL     1       4.670   1.151   1.797  0.00  0.00    +0.001 A 
ATOM     27  C   UNL     1       5.604   0.271   1.249  0.00  0.00    +0.000 A 
ENDBRANCH  17  20
ENDBRANCH   9  13
BRANCH   5   1
ATOM      1  S   UNL     1      -3.621   0.236   1.183  0.00  0.00    +0.061 S 
ATOM      3  O   UNL     1      -4.926  -0.216   0.735  0.00  0.00    -0.153 OA
ATOM      4  O   UNL     1      -3.382   0.512   2.588  0.00  0.00    -0.153 OA
BRANCH   1  14
ATOM     14  C   UNL     1      -2.436  -0.971   0.668  0.00  0.00    +0.106 A 
ATOM     15  C   UNL     1      -1.228  -1.099   1.353  0.00  0.00    +0.030 A 
ATOM     16  C   UNL     1      -2.709  -1.795  -0.424  0.00  0.00    +0.030 A 
ATOM     18  C   UNL     1      -0.293  -2.051   0.947  0.00  0.00    +0.021 A 
ATOM     19  C   UNL     1      -1.774  -2.747  -0.830  0.00  0.00    +0.021 A 
ATOM     21  C   UNL     1      -0.566  -2.875  -0.145  0.00  0.00    +0.052 A 
BRANCH  21  26
ATOM      8  N   UNL     1       1.171  -4.641  -0.900  0.00  0.00    -0.191 NA
ATOM     26  C   UNL     1       0.392  -3.850  -0.561  0.00  0.00    +0.099 C 
ENDBRANCH  21  26
ENDBRANCH   1  14
ENDBRANCH   5   1
TORSDOF 5
