MODEL 1
REMARK VINA RESULT:      -5.6      0.000      0.000
REMARK  Name = 38026427
REMARK  11 active torsions:
REMARK  status: ('A' for Active; 'I' for Inactive)
REMARK    1  A    between atoms: O_3  and  C_16
REMARK    2  A    between atoms: N_6  and  C_14
REMARK    3  A    between atoms: N_6  and  C_17
REMARK    4  A    between atoms: N_6  and  C_18
REMARK    5  A    between atoms: C_7  and  C_11
REMARK    6  A    between atoms: C_8  and  C_13
REMARK    7  A    between atoms: C_11  and  C_14
REMARK    8  A    between atoms: C_13  and  C_16
REMARK    9  A    between atoms: C_15  and  C_19
REMARK   10  A    between atoms: C_17  and  C_20
REMARK   11  A    between atoms: C_18  and  C_21
REMARK                            x       y       z     vdW  Elec       q    Type
REMARK                         _______ _______ _______ _____ _____    ______ ____
ROOT
ATOM      2  O   UNL     1      -1.523  -9.911  12.349  0.00  0.00    -0.270 OA
ATOM      5  N   UNL     1      -2.733 -11.313  13.779  0.00  0.00    -0.297 N 
ATOM      7  C   UNL     1      -4.570 -11.641  15.420  0.00  0.00    +0.011 C 
ATOM      8  C   UNL     1      -3.507 -11.662  16.548  0.00  0.00    +0.006 C 
ATOM      9  C   UNL     1      -2.248 -10.870  16.154  0.00  0.00    +0.023 C 
ATOM     10  C   UNL     1      -3.936 -12.095  14.092  0.00  0.00    +0.112 C 
ATOM     12  C   UNL     1      -1.697 -11.340  14.810  0.00  0.00    +0.108 C 
ATOM     15  C   UNL     1      -2.525 -10.572  12.614  0.00  0.00    +0.247 C 
ENDROOT
BRANCH  15  19
ATOM      1  F   UNL     1      -6.577 -10.559   8.753  0.00  0.00    -0.205 F 
ATOM     19  C   UNL     1      -3.587 -10.568  11.601  0.00  0.00    +0.037 A 
ATOM     22  C   UNL     1      -3.556 -11.489  10.553  0.00  0.00    +0.016 A 
ATOM     23  C   UNL     1      -4.630  -9.645  11.687  0.00  0.00    +0.016 A 
ATOM     24  C   UNL     1      -4.565 -11.485   9.591  0.00  0.00    +0.039 A 
ATOM     25  C   UNL     1      -5.639  -9.641  10.724  0.00  0.00    +0.039 A 
ATOM     26  C   UNL     1      -5.607 -10.562   9.676  0.00  0.00    +0.123 A 
ENDBRANCH  15  19
BRANCH   7  11
ATOM     11  C   UNL     1      -5.261 -10.283  15.242  0.00  0.00    +0.020 C 
BRANCH  11  14
ATOM     14  C   UNL     1      -6.776 -10.439  15.246  0.00  0.00    +0.084 C 
BRANCH  14   6
ATOM      6  N   UNL     1      -7.363  -9.552  16.242  0.00  0.00    -0.303 NA
BRANCH   6  17
ATOM     17  C   UNL     1      -7.303 -10.159  17.572  0.00  0.00    +0.081 C 
ATOM     20  C   UNL     1      -7.791 -11.598  17.542  0.00  0.00    +0.020 C 
ENDBRANCH   6  17
BRANCH   6  18
ATOM     18  C   UNL     1      -8.748  -9.231  15.893  0.00  0.00    +0.081 C 
ATOM     21  C   UNL     1      -9.375  -8.310  16.926  0.00  0.00    +0.020 C 
ENDBRANCH   6  18
ENDBRANCH  14   6
ENDBRANCH  11  14
ENDBRANCH   7  11
BRANCH   8  13
ATOM     13  C   UNL     1      -4.048 -11.181  17.894  0.00  0.00    +0.124 C 
BRANCH  13  16
ATOM      4  O   UNL     1      -3.427 -12.175  20.030  0.00  0.00    -0.251 OA
ATOM     16  C   UNL     1      -3.973 -12.257  18.939  0.00  0.00    +0.305 C 
BRANCH  16   3
ATOM      3  O   UNL     1      -4.613 -13.370  18.498  0.00  0.00    -0.481 OA
ATOM     27  H   UNL     1      -5.588 -13.282  18.566  0.00  0.00    +0.295 HD
ENDBRANCH  16   3
ENDBRANCH  13  16
ENDBRANCH   8  13
TORSDOF 9
ENDMDL
MODEL 2
REMARK VINA RESULT:      -5.4      2.475      6.193
REMARK  Name = 38026427
REMARK  11 active torsions:
REMARK  status: ('A' for Active; 'I' for Inactive)
REMARK    1  A    between atoms: O_3  and  C_16
REMARK    2  A    between atoms: N_6  and  C_14
REMARK    3  A    between atoms: N_6  and  C_17
REMARK    4  A    between atoms: N_6  and  C_18
REMARK    5  A    between atoms: C_7  and  C_11
REMARK    6  A    between atoms: C_8  and  C_13
REMARK    7  A    between atoms: C_11  and  C_14
REMARK    8  A    between atoms: C_13  and  C_16
REMARK    9  A    between atoms: C_15  and  C_19
REMARK   10  A    between atoms: C_17  and  C_20
REMARK   11  A    between atoms: C_18  and  C_21
REMARK                            x       y       z     vdW  Elec       q    Type
REMARK                         _______ _______ _______ _____ _____    ______ ____
ROOT
ATOM      2  O   UNL     1      -8.762 -11.436  18.103  0.00  0.00    -0.270 OA
ATOM      5  N   UNL     1      -6.773 -10.436  17.384  0.00  0.00    -0.297 N 
ATOM      7  C   UNL     1      -5.064 -10.077  15.616  0.00  0.00    +0.011 C 
ATOM      8  C   UNL     1      -4.123 -11.040  16.384  0.00  0.00    +0.006 C 
ATOM      9  C   UNL     1      -4.917 -12.048  17.232  0.00  0.00    +0.023 C 
ATOM     10  C   UNL     1      -6.059  -9.424  16.593  0.00  0.00    +0.112 C 
ATOM     12  C   UNL     1      -5.913 -11.339  18.145  0.00  0.00    +0.108 C 
ATOM     15  C   UNL     1      -8.160 -10.587  17.447  0.00  0.00    +0.247 C 
ENDROOT
BRANCH  15  19
ATOM      1  F   UNL     1     -11.332  -7.058  14.481  0.00  0.00    -0.205 F 
ATOM     19  C   UNL     1      -8.991  -9.662  16.669  0.00  0.00    +0.037 A 
ATOM     22  C   UNL     1      -9.367  -9.989  15.366  0.00  0.00    +0.016 A 
ATOM     23  C   UNL     1      -9.407  -8.455  17.233  0.00  0.00    +0.016 A 
ATOM     24  C   UNL     1     -10.157  -9.109  14.627  0.00  0.00    +0.039 A 
ATOM     25  C   UNL     1     -10.196  -7.576  16.493  0.00  0.00    +0.039 A 
ATOM     26  C   UNL     1     -10.572  -7.902  15.190  0.00  0.00    +0.123 A 
ENDBRANCH  15  19
BRANCH   7  11
ATOM     11  C   UNL     1      -5.817 -10.737  14.454  0.00  0.00    +0.020 C 
BRANCH  11  14
ATOM     14  C   UNL     1      -5.715  -9.892  13.191  0.00  0.00    +0.084 C 
BRANCH  14   6
ATOM      6  N   UNL     1      -4.540 -10.286  12.424  0.00  0.00    -0.303 NA
BRANCH   6  17
ATOM     17  C   UNL     1      -4.432  -9.490  11.200  0.00  0.00    +0.081 C 
ATOM     20  C   UNL     1      -5.715  -8.721  10.931  0.00  0.00    +0.020 C 
ENDBRANCH   6  17
BRANCH   6  18
ATOM     18  C   UNL     1      -4.590 -11.712  12.099  0.00  0.00    +0.081 C 
ATOM     21  C   UNL     1      -3.223 -12.232  11.689  0.00  0.00    +0.020 C 
ENDBRANCH   6  18
ENDBRANCH  14   6
ENDBRANCH  11  14
ENDBRANCH   7  11
BRANCH   8  13
ATOM     13  C   UNL     1      -3.131 -11.764  15.474  0.00  0.00    +0.124 C 
BRANCH  13  16
ATOM      4  O   UNL     1      -1.647 -10.278  14.238  0.00  0.00    -0.251 OA
ATOM     16  C   UNL     1      -1.897 -10.941  15.233  0.00  0.00    +0.305 C 
BRANCH  16   3
ATOM      3  O   UNL     1      -1.067 -11.036  16.305  0.00  0.00    -0.481 OA
ATOM     27  H   UNL     1      -0.278 -10.462  16.208  0.00  0.00    +0.295 HD
ENDBRANCH  16   3
ENDBRANCH  13  16
ENDBRANCH   8  13
TORSDOF 9
ENDMDL
MODEL 3
REMARK VINA RESULT:      -5.4      2.763      4.582
REMARK  Name = 38026427
REMARK  11 active torsions:
REMARK  status: ('A' for Active; 'I' for Inactive)
REMARK    1  A    between atoms: O_3  and  C_16
REMARK    2  A    between atoms: N_6  and  C_14
REMARK    3  A    between atoms: N_6  and  C_17
REMARK    4  A    between atoms: N_6  and  C_18
REMARK    5  A    between atoms: C_7  and  C_11
REMARK    6  A    between atoms: C_8  and  C_13
REMARK    7  A    between atoms: C_11  and  C_14
REMARK    8  A    between atoms: C_13  and  C_16
REMARK    9  A    between atoms: C_15  and  C_19
REMARK   10  A    between atoms: C_17  and  C_20
REMARK   11  A    between atoms: C_18  and  C_21
REMARK                            x       y       z     vdW  Elec       q    Type
REMARK                         _______ _______ _______ _____ _____    ______ ____
ROOT
ATOM      2  O   UNL     1      -6.096 -12.451  10.890  0.00  0.00    -0.270 OA
ATOM      5  N   UNL     1      -6.763 -10.875  12.485  0.00  0.00    -0.297 N 
ATOM      7  C   UNL     1      -6.600  -9.938  14.781  0.00  0.00    +0.011 C 
ATOM      8  C   UNL     1      -7.951 -10.621  15.114  0.00  0.00    +0.006 C 
ATOM      9  C   UNL     1      -8.190 -11.861  14.235  0.00  0.00    +0.023 C 
ATOM     10  C   UNL     1      -6.512  -9.658  13.269  0.00  0.00    +0.112 C 
ATOM     12  C   UNL     1      -8.045 -11.524  12.753  0.00  0.00    +0.108 C 
ATOM     15  C   UNL     1      -5.893 -11.430  11.544  0.00  0.00    +0.247 C 
ENDROOT
BRANCH  15  19
ATOM      1  F   UNL     1      -1.021  -8.836  10.621  0.00  0.00    -0.205 F 
ATOM     19  C   UNL     1      -4.615 -10.750  11.302  0.00  0.00    +0.037 A 
ATOM     22  C   UNL     1      -4.499  -9.835  10.255  0.00  0.00    +0.016 A 
ATOM     23  C   UNL     1      -3.516 -11.018  12.119  0.00  0.00    +0.016 A 
ATOM     24  C   UNL     1      -3.286  -9.189  10.025  0.00  0.00    +0.039 A 
ATOM     25  C   UNL     1      -2.302 -10.372  11.887  0.00  0.00    +0.039 A 
ATOM     26  C   UNL     1      -2.186  -9.457  10.841  0.00  0.00    +0.123 A 
ENDBRANCH  15  19
BRANCH   7  11
ATOM     11  C   UNL     1      -5.372 -10.728  15.247  0.00  0.00    +0.020 C 
BRANCH  11  14
ATOM     14  C   UNL     1      -4.615  -9.968  16.328  0.00  0.00    +0.084 C 
BRANCH  14   6
ATOM      6  N   UNL     1      -3.659 -10.854  16.980  0.00  0.00    -0.303 NA
BRANCH   6  17
ATOM     17  C   UNL     1      -2.675 -11.350  16.016  0.00  0.00    +0.081 C 
ATOM     20  C   UNL     1      -1.616 -10.300  15.724  0.00  0.00    +0.020 C 
ENDBRANCH   6  17
BRANCH   6  18
ATOM     18  C   UNL     1      -4.349 -11.975  17.621  0.00  0.00    +0.081 C 
ATOM     21  C   UNL     1      -4.310 -11.852  19.135  0.00  0.00    +0.020 C 
ENDBRANCH   6  18
ENDBRANCH  14   6
ENDBRANCH  11  14
ENDBRANCH   7  11
BRANCH   8  13
ATOM     13  C   UNL     1      -8.098 -10.973  16.594  0.00  0.00    +0.124 C 
BRANCH  13  16
ATOM      4  O   UNL     1      -8.842  -8.737  17.216  0.00  0.00    -0.251 OA
ATOM     16  C   UNL     1      -8.186  -9.741  17.451  0.00  0.00    +0.305 C 
BRANCH  16   3
ATOM      3  O   UNL     1      -7.415  -9.898  18.557  0.00  0.00    -0.481 OA
ATOM     27  H   UNL     1      -7.319 -10.843  18.805  0.00  0.00    +0.295 HD
ENDBRANCH  16   3
ENDBRANCH  13  16
ENDBRANCH   8  13
TORSDOF 9
ENDMDL
MODEL 4
REMARK VINA RESULT:      -5.3     20.529     23.210
REMARK  Name = 38026427
REMARK  11 active torsions:
REMARK  status: ('A' for Active; 'I' for Inactive)
REMARK    1  A    between atoms: O_3  and  C_16
REMARK    2  A    between atoms: N_6  and  C_14
REMARK    3  A    between atoms: N_6  and  C_17
REMARK    4  A    between atoms: N_6  and  C_18
REMARK    5  A    between atoms: C_7  and  C_11
REMARK    6  A    between atoms: C_8  and  C_13
REMARK    7  A    between atoms: C_11  and  C_14
REMARK    8  A    between atoms: C_13  and  C_16
REMARK    9  A    between atoms: C_15  and  C_19
REMARK   10  A    between atoms: C_17  and  C_20
REMARK   11  A    between atoms: C_18  and  C_21
REMARK                            x       y       z     vdW  Elec       q    Type
REMARK                         _______ _______ _______ _____ _____    ______ ____
ROOT
ATOM      2  O   UNL     1     -12.795   8.032  16.235  0.00  0.00    -0.270 OA
ATOM      5  N   UNL     1     -11.018   9.261  17.132  0.00  0.00    -0.297 N 
ATOM      7  C   UNL     1     -10.187  11.253  18.364  0.00  0.00    +0.011 C 
ATOM      8  C   UNL     1      -9.711  11.843  17.012  0.00  0.00    +0.006 C 
ATOM      9  C   UNL     1     -10.541  11.301  15.836  0.00  0.00    +0.023 C 
ATOM     10  C   UNL     1     -10.224   9.715  18.283  0.00  0.00    +0.112 C 
ATOM     12  C   UNL     1     -10.573   9.775  15.838  0.00  0.00    +0.108 C 
ATOM     15  C   UNL     1     -12.124   8.411  17.193  0.00  0.00    +0.247 C 
ENDROOT
BRANCH  15  19
ATOM      1  F   UNL     1     -13.714   6.518  22.214  0.00  0.00    -0.205 F 
ATOM     19  C   UNL     1     -12.541   7.915  18.510  0.00  0.00    +0.037 A 
ATOM     22  C   UNL     1     -13.846   8.128  18.955  0.00  0.00    +0.016 A 
ATOM     23  C   UNL     1     -11.632   7.229  19.317  0.00  0.00    +0.016 A 
ATOM     24  C   UNL     1     -14.242   7.657  20.206  0.00  0.00    +0.039 A 
ATOM     25  C   UNL     1     -12.029   6.759  20.568  0.00  0.00    +0.039 A 
ATOM     26  C   UNL     1     -13.334   6.971  21.013  0.00  0.00    +0.123 A 
ENDBRANCH  15  19
BRANCH   7  11
ATOM     11  C   UNL     1     -11.542  11.793  18.836  0.00  0.00    +0.020 C 
BRANCH  11  14
ATOM     14  C   UNL     1     -11.956  11.148  20.153  0.00  0.00    +0.084 C 
BRANCH  14   6
ATOM      6  N   UNL     1     -13.171  11.779  20.653  0.00  0.00    -0.303 NA
BRANCH   6  17
ATOM     17  C   UNL     1     -13.771  10.970  21.716  0.00  0.00    +0.081 C 
ATOM     20  C   UNL     1     -12.704  10.303  22.567  0.00  0.00    +0.020 C 
ENDBRANCH   6  17
BRANCH   6  18
ATOM     18  C   UNL     1     -14.131  11.983  19.568  0.00  0.00    +0.081 C 
ATOM     21  C   UNL     1     -15.481  11.374  19.906  0.00  0.00    +0.020 C 
ENDBRANCH   6  18
ENDBRANCH  14   6
ENDBRANCH  11  14
ENDBRANCH   7  11
BRANCH   8  13
ATOM     13  C   UNL     1      -9.689  13.371  16.997  0.00  0.00    +0.124 C 
BRANCH  13  16
ATOM      4  O   UNL     1      -7.281  13.446  16.630  0.00  0.00    -0.251 OA
ATOM     16  C   UNL     1      -8.292  13.907  17.138  0.00  0.00    +0.305 C 
BRANCH  16   3
ATOM      3  O   UNL     1      -8.302  15.009  17.932  0.00  0.00    -0.481 OA
ATOM     27  H   UNL     1      -8.845  15.731  17.548  0.00  0.00    +0.295 HD
ENDBRANCH  16   3
ENDBRANCH  13  16
ENDBRANCH   8  13
TORSDOF 9
ENDMDL
MODEL 5
REMARK VINA RESULT:      -5.1     23.951     26.205
REMARK  Name = 38026427
REMARK  11 active torsions:
REMARK  status: ('A' for Active; 'I' for Inactive)
REMARK    1  A    between atoms: O_3  and  C_16
REMARK    2  A    between atoms: N_6  and  C_14
REMARK    3  A    between atoms: N_6  and  C_17
REMARK    4  A    between atoms: N_6  and  C_18
REMARK    5  A    between atoms: C_7  and  C_11
REMARK    6  A    between atoms: C_8  and  C_13
REMARK    7  A    between atoms: C_11  and  C_14
REMARK    8  A    between atoms: C_13  and  C_16
REMARK    9  A    between atoms: C_15  and  C_19
REMARK   10  A    between atoms: C_17  and  C_20
REMARK   11  A    between atoms: C_18  and  C_21
REMARK                            x       y       z     vdW  Elec       q    Type
REMARK                         _______ _______ _______ _____ _____    ______ ____
ROOT
ATOM      2  O   UNL     1       9.779   3.800   5.491  0.00  0.00    -0.270 OA
ATOM      5  N   UNL     1      10.779   5.202   3.908  0.00  0.00    -0.297 N 
ATOM      7  C   UNL     1      10.572   6.880   2.086  0.00  0.00    +0.011 C 
ATOM      8  C   UNL     1      10.891   5.756   1.067  0.00  0.00    +0.006 C 
ATOM      9  C   UNL     1      10.487   4.373   1.606  0.00  0.00    +0.023 C 
ATOM     10  C   UNL     1      11.189   6.538   3.455  0.00  0.00    +0.112 C 
ATOM     12  C   UNL     1      11.096   4.116   2.982  0.00  0.00    +0.108 C 
ATOM     15  C   UNL     1      10.129   4.915   5.110  0.00  0.00    +0.247 C 
ENDROOT
BRANCH  15  19
ATOM      1  F   UNL     1       8.979   9.168   8.560  0.00  0.00    -0.205 F 
ATOM     19  C   UNL     1       9.828   6.031   6.014  0.00  0.00    +0.037 A 
ATOM     22  C   UNL     1       8.570   6.633   5.984  0.00  0.00    +0.016 A 
ATOM     23  C   UNL     1      10.799   6.489   6.906  0.00  0.00    +0.016 A 
ATOM     24  C   UNL     1       8.283   7.693   6.843  0.00  0.00    +0.039 A 
ATOM     25  C   UNL     1      10.511   7.549   7.764  0.00  0.00    +0.039 A 
ATOM     26  C   UNL     1       9.253   8.151   7.734  0.00  0.00    +0.123 A 
ENDBRANCH  15  19
BRANCH   7  11
ATOM     11  C   UNL     1       9.075   7.176   2.237  0.00  0.00    +0.020 C 
BRANCH  11  14
ATOM     14  C   UNL     1       8.806   8.673   2.156  0.00  0.00    +0.084 C 
BRANCH  14   6
ATOM      6  N   UNL     1       8.495   9.193   3.482  0.00  0.00    -0.303 NA
BRANCH   6  17
ATOM     17  C   UNL     1       7.090   9.598   3.560  0.00  0.00    +0.081 C 
ATOM     20  C   UNL     1       6.504   9.816   2.176  0.00  0.00    +0.020 C 
ENDBRANCH   6  17
BRANCH   6  18
ATOM     18  C   UNL     1       9.366  10.323   3.810  0.00  0.00    +0.081 C 
ATOM     21  C   UNL     1      10.502   9.894   4.724  0.00  0.00    +0.020 C 
ENDBRANCH   6  18
ENDBRANCH  14   6
ENDBRANCH  11  14
ENDBRANCH   7  11
BRANCH   8  13
ATOM     13  C   UNL     1      10.274   6.000  -0.309  0.00  0.00    +0.124 C 
BRANCH  13  16
ATOM      4  O   UNL     1      11.907   4.733  -1.599  0.00  0.00    -0.251 OA
ATOM     16  C   UNL     1      10.746   4.990  -1.316  0.00  0.00    +0.305 C 
BRANCH  16   3
ATOM      3  O   UNL     1       9.676   4.380  -1.889  0.00  0.00    -0.481 OA
ATOM     27  H   UNL     1       9.223   4.966  -2.532  0.00  0.00    +0.295 HD
ENDBRANCH  16   3
ENDBRANCH  13  16
ENDBRANCH   8  13
TORSDOF 9
ENDMDL
MODEL 6
REMARK VINA RESULT:      -5.1     27.086     29.138
REMARK  Name = 38026427
REMARK  11 active torsions:
REMARK  status: ('A' for Active; 'I' for Inactive)
REMARK    1  A    between atoms: O_3  and  C_16
REMARK    2  A    between atoms: N_6  and  C_14
REMARK    3  A    between atoms: N_6  and  C_17
REMARK    4  A    between atoms: N_6  and  C_18
REMARK    5  A    between atoms: C_7  and  C_11
REMARK    6  A    between atoms: C_8  and  C_13
REMARK    7  A    between atoms: C_11  and  C_14
REMARK    8  A    between atoms: C_13  and  C_16
REMARK    9  A    between atoms: C_15  and  C_19
REMARK   10  A    between atoms: C_17  and  C_20
REMARK   11  A    between atoms: C_18  and  C_21
REMARK                            x       y       z     vdW  Elec       q    Type
REMARK                         _______ _______ _______ _____ _____    ______ ____
ROOT
ATOM      2  O   UNL     1      15.672  12.460  22.358  0.00  0.00    -0.270 OA
ATOM      5  N   UNL     1      14.298  12.220  20.480  0.00  0.00    -0.297 N 
ATOM      7  C   UNL     1      12.800  10.818  19.077  0.00  0.00    +0.011 C 
ATOM      8  C   UNL     1      13.959  10.668  18.059  0.00  0.00    +0.006 C 
ATOM      9  C   UNL     1      15.331  10.819  18.737  0.00  0.00    +0.023 C 
ATOM     10  C   UNL     1      12.964  12.128  19.870  0.00  0.00    +0.112 C 
ATOM     12  C   UNL     1      15.412  12.114  19.541  0.00  0.00    +0.108 C 
ATOM     15  C   UNL     1      14.558  12.388  21.842  0.00  0.00    +0.247 C 
ENDROOT
BRANCH  15  19
ATOM      1  F   UNL     1      10.195  12.776  25.324  0.00  0.00    -0.205 F 
ATOM     19  C   UNL     1      13.415  12.490  22.755  0.00  0.00    +0.037 A 
ATOM     22  C   UNL     1      12.867  13.739  23.051  0.00  0.00    +0.016 A 
ATOM     23  C   UNL     1      12.874  11.338  23.328  0.00  0.00    +0.016 A 
ATOM     24  C   UNL     1      11.780  13.836  23.919  0.00  0.00    +0.039 A 
ATOM     25  C   UNL     1      11.787  11.436  24.196  0.00  0.00    +0.039 A 
ATOM     26  C   UNL     1      11.239  12.684  24.492  0.00  0.00    +0.123 A 
ENDBRANCH  15  19
BRANCH   7  11
ATOM     11  C   UNL     1      12.658   9.630  20.037  0.00  0.00    +0.020 C 
BRANCH  11  14
ATOM     14  C   UNL     1      11.394   8.836  19.735  0.00  0.00    +0.084 C 
BRANCH  14   6
ATOM      6  N   UNL     1      11.581   7.442  20.119  0.00  0.00    -0.303 NA
BRANCH   6  17
ATOM     17  C   UNL     1      11.761   7.327  21.567  0.00  0.00    +0.081 C 
ATOM     20  C   UNL     1      10.527   7.806  22.313  0.00  0.00    +0.020 C 
ENDBRANCH   6  17
BRANCH   6  18
ATOM     18  C   UNL     1      12.729   6.864  19.418  0.00  0.00    +0.081 C 
ATOM     21  C   UNL     1      13.894   6.637  20.367  0.00  0.00    +0.020 C 
ENDBRANCH   6  18
ENDBRANCH  14   6
ENDBRANCH  11  14
ENDBRANCH   7  11
BRANCH   8  13
ATOM     13  C   UNL     1      13.892   9.367  17.260  0.00  0.00    +0.124 C 
BRANCH  13  16
ATOM      4  O   UNL     1      13.083  10.204  15.119  0.00  0.00    -0.251 OA
ATOM     16  C   UNL     1      12.951   9.479  16.094  0.00  0.00    +0.305 C 
BRANCH  16   3
ATOM      3  O   UNL     1      11.898   8.639  16.274  0.00  0.00    -0.481 OA
ATOM     27  H   UNL     1      11.133   8.888  15.711  0.00  0.00    +0.295 HD
ENDBRANCH  16   3
ENDBRANCH  13  16
ENDBRANCH   8  13
TORSDOF 9
ENDMDL
MODEL 7
REMARK VINA RESULT:      -5.1     20.167     22.813
REMARK  Name = 38026427
REMARK  11 active torsions:
REMARK  status: ('A' for Active; 'I' for Inactive)
REMARK    1  A    between atoms: O_3  and  C_16
REMARK    2  A    between atoms: N_6  and  C_14
REMARK    3  A    between atoms: N_6  and  C_17
REMARK    4  A    between atoms: N_6  and  C_18
REMARK    5  A    between atoms: C_7  and  C_11
REMARK    6  A    between atoms: C_8  and  C_13
REMARK    7  A    between atoms: C_11  and  C_14
REMARK    8  A    between atoms: C_13  and  C_16
REMARK    9  A    between atoms: C_15  and  C_19
REMARK   10  A    between atoms: C_17  and  C_20
REMARK   11  A    between atoms: C_18  and  C_21
REMARK                            x       y       z     vdW  Elec       q    Type
REMARK                         _______ _______ _______ _____ _____    ______ ____
ROOT
ATOM      2  O   UNL     1      -9.726   9.287  17.863  0.00  0.00    -0.270 OA
ATOM      5  N   UNL     1     -11.836   8.566  18.572  0.00  0.00    -0.297 N 
ATOM      7  C   UNL     1     -13.599   8.470  20.319  0.00  0.00    +0.011 C 
ATOM      8  C   UNL     1     -13.169   7.011  20.619  0.00  0.00    +0.006 C 
ATOM      9  C   UNL     1     -11.695   6.770  20.252  0.00  0.00    +0.023 C 
ATOM     10  C   UNL     1     -13.251   8.832  18.864  0.00  0.00    +0.112 C 
ATOM     12  C   UNL     1     -11.407   7.190  18.813  0.00  0.00    +0.108 C 
ATOM     15  C   UNL     1     -10.912   9.503  18.104  0.00  0.00    +0.247 C 
ENDROOT
BRANCH  15  19
ATOM      1  F   UNL     1     -12.693  14.734  17.225  0.00  0.00    -0.205 F 
ATOM     19  C   UNL     1     -11.379  10.875  17.873  0.00  0.00    +0.037 A 
ATOM     22  C   UNL     1     -11.903  11.234  16.631  0.00  0.00    +0.016 A 
ATOM     23  C   UNL     1     -11.299  11.820  18.896  0.00  0.00    +0.016 A 
ATOM     24  C   UNL     1     -12.346  12.537  16.412  0.00  0.00    +0.039 A 
ATOM     25  C   UNL     1     -11.742  13.124  18.676  0.00  0.00    +0.039 A 
ATOM     26  C   UNL     1     -12.267  13.483  17.434  0.00  0.00    +0.123 A 
ENDBRANCH  15  19
BRANCH   7  11
ATOM     11  C   UNL     1     -13.003   9.504  21.282  0.00  0.00    +0.020 C 
BRANCH  11  14
ATOM     14  C   UNL     1     -13.944  10.689  21.458  0.00  0.00    +0.084 C 
BRANCH  14   6
ATOM      6  N   UNL     1     -13.768  11.270  22.783  0.00  0.00    -0.303 NA
BRANCH   6  17
ATOM     17  C   UNL     1     -12.710  10.570  23.515  0.00  0.00    +0.081 C 
ATOM     20  C   UNL     1     -11.769  11.552  24.191  0.00  0.00    +0.020 C 
ENDBRANCH   6  17
BRANCH   6  18
ATOM     18  C   UNL     1     -15.021  11.224  23.537  0.00  0.00    +0.081 C 
ATOM     21  C   UNL     1     -15.254   9.847  24.134  0.00  0.00    +0.020 C 
ENDBRANCH   6  18
ENDBRANCH  14   6
ENDBRANCH  11  14
ENDBRANCH   7  11
BRANCH   8  13
ATOM     13  C   UNL     1     -13.443   6.588  22.062  0.00  0.00    +0.124 C 
BRANCH  13  16
ATOM      4  O   UNL     1     -14.600   4.463  21.769  0.00  0.00    -0.251 OA
ATOM     16  C   UNL     1     -13.641   5.103  22.176  0.00  0.00    +0.305 C 
BRANCH  16   3
ATOM      3  O   UNL     1     -12.579   4.546  22.814  0.00  0.00    -0.481 OA
ATOM     27  H   UNL     1     -12.554   4.791  23.764  0.00  0.00    +0.295 HD
ENDBRANCH  16   3
ENDBRANCH  13  16
ENDBRANCH   8  13
TORSDOF 9
ENDMDL
MODEL 8
REMARK VINA RESULT:      -5.0      3.322      7.311
REMARK  Name = 38026427
REMARK  11 active torsions:
REMARK  status: ('A' for Active; 'I' for Inactive)
REMARK    1  A    between atoms: O_3  and  C_16
REMARK    2  A    between atoms: N_6  and  C_14
REMARK    3  A    between atoms: N_6  and  C_17
REMARK    4  A    between atoms: N_6  and  C_18
REMARK    5  A    between atoms: C_7  and  C_11
REMARK    6  A    between atoms: C_8  and  C_13
REMARK    7  A    between atoms: C_11  and  C_14
REMARK    8  A    between atoms: C_13  and  C_16
REMARK    9  A    between atoms: C_15  and  C_19
REMARK   10  A    between atoms: C_17  and  C_20
REMARK   11  A    between atoms: C_18  and  C_21
REMARK                            x       y       z     vdW  Elec       q    Type
REMARK                         _______ _______ _______ _____ _____    ______ ____
ROOT
ATOM      2  O   UNL     1      -7.974  -9.125  16.950  0.00  0.00    -0.270 OA
ATOM      5  N   UNL     1      -7.565 -10.616  15.194  0.00  0.00    -0.297 N 
ATOM      7  C   UNL     1      -6.165 -11.346  13.275  0.00  0.00    +0.011 C 
ATOM      8  C   UNL     1      -7.232 -10.753  12.320  0.00  0.00    +0.006 C 
ATOM      9  C   UNL     1      -8.018  -9.613  12.990  0.00  0.00    +0.023 C 
ATOM     10  C   UNL     1      -6.818 -11.740  14.613  0.00  0.00    +0.112 C 
ATOM     12  C   UNL     1      -8.602 -10.056  14.329  0.00  0.00    +0.108 C 
ATOM     15  C   UNL     1      -7.355 -10.069  16.461  0.00  0.00    +0.247 C 
ENDROOT
BRANCH  15  19
ATOM      1  F   UNL     1      -3.354 -12.312  19.667  0.00  0.00    -0.205 F 
ATOM     19  C   UNL     1      -6.306 -10.657  17.301  0.00  0.00    +0.037 A 
ATOM     22  C   UNL     1      -4.966 -10.360  17.054  0.00  0.00    +0.016 A 
ATOM     23  C   UNL     1      -6.649 -11.514  18.348  0.00  0.00    +0.016 A 
ATOM     24  C   UNL     1      -3.969 -10.919  17.853  0.00  0.00    +0.039 A 
ATOM     25  C   UNL     1      -5.651 -12.073  19.146  0.00  0.00    +0.039 A 
ATOM     26  C   UNL     1      -4.311 -11.776  18.899  0.00  0.00    +0.123 A 
ENDBRANCH  15  19
BRANCH   7  11
ATOM     11  C   UNL     1      -4.966 -10.420  13.521  0.00  0.00    +0.020 C 
BRANCH  11  14
ATOM     14  C   UNL     1      -3.665 -11.095  13.107  0.00  0.00    +0.084 C 
BRANCH  14   6
ATOM      6  N   UNL     1      -2.818 -11.298  14.276  0.00  0.00    -0.303 NA
BRANCH   6  17
ATOM     17  C   UNL     1      -1.724 -10.326  14.294  0.00  0.00    +0.081 C 
ATOM     20  C   UNL     1      -1.075 -10.256  15.666  0.00  0.00    +0.020 C 
ENDBRANCH   6  17
BRANCH   6  18
ATOM     18  C   UNL     1      -2.286 -12.662  14.296  0.00  0.00    +0.081 C 
ATOM     21  C   UNL     1      -2.261 -13.262  12.901  0.00  0.00    +0.020 C 
ENDBRANCH   6  18
ENDBRANCH  14   6
ENDBRANCH  11  14
ENDBRANCH   7  11
BRANCH   8  13
ATOM     13  C   UNL     1      -6.653 -10.295  10.982  0.00  0.00    +0.124 C 
BRANCH  13  16
ATOM      4  O   UNL     1      -5.048 -11.765   9.886  0.00  0.00    -0.251 OA
ATOM     16  C   UNL     1      -6.202 -11.459  10.145  0.00  0.00    +0.305 C 
BRANCH  16   3
ATOM      3  O   UNL     1      -7.284 -12.149   9.700  0.00  0.00    -0.481 OA
ATOM     27  H   UNL     1      -7.260 -13.088   9.984  0.00  0.00    +0.295 HD
ENDBRANCH  16   3
ENDBRANCH  13  16
ENDBRANCH   8  13
TORSDOF 9
ENDMDL
MODEL 9
REMARK VINA RESULT:      -4.9     25.214     26.993
REMARK  Name = 38026427
REMARK  11 active torsions:
REMARK  status: ('A' for Active; 'I' for Inactive)
REMARK    1  A    between atoms: O_3  and  C_16
REMARK    2  A    between atoms: N_6  and  C_14
REMARK    3  A    between atoms: N_6  and  C_17
REMARK    4  A    between atoms: N_6  and  C_18
REMARK    5  A    between atoms: C_7  and  C_11
REMARK    6  A    between atoms: C_8  and  C_13
REMARK    7  A    between atoms: C_11  and  C_14
REMARK    8  A    between atoms: C_13  and  C_16
REMARK    9  A    between atoms: C_15  and  C_19
REMARK   10  A    between atoms: C_17  and  C_20
REMARK   11  A    between atoms: C_18  and  C_21
REMARK                            x       y       z     vdW  Elec       q    Type
REMARK                         _______ _______ _______ _____ _____    ______ ____
ROOT
ATOM      2  O   UNL     1      -3.626  -8.574  41.260  0.00  0.00    -0.270 OA
ATOM      5  N   UNL     1      -5.204  -7.507  39.901  0.00  0.00    -0.297 N 
ATOM      7  C   UNL     1      -7.348  -6.274  39.657  0.00  0.00    +0.011 C 
ATOM      8  C   UNL     1      -7.991  -7.577  39.118  0.00  0.00    +0.006 C 
ATOM      9  C   UNL     1      -7.269  -8.826  39.650  0.00  0.00    +0.023 C 
ATOM     10  C   UNL     1      -5.832  -6.284  39.383  0.00  0.00    +0.112 C 
ATOM     12  C   UNL     1      -5.767  -8.752  39.386  0.00  0.00    +0.108 C 
ATOM     15  C   UNL     1      -4.152  -7.554  40.819  0.00  0.00    +0.247 C 
ENDROOT
BRANCH  15  19
ATOM      1  F   UNL     1      -2.090  -2.708  42.710  0.00  0.00    -0.205 F 
ATOM     19  C   UNL     1      -3.612  -6.283  41.315  0.00  0.00    +0.037 A 
ATOM     22  C   UNL     1      -4.124  -5.715  42.481  0.00  0.00    +0.016 A 
ATOM     23  C   UNL     1      -2.585  -5.643  40.619  0.00  0.00    +0.016 A 
ATOM     24  C   UNL     1      -3.611  -4.507  42.952  0.00  0.00    +0.039 A 
ATOM     25  C   UNL     1      -2.072  -4.435  41.091  0.00  0.00    +0.039 A 
ATOM     26  C   UNL     1      -2.584  -3.866  42.258  0.00  0.00    +0.123 A 
ENDBRANCH  15  19
BRANCH   7  11
ATOM     11  C   UNL     1      -7.617  -6.017  41.145  0.00  0.00    +0.020 C 
BRANCH  11  14
ATOM     14  C   UNL     1      -7.942  -4.550  41.393  0.00  0.00    +0.084 C 
BRANCH  14   6
ATOM      6  N   UNL     1      -9.050  -4.137  40.540  0.00  0.00    -0.303 NA
BRANCH   6  17
ATOM     17  C   UNL     1      -8.727  -2.891  39.842  0.00  0.00    +0.081 C 
ATOM     20  C   UNL     1      -9.691  -1.781  40.224  0.00  0.00    +0.020 C 
ENDBRANCH   6  17
BRANCH   6  18
ATOM     18  C   UNL     1     -10.273  -3.973  41.327  0.00  0.00    +0.081 C 
ATOM     21  C   UNL     1     -11.271  -5.079  41.029  0.00  0.00    +0.020 C 
ENDBRANCH   6  18
ENDBRANCH  14   6
ENDBRANCH  11  14
ENDBRANCH   7  11
BRANCH   8  13
ATOM     13  C   UNL     1      -9.492  -7.664  39.391  0.00  0.00    +0.124 C 
BRANCH  13  16
ATOM      4  O   UNL     1     -10.807  -9.706  39.196  0.00  0.00    -0.251 OA
ATOM     16  C   UNL     1     -10.117  -8.836  38.687  0.00  0.00    +0.305 C 
BRANCH  16   3
ATOM      3  O   UNL     1      -9.803  -8.797  37.366  0.00  0.00    -0.481 OA
ATOM     27  H   UNL     1     -10.598  -8.668  36.805  0.00  0.00    +0.295 HD
ENDBRANCH  16   3
ENDBRANCH  13  16
ENDBRANCH   8  13
TORSDOF 9
ENDMDL
MODEL 10
REMARK VINA RESULT:      -4.9     27.982     29.788
REMARK  Name = 38026427
REMARK  11 active torsions:
REMARK  status: ('A' for Active; 'I' for Inactive)
REMARK    1  A    between atoms: O_3  and  C_16
REMARK    2  A    between atoms: N_6  and  C_14
REMARK    3  A    between atoms: N_6  and  C_17
REMARK    4  A    between atoms: N_6  and  C_18
REMARK    5  A    between atoms: C_7  and  C_11
REMARK    6  A    between atoms: C_8  and  C_13
REMARK    7  A    between atoms: C_11  and  C_14
REMARK    8  A    between atoms: C_13  and  C_16
REMARK    9  A    between atoms: C_15  and  C_19
REMARK   10  A    between atoms: C_17  and  C_20
REMARK   11  A    between atoms: C_18  and  C_21
REMARK                            x       y       z     vdW  Elec       q    Type
REMARK                         _______ _______ _______ _____ _____    ______ ____
ROOT
ATOM      2  O   UNL     1      18.381   8.374  21.121  0.00  0.00    -0.270 OA
ATOM      5  N   UNL     1      16.198   8.753  20.369  0.00  0.00    -0.297 N 
ATOM      7  C   UNL     1      13.806   9.220  20.858  0.00  0.00    +0.011 C 
ATOM      8  C   UNL     1      13.493   7.735  20.544  0.00  0.00    +0.006 C 
ATOM      9  C   UNL     1      14.714   6.834  20.795  0.00  0.00    +0.023 C 
ATOM     10  C   UNL     1      15.073   9.660  20.101  0.00  0.00    +0.112 C 
ATOM     12  C   UNL     1      15.944   7.349  20.053  0.00  0.00    +0.108 C 
ATOM     15  C   UNL     1      17.438   9.129  20.889  0.00  0.00    +0.247 C 
ENDROOT
BRANCH  15  19
ATOM      1  F   UNL     1      18.275  14.538  22.054  0.00  0.00    -0.205 F 
ATOM     19  C   UNL     1      17.657  10.547  21.195  0.00  0.00    +0.037 A 
ATOM     22  C   UNL     1      17.301  11.055  22.444  0.00  0.00    +0.016 A 
ATOM     23  C   UNL     1      18.222  11.389  20.235  0.00  0.00    +0.016 A 
ATOM     24  C   UNL     1      17.509  12.403  22.735  0.00  0.00    +0.039 A 
ATOM     25  C   UNL     1      18.429  12.737  20.526  0.00  0.00    +0.039 A 
ATOM     26  C   UNL     1      18.074  13.244  21.776  0.00  0.00    +0.123 A 
ENDBRANCH  15  19
BRANCH   7  11
ATOM     11  C   UNL     1      13.949   9.523  22.354  0.00  0.00    +0.020 C 
BRANCH  11  14
ATOM     14  C   UNL     1      13.519  10.951  22.662  0.00  0.00    +0.084 C 
BRANCH  14   6
ATOM      6  N   UNL     1      12.123  11.140  22.289  0.00  0.00    -0.303 NA
BRANCH   6  17
ATOM     17  C   UNL     1      11.813  12.565  22.158  0.00  0.00    +0.081 C 
ATOM     20  C   UNL     1      11.986  13.036  20.724  0.00  0.00    +0.020 C 
ENDBRANCH   6  17
BRANCH   6  18
ATOM     18  C   UNL     1      11.237  10.517  23.273  0.00  0.00    +0.081 C 
ATOM     21  C   UNL     1      10.894  11.483  24.393  0.00  0.00    +0.020 C 
ENDBRANCH   6  18
ENDBRANCH  14   6
ENDBRANCH  11  14
ENDBRANCH   7  11
BRANCH   8  13
ATOM     13  C   UNL     1      12.270   7.207  21.295  0.00  0.00    +0.124 C 
BRANCH  13  16
ATOM      4  O   UNL     1      10.845   8.268  19.627  0.00  0.00    -0.251 OA
ATOM     16  C   UNL     1      10.991   7.754  20.726  0.00  0.00    +0.305 C 
BRANCH  16   3
ATOM      3  O   UNL     1       9.986   7.596  21.625  0.00  0.00    -0.481 OA
ATOM     27  H   UNL     1       9.104   7.716  21.211  0.00  0.00    +0.295 HD
ENDBRANCH  16   3
ENDBRANCH  13  16
ENDBRANCH   8  13
TORSDOF 9
ENDMDL
