MODEL 1
REMARK VINA RESULT:      -6.8      0.000      0.000
REMARK  Name = 71693245
REMARK  6 active torsions:
REMARK  status: ('A' for Active; 'I' for Inactive)
REMARK    1  A    between atoms: S_1  and  N_8
REMARK    2  A    between atoms: S_1  and  C_20
REMARK    3  A    between atoms: O_3  and  C_12
REMARK    4  A    between atoms: N_8  and  C_17
REMARK    5  A    between atoms: CA_9  and  C_12
REMARK    6  A    between atoms: C_10  and  C_11
REMARK                            x       y       z     vdW  Elec       q    Type
REMARK                         _______ _______ _______ _____ _____    ______ ____
ROOT
ATOM     11  C   UNL     1      15.790   7.279  19.424  0.00  0.00    -0.017 A 
ATOM     15  C   UNL     1      16.316   6.205  18.707  0.00  0.00    +0.008 A 
ATOM     16  C   UNL     1      16.522   7.847  20.466  0.00  0.00    +0.008 A 
ATOM     17  C   UNL     1      18.308   6.268  20.072  0.00  0.00    +0.048 A 
ATOM     18  C   UNL     1      17.575   5.699  19.030  0.00  0.00    +0.025 A 
ATOM     19  C   UNL     1      17.782   7.342  20.790  0.00  0.00    +0.025 A 
ENDROOT
BRANCH  11  10
ATOM      2  O   UNL     1      14.344   7.910  17.644  0.00  0.00    -0.361 OA
ATOM      4  O   UNL     1      10.806   8.388  17.295  0.00  0.00    -0.273 OA
ATOM      7  N   UNL     1      11.997   7.434  19.010  0.00  0.00    -0.306 N 
ATOM      9  CA  UNL     1      13.261   6.949  19.555  0.00  0.00    +0.131 C 
ATOM     10  C   UNL     1      14.424   7.829  19.073  0.00  0.00    +0.171 C 
ATOM     13  C   UNL     1      13.192   8.616  17.230  0.00  0.00    +0.256 C 
ATOM     14  C   UNL     1      11.886   8.123  17.823  0.00  0.00    +0.239 C 
ATOM     21  H   UNL     1      11.137   7.092  19.430  0.00  0.00    +0.149 HD
BRANCH   9  12
ATOM     12  C   UNL     1      13.172   6.879  21.078  0.00  0.00    +0.181 C 
BRANCH  12   3
ATOM      3  O   UNL     1      12.205   5.906  21.428  0.00  0.00    -0.393 OA
ATOM     22  H   UNL     1      11.432   6.382  21.775  0.00  0.00    +0.209 HD
ENDBRANCH  12   3
ENDBRANCH   9  12
ENDBRANCH  11  10
BRANCH  17   8
ATOM      8  N   UNL     1      19.597   5.750  20.403  0.00  0.00    -0.221 N 
ATOM     23  H   UNL     1      19.646   4.723  20.403  0.00  0.00    +0.173 HD
BRANCH   8   1
ATOM      1  S   UNL     1      20.487   6.525  21.658  0.00  0.00    +0.040 S 
ATOM      5  O   UNL     1      20.792   7.879  21.234  0.00  0.00    -0.155 OA
ATOM      6  O   UNL     1      19.883   6.276  22.951  0.00  0.00    -0.155 OA
ATOM     20  C   UNL     1      22.008   5.605  21.578  0.00  0.00    +0.218 C 
ENDBRANCH   8   1
ENDBRANCH  17   8
TORSDOF 5
ENDMDL
MODEL 2
REMARK VINA RESULT:      -6.6      1.389      2.643
REMARK  Name = 71693245
REMARK  6 active torsions:
REMARK  status: ('A' for Active; 'I' for Inactive)
REMARK    1  A    between atoms: S_1  and  N_8
REMARK    2  A    between atoms: S_1  and  C_20
REMARK    3  A    between atoms: O_3  and  C_12
REMARK    4  A    between atoms: N_8  and  C_17
REMARK    5  A    between atoms: CA_9  and  C_12
REMARK    6  A    between atoms: C_10  and  C_11
REMARK                            x       y       z     vdW  Elec       q    Type
REMARK                         _______ _______ _______ _____ _____    ______ ____
ROOT
ATOM     11  C   UNL     1      15.976   6.832  19.987  0.00  0.00    -0.017 A 
ATOM     15  C   UNL     1      16.653   7.651  20.891  0.00  0.00    +0.008 A 
ATOM     16  C   UNL     1      16.688   5.944  19.181  0.00  0.00    +0.008 A 
ATOM     17  C   UNL     1      18.755   6.693  20.184  0.00  0.00    +0.048 A 
ATOM     18  C   UNL     1      18.043   7.582  20.989  0.00  0.00    +0.025 A 
ATOM     19  C   UNL     1      18.078   5.874  19.279  0.00  0.00    +0.025 A 
ENDROOT
BRANCH  11  10
ATOM      2  O   UNL     1      13.940   6.935  21.213  0.00  0.00    -0.361 OA
ATOM      4  O   UNL     1      10.582   7.962  20.477  0.00  0.00    -0.273 OA
ATOM      7  N   UNL     1      12.509   8.261  19.265  0.00  0.00    -0.306 N 
ATOM      9  CA  UNL     1      13.960   8.160  19.152  0.00  0.00    +0.131 C 
ATOM     10  C   UNL     1      14.467   6.906  19.881  0.00  0.00    +0.171 C 
ATOM     13  C   UNL     1      12.535   6.782  21.216  0.00  0.00    +0.256 C 
ATOM     14  C   UNL     1      11.781   7.737  20.310  0.00  0.00    +0.239 C 
ATOM     21  H   UNL     1      12.028   8.903  18.641  0.00  0.00    +0.149 HD
BRANCH   9  12
ATOM     12  C   UNL     1      14.365   8.185  17.680  0.00  0.00    +0.181 C 
BRANCH  12   3
ATOM      3  O   UNL     1      13.485   7.345  16.957  0.00  0.00    -0.393 OA
ATOM     22  H   UNL     1      14.015   6.881  16.288  0.00  0.00    +0.209 HD
ENDBRANCH  12   3
ENDBRANCH   9  12
ENDBRANCH  11  10
BRANCH  17   8
ATOM      8  N   UNL     1      20.177   6.622  20.285  0.00  0.00    -0.221 N 
ATOM     23  H   UNL     1      20.667   6.793  19.397  0.00  0.00    +0.173 HD
BRANCH   8   1
ATOM      1  S   UNL     1      20.862   5.388  21.273  0.00  0.00    +0.040 S 
ATOM      5  O   UNL     1      20.461   5.627  22.647  0.00  0.00    -0.155 OA
ATOM      6  O   UNL     1      20.684   4.083  20.670  0.00  0.00    -0.155 OA
ATOM     20  C   UNL     1      22.586   5.814  21.158  0.00  0.00    +0.218 C 
ENDBRANCH   8   1
ENDBRANCH  17   8
TORSDOF 5
ENDMDL
MODEL 3
REMARK VINA RESULT:      -6.4      1.610      2.074
REMARK  Name = 71693245
REMARK  6 active torsions:
REMARK  status: ('A' for Active; 'I' for Inactive)
REMARK    1  A    between atoms: S_1  and  N_8
REMARK    2  A    between atoms: S_1  and  C_20
REMARK    3  A    between atoms: O_3  and  C_12
REMARK    4  A    between atoms: N_8  and  C_17
REMARK    5  A    between atoms: CA_9  and  C_12
REMARK    6  A    between atoms: C_10  and  C_11
REMARK                            x       y       z     vdW  Elec       q    Type
REMARK                         _______ _______ _______ _____ _____    ______ ____
ROOT
ATOM     11  C   UNL     1      14.889   8.092  19.561  0.00  0.00    -0.017 A 
ATOM     15  C   UNL     1      15.315   8.852  20.651  0.00  0.00    +0.008 A 
ATOM     16  C   UNL     1      15.531   6.893  19.254  0.00  0.00    +0.008 A 
ATOM     17  C   UNL     1      17.023   7.210  21.128  0.00  0.00    +0.048 A 
ATOM     18  C   UNL     1      16.382   8.411  21.435  0.00  0.00    +0.025 A 
ATOM     19  C   UNL     1      16.597   6.451  20.038  0.00  0.00    +0.025 A 
ENDROOT
BRANCH  11  10
ATOM      2  O   UNL     1      14.203   8.696  17.365  0.00  0.00    -0.361 OA
ATOM      4  O   UNL     1      11.051   8.965  15.673  0.00  0.00    -0.273 OA
ATOM      7  N   UNL     1      11.551   8.025  17.707  0.00  0.00    -0.306 N 
ATOM      9  CA  UNL     1      12.537   7.601  18.697  0.00  0.00    +0.131 C 
ATOM     10  C   UNL     1      13.730   8.569  18.712  0.00  0.00    +0.171 C 
ATOM     13  C   UNL     1      13.254   9.343  16.543  0.00  0.00    +0.256 C 
ATOM     14  C   UNL     1      11.859   8.748  16.577  0.00  0.00    +0.239 C 
ATOM     21  H   UNL     1      10.623   7.616  17.758  0.00  0.00    +0.149 HD
BRANCH   9  12
ATOM     12  C   UNL     1      11.871   7.471  20.065  0.00  0.00    +0.181 C 
BRANCH  12   3
ATOM      3  O   UNL     1      10.648   8.184  20.039  0.00  0.00    -0.393 OA
ATOM     22  H   UNL     1      10.659   8.801  20.790  0.00  0.00    +0.209 HD
ENDBRANCH  12   3
ENDBRANCH   9  12
ENDBRANCH  11  10
BRANCH  17   8
ATOM      8  N   UNL     1      18.114   6.760  21.930  0.00  0.00    -0.221 N 
ATOM     23  H   UNL     1      17.942   6.825  22.942  0.00  0.00    +0.173 HD
BRANCH   8   1
ATOM      1  S   UNL     1      19.712   7.168  21.432  0.00  0.00    +0.040 S 
ATOM      5  O   UNL     1      20.132   6.219  20.418  0.00  0.00    -0.155 OA
ATOM      6  O   UNL     1      19.835   8.593  21.203  0.00  0.00    -0.155 OA
ATOM     20  C   UNL     1      20.614   6.772  22.913  0.00  0.00    +0.218 C 
ENDBRANCH   8   1
ENDBRANCH  17   8
TORSDOF 5
ENDMDL
MODEL 4
REMARK VINA RESULT:      -6.3     32.362     33.791
REMARK  Name = 71693245
REMARK  6 active torsions:
REMARK  status: ('A' for Active; 'I' for Inactive)
REMARK    1  A    between atoms: S_1  and  N_8
REMARK    2  A    between atoms: S_1  and  C_20
REMARK    3  A    between atoms: O_3  and  C_12
REMARK    4  A    between atoms: N_8  and  C_17
REMARK    5  A    between atoms: CA_9  and  C_12
REMARK    6  A    between atoms: C_10  and  C_11
REMARK                            x       y       z     vdW  Elec       q    Type
REMARK                         _______ _______ _______ _____ _____    ______ ____
ROOT
ATOM     11  C   UNL     1     -14.691   4.814  32.042  0.00  0.00    -0.017 A 
ATOM     15  C   UNL     1     -15.237   4.498  30.798  0.00  0.00    +0.008 A 
ATOM     16  C   UNL     1     -13.690   4.011  32.589  0.00  0.00    +0.008 A 
ATOM     17  C   UNL     1     -13.779   2.577  30.646  0.00  0.00    +0.048 A 
ATOM     18  C   UNL     1     -14.781   3.379  30.099  0.00  0.00    +0.025 A 
ATOM     19  C   UNL     1     -13.234   2.892  31.891  0.00  0.00    +0.025 A 
ENDROOT
BRANCH  11  10
ATOM      2  O   UNL     1     -14.875   7.185  32.013  0.00  0.00    -0.361 OA
ATOM      4  O   UNL     1     -16.925   9.594  33.705  0.00  0.00    -0.273 OA
ATOM      7  N   UNL     1     -17.126   7.309  33.600  0.00  0.00    -0.306 N 
ATOM      9  CA  UNL     1     -16.700   6.026  33.049  0.00  0.00    +0.131 C 
ATOM     10  C   UNL     1     -15.184   6.028  32.799  0.00  0.00    +0.171 C 
ATOM     13  C   UNL     1     -15.099   8.377  32.736  0.00  0.00    +0.256 C 
ATOM     14  C   UNL     1     -16.472   8.499  33.369  0.00  0.00    +0.239 C 
ATOM     21  H   UNL     1     -18.048   7.361  34.024  0.00  0.00    +0.149 HD
BRANCH   9  12
ATOM     12  C   UNL     1     -17.140   4.896  33.978  0.00  0.00    +0.181 C 
BRANCH  12   3
ATOM      3  O   UNL     1     -16.367   4.961  35.162  0.00  0.00    -0.393 OA
ATOM     22  H   UNL     1     -15.432   4.978  34.894  0.00  0.00    +0.209 HD
ENDBRANCH  12   3
ENDBRANCH   9  12
ENDBRANCH  11  10
BRANCH  17   8
ATOM      8  N   UNL     1     -13.313   1.432  29.931  0.00  0.00    -0.221 N 
ATOM     23  H   UNL     1     -12.828   1.659  29.053  0.00  0.00    +0.173 HD
BRANCH   8   1
ATOM      1  S   UNL     1     -14.330   0.044  29.867  0.00  0.00    +0.040 S 
ATOM      5  O   UNL     1     -14.692  -0.321  31.225  0.00  0.00    -0.155 OA
ATOM      6  O   UNL     1     -15.349   0.193  28.849  0.00  0.00    -0.155 OA
ATOM     20  C   UNL     1     -13.164  -1.174  29.300  0.00  0.00    +0.218 C 
ENDBRANCH   8   1
ENDBRANCH  17   8
TORSDOF 5
ENDMDL
MODEL 5
REMARK VINA RESULT:      -6.2      4.170      6.849
REMARK  Name = 71693245
REMARK  6 active torsions:
REMARK  status: ('A' for Active; 'I' for Inactive)
REMARK    1  A    between atoms: S_1  and  N_8
REMARK    2  A    between atoms: S_1  and  C_20
REMARK    3  A    between atoms: O_3  and  C_12
REMARK    4  A    between atoms: N_8  and  C_17
REMARK    5  A    between atoms: CA_9  and  C_12
REMARK    6  A    between atoms: C_10  and  C_11
REMARK                            x       y       z     vdW  Elec       q    Type
REMARK                         _______ _______ _______ _____ _____    ______ ____
ROOT
ATOM     11  C   UNL     1      13.747   9.070  18.247  0.00  0.00    -0.017 A 
ATOM     15  C   UNL     1      14.264  10.361  18.356  0.00  0.00    +0.008 A 
ATOM     16  C   UNL     1      13.736   8.425  17.010  0.00  0.00    +0.008 A 
ATOM     17  C   UNL     1      14.761  10.362  15.992  0.00  0.00    +0.048 A 
ATOM     18  C   UNL     1      14.771  11.008  17.229  0.00  0.00    +0.025 A 
ATOM     19  C   UNL     1      14.243   9.071  15.882  0.00  0.00    +0.025 A 
ENDROOT
BRANCH  11  10
ATOM      2  O   UNL     1      11.777   8.278  19.319  0.00  0.00    -0.361 OA
ATOM      4  O   UNL     1      11.075   5.876  21.889  0.00  0.00    -0.273 OA
ATOM      7  N   UNL     1      13.018   6.261  20.729  0.00  0.00    -0.306 N 
ATOM      9  CA  UNL     1      13.737   6.940  19.656  0.00  0.00    +0.131 C 
ATOM     10  C   UNL     1      13.199   8.367  19.470  0.00  0.00    +0.171 C 
ATOM     13  C   UNL     1      11.157   7.836  20.508  0.00  0.00    +0.256 C 
ATOM     14  C   UNL     1      11.723   6.556  21.093  0.00  0.00    +0.239 C 
ATOM     21  H   UNL     1      13.424   5.410  21.107  0.00  0.00    +0.149 HD
BRANCH   9  12
ATOM     12  C   UNL     1      15.237   6.912  19.942  0.00  0.00    +0.181 C 
BRANCH  12   3
ATOM      3  O   UNL     1      15.873   6.145  18.937  0.00  0.00    -0.393 OA
ATOM     22  H   UNL     1      15.380   5.312  18.856  0.00  0.00    +0.209 HD
ENDBRANCH  12   3
ENDBRANCH   9  12
ENDBRANCH  11  10
BRANCH  17   8
ATOM      8  N   UNL     1      15.280  11.024  14.838  0.00  0.00    -0.221 N 
ATOM     23  H   UNL     1      16.178  11.499  14.999  0.00  0.00    +0.173 HD
BRANCH   8   1
ATOM      1  S   UNL     1      14.176  11.871  13.822  0.00  0.00    +0.040 S 
ATOM      5  O   UNL     1      14.738  11.928  12.484  0.00  0.00    -0.155 OA
ATOM      6  O   UNL     1      12.819  11.409  14.032  0.00  0.00    -0.155 OA
ATOM     20  C   UNL     1      14.310  13.507  14.507  0.00  0.00    +0.218 C 
ENDBRANCH   8   1
ENDBRANCH  17   8
TORSDOF 5
ENDMDL
MODEL 6
REMARK VINA RESULT:      -6.1     33.353     34.354
REMARK  Name = 71693245
REMARK  6 active torsions:
REMARK  status: ('A' for Active; 'I' for Inactive)
REMARK    1  A    between atoms: S_1  and  N_8
REMARK    2  A    between atoms: S_1  and  C_20
REMARK    3  A    between atoms: O_3  and  C_12
REMARK    4  A    between atoms: N_8  and  C_17
REMARK    5  A    between atoms: CA_9  and  C_12
REMARK    6  A    between atoms: C_10  and  C_11
REMARK                            x       y       z     vdW  Elec       q    Type
REMARK                         _______ _______ _______ _____ _____    ______ ____
ROOT
ATOM     11  C   UNL     1     -15.465   2.566  30.633  0.00  0.00    -0.017 A 
ATOM     15  C   UNL     1     -14.873   1.461  30.021  0.00  0.00    +0.008 A 
ATOM     16  C   UNL     1     -16.711   3.019  30.199  0.00  0.00    +0.008 A 
ATOM     17  C   UNL     1     -16.774   1.261  28.543  0.00  0.00    +0.048 A 
ATOM     18  C   UNL     1     -15.527   0.809  28.976  0.00  0.00    +0.025 A 
ATOM     19  C   UNL     1     -17.366   2.367  29.155  0.00  0.00    +0.025 A 
ENDROOT
BRANCH  11  10
ATOM      2  O   UNL     1     -15.066   4.670  31.669  0.00  0.00    -0.361 OA
ATOM      4  O   UNL     1     -13.958   5.733  34.911  0.00  0.00    -0.273 OA
ATOM      7  N   UNL     1     -14.623   3.656  34.194  0.00  0.00    -0.306 N 
ATOM      9  CA  UNL     1     -15.194   2.797  33.162  0.00  0.00    +0.131 C 
ATOM     10  C   UNL     1     -14.756   3.274  31.768  0.00  0.00    +0.171 C 
ATOM     13  C   UNL     1     -14.275   5.438  32.552  0.00  0.00    +0.256 C 
ATOM     14  C   UNL     1     -14.289   4.978  33.997  0.00  0.00    +0.239 C 
ATOM     21  H   UNL     1     -14.640   3.320  35.153  0.00  0.00    +0.149 HD
BRANCH   9  12
ATOM     12  C   UNL     1     -14.811   1.344  33.430  0.00  0.00    +0.181 C 
BRANCH  12   3
ATOM      3  O   UNL     1     -14.373   1.235  34.772  0.00  0.00    -0.393 OA
ATOM     22  H   UNL     1     -14.902   0.536  35.191  0.00  0.00    +0.209 HD
ENDBRANCH  12   3
ENDBRANCH   9  12
ENDBRANCH  11  10
BRANCH  17   8
ATOM      8  N   UNL     1     -17.443   0.593  27.474  0.00  0.00    -0.221 N 
ATOM     23  H   UNL     1     -17.485  -0.429  27.582  0.00  0.00    +0.173 HD
BRANCH   8   1
ATOM      1  S   UNL     1     -17.164   1.147  25.867  0.00  0.00    +0.040 S 
ATOM      5  O   UNL     1     -16.242   2.267  25.923  0.00  0.00    -0.155 OA
ATOM      6  O   UNL     1     -16.920   0.036  24.970  0.00  0.00    -0.155 OA
ATOM     20  C   UNL     1     -18.766   1.818  25.483  0.00  0.00    +0.218 C 
ENDBRANCH   8   1
ENDBRANCH  17   8
TORSDOF 5
ENDMDL
MODEL 7
REMARK VINA RESULT:      -6.0      6.391      8.471
REMARK  Name = 71693245
REMARK  6 active torsions:
REMARK  status: ('A' for Active; 'I' for Inactive)
REMARK    1  A    between atoms: S_1  and  N_8
REMARK    2  A    between atoms: S_1  and  C_20
REMARK    3  A    between atoms: O_3  and  C_12
REMARK    4  A    between atoms: N_8  and  C_17
REMARK    5  A    between atoms: CA_9  and  C_12
REMARK    6  A    between atoms: C_10  and  C_11
REMARK                            x       y       z     vdW  Elec       q    Type
REMARK                         _______ _______ _______ _____ _____    ______ ____
ROOT
ATOM     11  C   UNL     1      11.539  11.571  22.969  0.00  0.00    -0.017 A 
ATOM     15  C   UNL     1      12.167  11.642  21.725  0.00  0.00    +0.008 A 
ATOM     16  C   UNL     1      10.793  10.443  23.310  0.00  0.00    +0.008 A 
ATOM     17  C   UNL     1      11.304   9.456  21.164  0.00  0.00    +0.048 A 
ATOM     18  C   UNL     1      12.049  10.585  20.823  0.00  0.00    +0.025 A 
ATOM     19  C   UNL     1      10.675   9.385  22.408  0.00  0.00    +0.025 A 
ENDROOT
BRANCH  11  10
ATOM      2  O   UNL     1      10.346  13.189  24.241  0.00  0.00    -0.361 OA
ATOM      4  O   UNL     1      11.075  15.190  27.128  0.00  0.00    -0.273 OA
ATOM      7  N   UNL     1      12.230  13.416  26.240  0.00  0.00    -0.306 N 
ATOM      9  CA  UNL     1      12.324  12.320  25.281  0.00  0.00    +0.131 C 
ATOM     10  C   UNL     1      11.667  12.717  23.950  0.00  0.00    +0.171 C 
ATOM     13  C   UNL     1      10.378  14.395  24.975  0.00  0.00    +0.256 C 
ATOM     14  C   UNL     1      11.234  14.366  26.226  0.00  0.00    +0.239 C 
ATOM     21  H   UNL     1      12.821  13.374  27.066  0.00  0.00    +0.149 HD
BRANCH   9  12
ATOM     12  C   UNL     1      13.784  11.905  25.113  0.00  0.00    +0.181 C 
BRANCH  12   3
ATOM      3  O   UNL     1      14.113  10.990  26.141  0.00  0.00    -0.393 OA
ATOM     22  H   UNL     1      14.031  10.096  25.767  0.00  0.00    +0.209 HD
ENDBRANCH  12   3
ENDBRANCH   9  12
ENDBRANCH  11  10
BRANCH  17   8
ATOM      8  N   UNL     1      11.184   8.375  20.240  0.00  0.00    -0.221 N 
ATOM     23  H   UNL     1      10.214   8.083  20.064  0.00  0.00    +0.173 HD
BRANCH   8   1
ATOM      1  S   UNL     1      12.328   7.090  20.339  0.00  0.00    +0.040 S 
ATOM      5  O   UNL     1      13.088   7.247  21.566  0.00  0.00    -0.155 OA
ATOM      6  O   UNL     1      11.712   5.821  20.012  0.00  0.00    -0.155 OA
ATOM     20  C   UNL     1      13.414   7.533  19.001  0.00  0.00    +0.218 C 
ENDBRANCH   8   1
ENDBRANCH  17   8
TORSDOF 5
ENDMDL
MODEL 8
REMARK VINA RESULT:      -5.9      5.608      7.516
REMARK  Name = 71693245
REMARK  6 active torsions:
REMARK  status: ('A' for Active; 'I' for Inactive)
REMARK    1  A    between atoms: S_1  and  N_8
REMARK    2  A    between atoms: S_1  and  C_20
REMARK    3  A    between atoms: O_3  and  C_12
REMARK    4  A    between atoms: N_8  and  C_17
REMARK    5  A    between atoms: CA_9  and  C_12
REMARK    6  A    between atoms: C_10  and  C_11
REMARK                            x       y       z     vdW  Elec       q    Type
REMARK                         _______ _______ _______ _____ _____    ______ ____
ROOT
ATOM     11  C   UNL     1      11.820   9.976  21.842  0.00  0.00    -0.017 A 
ATOM     15  C   UNL     1      12.993  10.660  22.162  0.00  0.00    +0.008 A 
ATOM     16  C   UNL     1      10.723  10.034  22.702  0.00  0.00    +0.008 A 
ATOM     17  C   UNL     1      11.972  11.460  24.200  0.00  0.00    +0.048 A 
ATOM     18  C   UNL     1      13.070  11.402  23.341  0.00  0.00    +0.025 A 
ATOM     19  C   UNL     1      10.799  10.776  23.881  0.00  0.00    +0.025 A 
ENDROOT
BRANCH  11  10
ATOM      2  O   UNL     1      12.559   9.823  19.587  0.00  0.00    -0.361 OA
ATOM      4  O   UNL     1      12.737   7.200  17.146  0.00  0.00    -0.273 OA
ATOM      7  N   UNL     1      12.316   7.084  19.399  0.00  0.00    -0.306 N 
ATOM      9  CA  UNL     1      12.239   7.727  20.707  0.00  0.00    +0.131 C 
ATOM     10  C   UNL     1      11.736   9.172  20.563  0.00  0.00    +0.171 C 
ATOM     13  C   UNL     1      12.371   9.270  18.300  0.00  0.00    +0.256 C 
ATOM     14  C   UNL     1      12.517   7.763  18.219  0.00  0.00    +0.239 C 
ATOM     21  H   UNL     1      12.407   6.072  19.374  0.00  0.00    +0.149 HD
BRANCH   9  12
ATOM     12  C   UNL     1      11.365   6.894  21.641  0.00  0.00    +0.181 C 
BRANCH  12   3
ATOM      3  O   UNL     1      11.067   5.667  21.002  0.00  0.00    -0.393 OA
ATOM     22  H   UNL     1      10.642   5.094  21.663  0.00  0.00    +0.209 HD
ENDBRANCH  12   3
ENDBRANCH   9  12
ENDBRANCH  11  10
BRANCH  17   8
ATOM      8  N   UNL     1      12.051  12.220  25.406  0.00  0.00    -0.221 N 
ATOM     23  H   UNL     1      11.776  11.695  26.248  0.00  0.00    +0.173 HD
BRANCH   8   1
ATOM      1  S   UNL     1      11.534  13.863  25.368  0.00  0.00    +0.040 S 
ATOM      5  O   UNL     1      11.059  14.162  24.030  0.00  0.00    -0.155 OA
ATOM      6  O   UNL     1      10.722  14.178  26.526  0.00  0.00    -0.155 OA
ATOM     20  C   UNL     1      13.099  14.688  25.556  0.00  0.00    +0.218 C 
ENDBRANCH   8   1
ENDBRANCH  17   8
TORSDOF 5
ENDMDL
MODEL 9
REMARK VINA RESULT:      -5.9     26.758     28.816
REMARK  Name = 71693245
REMARK  6 active torsions:
REMARK  status: ('A' for Active; 'I' for Inactive)
REMARK    1  A    between atoms: S_1  and  N_8
REMARK    2  A    between atoms: S_1  and  C_20
REMARK    3  A    between atoms: O_3  and  C_12
REMARK    4  A    between atoms: N_8  and  C_17
REMARK    5  A    between atoms: CA_9  and  C_12
REMARK    6  A    between atoms: C_10  and  C_11
REMARK                            x       y       z     vdW  Elec       q    Type
REMARK                         _______ _______ _______ _____ _____    ______ ____
ROOT
ATOM     11  C   UNL     1     -12.057   8.750  19.201  0.00  0.00    -0.017 A 
ATOM     15  C   UNL     1     -11.212   8.036  20.051  0.00  0.00    +0.008 A 
ATOM     16  C   UNL     1     -13.419   8.453  19.160  0.00  0.00    +0.008 A 
ATOM     17  C   UNL     1     -13.093   6.729  20.821  0.00  0.00    +0.048 A 
ATOM     18  C   UNL     1     -11.730   7.025  20.861  0.00  0.00    +0.025 A 
ATOM     19  C   UNL     1     -13.938   7.442  19.970  0.00  0.00    +0.025 A 
ENDROOT
BRANCH  11  10
ATOM      2  O   UNL     1     -11.027  10.894  19.183  0.00  0.00    -0.361 OA
ATOM      4  O   UNL     1      -9.083  12.757  16.812  0.00  0.00    -0.273 OA
ATOM      7  N   UNL     1      -9.704  10.547  16.789  0.00  0.00    -0.306 N 
ATOM      9  CA  UNL     1     -10.315   9.397  17.450  0.00  0.00    +0.131 C 
ATOM     10  C   UNL     1     -11.496   9.848  18.323  0.00  0.00    +0.171 C 
ATOM     13  C   UNL     1     -10.688  12.053  18.450  0.00  0.00    +0.256 C 
ATOM     14  C   UNL     1      -9.732  11.828  17.293  0.00  0.00    +0.239 C 
ATOM     21  H   UNL     1      -9.074  10.367  16.013  0.00  0.00    +0.149 HD
BRANCH   9  12
ATOM     12  C   UNL     1     -10.720   8.358  16.407  0.00  0.00    +0.181 C 
BRANCH  12   3
ATOM      3  O   UNL     1     -10.121   7.122  16.748  0.00  0.00    -0.393 OA
ATOM     22  H   UNL     1      -9.475   7.300  17.452  0.00  0.00    +0.209 HD
ENDBRANCH  12   3
ENDBRANCH   9  12
ENDBRANCH  11  10
BRANCH  17   8
ATOM      8  N   UNL     1     -13.622   5.694  21.650  0.00  0.00    -0.221 N 
ATOM     23  H   UNL     1     -13.559   4.755  21.236  0.00  0.00    +0.173 HD
BRANCH   8   1
ATOM      1  S   UNL     1     -15.074   6.013  22.522  0.00  0.00    +0.040 S 
ATOM      5  O   UNL     1     -14.925   7.283  23.209  0.00  0.00    -0.155 OA
ATOM      6  O   UNL     1     -16.239   5.751  21.702  0.00  0.00    -0.155 OA
ATOM     20  C   UNL     1     -14.980   4.742  23.763  0.00  0.00    +0.218 C 
ENDBRANCH   8   1
ENDBRANCH  17   8
TORSDOF 5
ENDMDL
MODEL 10
REMARK VINA RESULT:      -5.8     15.104     17.821
REMARK  Name = 71693245
REMARK  6 active torsions:
REMARK  status: ('A' for Active; 'I' for Inactive)
REMARK    1  A    between atoms: S_1  and  N_8
REMARK    2  A    between atoms: S_1  and  C_20
REMARK    3  A    between atoms: O_3  and  C_12
REMARK    4  A    between atoms: N_8  and  C_17
REMARK    5  A    between atoms: CA_9  and  C_12
REMARK    6  A    between atoms: C_10  and  C_11
REMARK                            x       y       z     vdW  Elec       q    Type
REMARK                         _______ _______ _______ _____ _____    ______ ____
ROOT
ATOM     11  C   UNL     1      11.131   5.776   3.857  0.00  0.00    -0.017 A 
ATOM     15  C   UNL     1      12.031   6.402   2.995  0.00  0.00    +0.008 A 
ATOM     16  C   UNL     1      10.786   4.440   3.655  0.00  0.00    +0.008 A 
ATOM     17  C   UNL     1      12.243   4.354   1.730  0.00  0.00    +0.048 A 
ATOM     18  C   UNL     1      12.587   5.691   1.931  0.00  0.00    +0.025 A 
ATOM     19  C   UNL     1      11.342   3.729   2.592  0.00  0.00    +0.025 A 
ENDROOT
BRANCH  11  10
ATOM      2  O   UNL     1       9.173   6.108   5.166  0.00  0.00    -0.361 OA
ATOM      4  O   UNL     1       8.489   7.484   8.408  0.00  0.00    -0.273 OA
ATOM      7  N   UNL     1      10.495   6.924   7.444  0.00  0.00    -0.306 N 
ATOM      9  CA  UNL     1      11.247   6.314   6.351  0.00  0.00    +0.131 C 
ATOM     10  C   UNL     1      10.528   6.546   5.013  0.00  0.00    +0.171 C 
ATOM     13  C   UNL     1       8.465   6.926   6.075  0.00  0.00    +0.256 C 
ATOM     14  C   UNL     1       9.132   7.117   7.424  0.00  0.00    +0.239 C 
ATOM     21  H   UNL     1      10.969   7.046   8.334  0.00  0.00    +0.149 HD
BRANCH   9  12
ATOM     12  C   UNL     1      12.677   6.850   6.348  0.00  0.00    +0.181 C 
BRANCH  12   3
ATOM      3  O   UNL     1      13.444   6.088   7.262  0.00  0.00    -0.393 OA
ATOM     22  H   UNL     1      13.769   5.307   6.783  0.00  0.00    +0.209 HD
ENDBRANCH  12   3
ENDBRANCH   9  12
ENDBRANCH  11  10
BRANCH  17   8
ATOM      8  N   UNL     1      12.812   3.627   0.641  0.00  0.00    -0.221 N 
ATOM     23  H   UNL     1      13.837   3.696   0.585  0.00  0.00    +0.173 HD
BRANCH   8   1
ATOM      1  S   UNL     1      11.992   3.657  -0.873  0.00  0.00    +0.040 S 
ATOM      5  O   UNL     1      12.362   2.466  -1.617  0.00  0.00    -0.155 OA
ATOM      6  O   UNL     1      10.600   4.016  -0.702  0.00  0.00    -0.155 OA
ATOM     20  C   UNL     1      12.819   5.026  -1.651  0.00  0.00    +0.218 C 
ENDBRANCH   8   1
ENDBRANCH  17   8
TORSDOF 5
ENDMDL
