REMARK  Name = 11882578
REMARK  11 active torsions:
REMARK  status: ('A' for Active; 'I' for Inactive)
REMARK    1  A    between atoms: S_1  and  C_30
REMARK    2  A    between atoms: S_1  and  C_32
REMARK    3  A    between atoms: O_2  and  C_12
REMARK    4  A    between atoms: O_3  and  C_16
REMARK    5  A    between atoms: O_4  and  C_17
REMARK    6  A    between atoms: O_8  and  C_26
REMARK    7  A    between atoms: O_8  and  C_31
REMARK    8  A    between atoms: N_9  and  C_13
REMARK    9  A    between atoms: N_10  and  C_19
REMARK   10  A    between atoms: C_12  and  C_18
REMARK   11  A    between atoms: C_21  and  C_25
REMARK                            x       y       z     vdW  Elec       q    Type
REMARK                         _______ _______ _______ _____ _____    ______ ____
ROOT
ATOM     12  C   UNL     1       2.276  -1.673  -0.130  0.00  0.00    +0.146 C 
ATOM     13  C   UNL     1      -0.238  -1.637  -0.497  0.00  0.00    +0.107 C 
ATOM     14  C   UNL     1       0.973  -0.901   0.087  0.00  0.00    +0.069 C 
ATOM     15  C   UNL     1       2.173  -3.099   0.408  0.00  0.00    +0.078 C 
ATOM     16  C   UNL     1      -0.335  -3.078   0.021  0.00  0.00    +0.163 C 
ATOM     17  C   UNL     1       0.973  -3.848  -0.174  0.00  0.00    +0.148 C 
ENDROOT
BRANCH  12  18
ATOM      5  O   UNL     1       4.093  -1.477   1.408  0.00  0.00    -0.273 OA
ATOM     10  N   UNL     1       3.609   0.314   0.003  0.00  0.00    -0.302 N 
ATOM     18  C   UNL     1       3.428  -0.959   0.515  0.00  0.00    +0.245 C 
ATOM     35  H   UNL     1       3.044   0.615  -0.786  0.00  0.00    +0.150 HD
BRANCH  10  19
ATOM      7  O   UNL     1       2.883   2.866   0.661  0.00  0.00    -0.274 OA
ATOM     11  N   UNL     1       4.986   3.641   0.219  0.00  0.00    -0.314 N 
ATOM     19  C   UNL     1       4.632   1.213   0.469  0.00  0.00    +0.159 C 
ATOM     20  C   UNL     1       5.920   1.024  -0.319  0.00  0.00    +0.033 C 
ATOM     22  C   UNL     1       6.921   2.100   0.073  0.00  0.00    +0.021 C 
ATOM     23  C   UNL     1       4.069   2.630   0.424  0.00  0.00    +0.233 C 
ATOM     24  C   UNL     1       6.343   3.461  -0.263  0.00  0.00    +0.104 C 
ATOM     38  H   UNL     1       4.631   4.593   0.244  0.00  0.00    +0.149 HD
ENDBRANCH  10  19
ENDBRANCH  12  18
BRANCH  13   9
ATOM      6  O   UNL     1      -1.398   0.476  -2.056  0.00  0.00    -0.270 OA
ATOM      9  N   UNL     1      -1.448  -0.904  -0.194  0.00  0.00    -0.306 N 
ATOM     21  C   UNL     1      -1.929   0.104  -1.013  0.00  0.00    +0.248 C 
ATOM     33  H   UNL     1      -1.900  -1.093   0.695  0.00  0.00    +0.149 HD
BRANCH  21  25
ATOM     25  C   UNL     1      -3.168   0.778  -0.548  0.00  0.00    +0.078 A 
ATOM     26  C   UNL     1      -4.113   0.092   0.216  0.00  0.00    +0.133 A 
ATOM     27  C   UNL     1      -3.380   2.115  -0.884  0.00  0.00    +0.018 A 
ATOM     28  C   UNL     1      -5.270   0.744   0.643  0.00  0.00    +0.061 A 
ATOM     29  C   UNL     1      -4.537   2.766  -0.457  0.00  0.00    +0.015 A 
ATOM     30  C   UNL     1      -5.482   2.081   0.306  0.00  0.00    +0.011 A 
BRANCH  30   1
ATOM      1  S   UNL     1      -6.961   2.913   0.851  0.00  0.00    -0.128 S 
ATOM     32  C   UNL     1      -8.258   1.903   0.082  0.00  0.00    +0.090 C 
ENDBRANCH  30   1
BRANCH  26   8
ATOM      8  O   UNL     1      -3.924  -1.214   0.555  0.00  0.00    -0.494 OA
ATOM     31  C   UNL     1      -4.942  -1.834   1.337  0.00  0.00    +0.277 C 
ENDBRANCH  26   8
ENDBRANCH  21  25
ENDBRANCH  13   9
BRANCH  12   2
ATOM      2  O   UNL     1       2.602  -1.720  -1.514  0.00  0.00    -0.379 OA
ATOM     34  H   UNL     1       3.378  -2.296  -1.628  0.00  0.00    +0.211 HD
ENDBRANCH  12   2
BRANCH  16   3
ATOM      3  O   UNL     1      -1.356  -3.768  -0.707  0.00  0.00    -0.387 OA
ATOM     36  H   UNL     1      -1.121  -3.746  -1.650  0.00  0.00    +0.210 HD
ENDBRANCH  16   3
BRANCH  17   4
ATOM      4  O   UNL     1       0.857  -5.111   0.480  0.00  0.00    -0.389 OA
ATOM     37  H   UNL     1       1.688  -5.593   0.337  0.00  0.00    +0.210 HD
ENDBRANCH  17   4
TORSDOF 9
