REMARK  Name = 11867224
REMARK  5 active torsions:
REMARK  status: ('A' for Active; 'I' for Inactive)
REMARK    1  A    between atoms: S_1  and  N_9
REMARK    2  A    between atoms: S_1  and  C_25
REMARK    3  A    between atoms: N_9  and  C_20
REMARK    4  A    between atoms: C_19  and  C_22
REMARK    5  A    between atoms: C_22  and  C_23
REMARK                            x       y       z     vdW  Elec       q    Type
REMARK                         _______ _______ _______ _____ _____    ______ ____
ROOT
ATOM      3  O   UNL     1      -0.382   2.387  -1.960  0.00  0.00    -0.266 OA
ATOM      4  O   UNL     1       3.135  -1.603  -1.307  0.00  0.00    -0.275 OA
ATOM      7  N   UNL     1       3.532   0.101   0.222  0.00  0.00    -0.300 N 
ATOM      8  N   UNL     1       1.234   2.269  -0.267  0.00  0.00    -0.310 N 
ATOM     10  C   UNL     1       3.748   2.402  -0.725  0.00  0.00    +0.027 C 
ATOM     11  C   UNL     1       2.942   2.102   1.579  0.00  0.00    +0.054 C 
ATOM     12  C   UNL     1       3.834   2.964   0.689  0.00  0.00    +0.018 C 
ATOM     13  C   UNL     1       4.227   0.941  -0.755  0.00  0.00    +0.113 C 
ATOM     14  C   UNL     1       2.307   2.547  -1.230  0.00  0.00    +0.130 C 
ATOM     15  C   UNL     1       3.464   0.652   1.584  0.00  0.00    +0.117 C 
ATOM     16  C   UNL     1       1.502   2.129   1.101  0.00  0.00    +0.027 A 
ATOM     17  C   UNL     1       0.494   1.991   1.982  0.00  0.00    +0.024 A 
ATOM     18  C   UNL     1      -0.083   2.254  -0.774  0.00  0.00    +0.274 A 
ATOM     19  C   UNL     1       3.069  -1.159  -0.158  0.00  0.00    +0.220 C 
ATOM     20  C   UNL     1      -1.149   2.075   0.244  0.00  0.00    +0.112 A 
ATOM     21  C   UNL     1      -0.875   1.961   1.544  0.00  0.00    +0.031 A 
ENDROOT
BRANCH  20   9
ATOM      9  N   UNL     1      -2.499   2.034  -0.145  0.00  0.00    -0.211 N 
ATOM     33  H   UNL     1      -3.146   2.188   0.641  0.00  0.00    +0.174 HD
BRANCH   9   1
ATOM      1  S   UNL     1      -2.959   0.795  -1.204  0.00  0.00    +0.072 S 
ATOM      5  O   UNL     1      -3.645   1.361  -2.349  0.00  0.00    -0.150 OA
ATOM      6  O   UNL     1      -1.850  -0.120  -1.395  0.00  0.00    -0.150 OA
BRANCH   1  25
ATOM     25  C   UNL     1      -4.171  -0.041  -0.224  0.00  0.00    +0.108 A 
ATOM     28  C   UNL     1      -5.495   0.351  -0.308  0.00  0.00    +0.029 A 
ATOM     29  C   UNL     1      -3.771  -1.072   0.609  0.00  0.00    +0.029 A 
ATOM     30  C   UNL     1      -6.451  -0.308   0.465  0.00  0.00    +0.002 A 
ATOM     31  C   UNL     1      -4.727  -1.731   1.382  0.00  0.00    +0.002 A 
ATOM     32  C   UNL     1      -6.067  -1.349   1.310  0.00  0.00    +0.000 A 
ENDBRANCH   1  25
ENDBRANCH   9   1
ENDBRANCH  20   9
BRANCH  19  22
ATOM     22  C   UNL     1       2.446  -2.005   0.924  0.00  0.00    +0.138 C 
BRANCH  22  23
ATOM      2  S   UNL     1       0.406  -3.763   0.325  0.00  0.00    -0.101 S 
ATOM     23  C   UNL     1       2.050  -3.313   0.318  0.00  0.00    -0.001 A 
ATOM     24  C   UNL     1       2.858  -4.247  -0.270  0.00  0.00    +0.011 A 
ATOM     26  C   UNL     1       2.111  -5.368  -0.733  0.00  0.00    +0.008 A 
ATOM     27  C   UNL     1       0.764  -5.235  -0.473  0.00  0.00    +0.045 A 
ENDBRANCH  22  23
ENDBRANCH  19  22
TORSDOF 5
