REMARK  Name = 45361204
REMARK  8 active torsions:
REMARK  status: ('A' for Active; 'I' for Inactive)
REMARK    1  A    between atoms: O_6  and  C_28
REMARK    2  A    between atoms: N_7  and  C_20
REMARK    3  A    between atoms: N_8  and  C_19
REMARK    4  A    between atoms: C_15  and  C_18
REMARK    5  A    between atoms: C_18  and  C_21
REMARK    6  A    between atoms: C_19  and  C_22
REMARK    7  A    between atoms: C_21  and  C_23
REMARK    8  A    between atoms: C_33  and  C_34
REMARK                            x       y       z     vdW  Elec       q    Type
REMARK                         _______ _______ _______ _____ _____    ______ ____
ROOT
ATOM      4  O   UNL     1       0.114  -0.286   1.148  0.00  0.00    -0.274 OA
ATOM      7  N   UNL     1      -1.624   2.624  -0.723  0.00  0.00    -0.296 NA
ATOM      8  N   UNL     1       1.778   1.577   0.124  0.00  0.00    -0.286 NA
ATOM      9  N   UNL     1      -1.495   1.210   1.788  0.00  0.00    -0.312 N 
ATOM     11  C   UNL     1      -0.190   2.873  -0.459  0.00  0.00    +0.084 C 
ATOM     12  C   UNL     1       0.504   2.070   0.680  0.00  0.00    +0.161 C 
ATOM     13  C   UNL     1       0.727   2.580  -1.661  0.00  0.00    +0.036 C 
ATOM     14  C   UNL     1       2.093   2.411  -1.030  0.00  0.00    +0.087 C 
ATOM     15  C   UNL     1      -2.530   2.983   0.403  0.00  0.00    +0.074 C 
ATOM     16  C   UNL     1      -0.288   0.875   1.204  0.00  0.00    +0.232 C 
ATOM     17  C   UNL     1      -2.032   2.556   1.798  0.00  0.00    +0.123 C 
ATOM     20  C   UNL     1      -2.054   3.300  -1.959  0.00  0.00    +0.105 C 
ATOM     35  H   UNL     1      -2.034   0.469   2.226  0.00  0.00    +0.149 HD
ENDROOT
BRANCH  15  18
ATOM     18  C   UNL     1      -3.924   2.357   0.196  0.00  0.00    +0.029 C 
BRANCH  18  21
ATOM     21  C   UNL     1      -3.838   0.881  -0.145  0.00  0.00    +0.097 C 
BRANCH  21  23
ATOM      5  O   UNL     1      -6.204   0.996  -0.173  0.00  0.00    -0.276 OA
ATOM     10  N   UNL     1      -5.262  -1.077  -0.635  0.00  0.00    -0.301 N 
ATOM     23  C   UNL     1      -5.210   0.280  -0.318  0.00  0.00    +0.216 C 
ATOM     24  C   UNL     1      -6.557  -1.722  -0.864  0.00  0.00    +0.110 C 
ATOM     25  C   UNL     1      -4.096  -1.953  -0.813  0.00  0.00    +0.110 C 
ATOM     26  C   UNL     1      -6.715  -2.955   0.020  0.00  0.00    +0.050 C 
ATOM     27  C   UNL     1      -4.210  -3.192   0.070  0.00  0.00    +0.050 C 
ATOM     28  C   UNL     1      -5.537  -3.916  -0.156  0.00  0.00    +0.118 C 
BRANCH  28   6
ATOM      6  O   UNL     1      -5.643  -4.984   0.777  0.00  0.00    -0.392 OA
ATOM     36  H   UNL     1      -6.494  -5.427   0.621  0.00  0.00    +0.210 HD
ENDBRANCH  28   6
ENDBRANCH  21  23
ENDBRANCH  18  21
ENDBRANCH  15  18
BRANCH   8  19
ATOM     19  C   UNL     1       2.863   1.556   1.097  0.00  0.00    +0.120 C 
BRANCH  19  22
ATOM     22  C   UNL     1       3.960   0.606   0.693  0.00  0.00    -0.033 A 
ATOM     29  C   UNL     1       3.785  -0.769   0.850  0.00  0.00    +0.005 A 
ATOM     30  C   UNL     1       5.151   1.102   0.161  0.00  0.00    +0.005 A 
ATOM     31  C   UNL     1       4.801  -1.648   0.475  0.00  0.00    +0.012 A 
ATOM     32  C   UNL     1       6.166   0.222  -0.214  0.00  0.00    +0.012 A 
ATOM     33  C   UNL     1       5.991  -1.153  -0.057  0.00  0.00    +0.055 A 
BRANCH  33  34
ATOM      1  F   UNL     1       7.406  -2.013  -1.783  0.00  0.00    -0.166 F 
ATOM      2  F   UNL     1       6.745  -3.400  -0.245  0.00  0.00    -0.166 F 
ATOM      3  F   UNL     1       8.248  -1.897   0.212  0.00  0.00    -0.166 F 
ATOM     34  C   UNL     1       7.076  -2.093  -0.461  0.00  0.00    +0.417 C 
ENDBRANCH  33  34
ENDBRANCH  19  22
ENDBRANCH   8  19
TORSDOF 7
