MODEL 1
REMARK VINA RESULT:      -5.3      0.000      0.000
REMARK  Name = 75367706
REMARK  3 active torsions:
REMARK  status: ('A' for Active; 'I' for Inactive)
REMARK    1  A    between atoms: O_3  and  C_8
REMARK    2  A    between atoms: O_3  and  C_15
REMARK    3  A    between atoms: C_13  and  C_14
REMARK                            x       y       z     vdW  Elec       q    Type
REMARK                         _______ _______ _______ _____ _____    ______ ____
ROOT
ATOM      2  O   UNL     1      -1.807  12.222   8.419  0.00  0.00    -0.375 OA
ATOM      4  O   UNL     1      -1.331   9.139   4.494  0.00  0.00    -0.270 OA
ATOM      5  N   UNL     1      -2.120   9.804   6.599  0.00  0.00    -0.292 N 
ATOM      8  C   UNL     1      -3.925  11.167   7.592  0.00  0.00    +0.218 C 
ATOM      9  C   UNL     1      -3.193   9.826   7.605  0.00  0.00    +0.155 C 
ATOM     10  C   UNL     1      -0.909  10.563   6.923  0.00  0.00    +0.136 C 
ATOM     11  C   UNL     1      -3.228  12.260   8.407  0.00  0.00    +0.206 C 
ATOM     12  C   UNL     1      -1.192  12.045   7.147  0.00  0.00    +0.179 C 
ATOM     13  C   UNL     1      -2.200   9.146   5.365  0.00  0.00    +0.247 C 
ENDROOT
BRANCH  13  14
ATOM      1  F   UNL     1      -6.861   6.277   4.198  0.00  0.00    -0.205 F 
ATOM     14  C   UNL     1      -3.422   8.394   5.059  0.00  0.00    +0.037 A 
ATOM     16  C   UNL     1      -4.503   9.035   4.453  0.00  0.00    +0.016 A 
ATOM     17  C   UNL     1      -3.504   7.036   5.374  0.00  0.00    +0.016 A 
ATOM     18  C   UNL     1      -5.665   8.320   4.163  0.00  0.00    +0.039 A 
ATOM     19  C   UNL     1      -4.666   6.322   5.084  0.00  0.00    +0.039 A 
ATOM     21  C   UNL     1      -5.746   6.964   4.477  0.00  0.00    +0.123 A 
ENDBRANCH  13  14
BRANCH   8   3
ATOM      3  O   UNL     1      -5.243  10.976   8.104  0.00  0.00    -0.468 OA
BRANCH   3  15
ATOM      6  N   UNL     1      -7.201   9.962   7.369  0.00  0.00    -0.219 NA
ATOM      7  N   UNL     1      -7.252  11.714   5.179  0.00  0.00    -0.256 NA
ATOM     15  C   UNL     1      -6.250  10.899   7.183  0.00  0.00    +0.234 A 
ATOM     20  C   UNL     1      -6.275  11.759   6.107  0.00  0.00    +0.177 A 
ATOM     22  C   UNL     1      -8.178   9.916   6.441  0.00  0.00    +0.134 A 
ATOM     23  C   UNL     1      -8.202  10.778   5.366  0.00  0.00    +0.130 A 
ENDBRANCH   3  15
ENDBRANCH   8   3
TORSDOF 3
ENDMDL
MODEL 2
REMARK VINA RESULT:      -5.1     21.898     23.836
REMARK  Name = 75367706
REMARK  3 active torsions:
REMARK  status: ('A' for Active; 'I' for Inactive)
REMARK    1  A    between atoms: O_3  and  C_8
REMARK    2  A    between atoms: O_3  and  C_15
REMARK    3  A    between atoms: C_13  and  C_14
REMARK                            x       y       z     vdW  Elec       q    Type
REMARK                         _______ _______ _______ _____ _____    ______ ____
ROOT
ATOM      2  O   UNL     1      -8.807 -10.757  12.888  0.00  0.00    -0.375 OA
ATOM      4  O   UNL     1      -7.955  -8.879  17.458  0.00  0.00    -0.270 OA
ATOM      5  N   UNL     1      -8.047 -10.561  15.827  0.00  0.00    -0.292 N 
ATOM      8  C   UNL     1      -6.678 -11.484  13.991  0.00  0.00    +0.218 C 
ATOM      9  C   UNL     1      -7.499 -11.794  15.241  0.00  0.00    +0.155 C 
ATOM     10  C   UNL     1      -9.184  -9.957  15.127  0.00  0.00    +0.136 C 
ATOM     11  C   UNL     1      -7.518 -11.332  12.720  0.00  0.00    +0.206 C 
ATOM     12  C   UNL     1      -8.849  -9.580  13.688  0.00  0.00    +0.179 C 
ATOM     13  C   UNL     1      -7.535  -9.927  16.967  0.00  0.00    +0.247 C 
ENDROOT
BRANCH  13  14
ATOM      1  F   UNL     1      -3.183 -12.285  19.576  0.00  0.00    -0.205 F 
ATOM     14  C   UNL     1      -6.395 -10.545  17.651  0.00  0.00    +0.037 A 
ATOM     16  C   UNL     1      -6.590 -11.242  18.844  0.00  0.00    +0.016 A 
ATOM     17  C   UNL     1      -5.113 -10.437  17.109  0.00  0.00    +0.016 A 
ATOM     18  C   UNL     1      -5.506 -11.829  19.495  0.00  0.00    +0.039 A 
ATOM     19  C   UNL     1      -4.028 -11.024  17.760  0.00  0.00    +0.039 A 
ATOM     21  C   UNL     1      -4.225 -11.721  18.952  0.00  0.00    +0.123 A 
ENDBRANCH  13  14
BRANCH   8   3
ATOM      3  O   UNL     1      -5.727 -12.530  13.795  0.00  0.00    -0.468 OA
BRANCH   3  15
ATOM      6  N   UNL     1      -4.062 -10.908  13.769  0.00  0.00    -0.219 NA
ATOM      7  N   UNL     1      -2.181 -12.870  14.461  0.00  0.00    -0.256 NA
ATOM     15  C   UNL     1      -4.411 -12.197  13.955  0.00  0.00    +0.234 A 
ATOM     20  C   UNL     1      -3.486 -13.161  14.294  0.00  0.00    +0.177 A 
ATOM     22  C   UNL     1      -2.756 -10.618  13.936  0.00  0.00    +0.134 A 
ATOM     23  C   UNL     1      -1.833 -11.582  14.276  0.00  0.00    +0.130 A 
ENDBRANCH   3  15
ENDBRANCH   8   3
TORSDOF 3
ENDMDL
MODEL 3
REMARK VINA RESULT:      -5.1     19.736     21.358
REMARK  Name = 75367706
REMARK  3 active torsions:
REMARK  status: ('A' for Active; 'I' for Inactive)
REMARK    1  A    between atoms: O_3  and  C_8
REMARK    2  A    between atoms: O_3  and  C_15
REMARK    3  A    between atoms: C_13  and  C_14
REMARK                            x       y       z     vdW  Elec       q    Type
REMARK                         _______ _______ _______ _____ _____    ______ ____
ROOT
ATOM      2  O   UNL     1      -3.202 -11.173  16.410  0.00  0.00    -0.375 OA
ATOM      4  O   UNL     1      -0.922  -9.744  12.179  0.00  0.00    -0.270 OA
ATOM      5  N   UNL     1      -2.406 -11.012  13.478  0.00  0.00    -0.292 N 
ATOM      8  C   UNL     1      -4.687 -10.868  14.415  0.00  0.00    +0.218 C 
ATOM      9  C   UNL     1      -3.693 -11.711  13.619  0.00  0.00    +0.155 C 
ATOM     10  C   UNL     1      -1.551 -10.975  14.668  0.00  0.00    +0.136 C 
ATOM     11  C   UNL     1      -4.528 -10.993  15.933  0.00  0.00    +0.206 C 
ATOM     12  C   UNL     1      -2.230 -10.294  15.853  0.00  0.00    +0.179 C 
ATOM     13  C   UNL     1      -1.978 -10.363  12.313  0.00  0.00    +0.247 C 
ENDROOT
BRANCH  13  14
ATOM      1  F   UNL     1      -5.303 -10.535   7.815  0.00  0.00    -0.205 F 
ATOM     14  C   UNL     1      -2.849 -10.408  11.134  0.00  0.00    +0.037 A 
ATOM     16  C   UNL     1      -3.161  -9.232  10.451  0.00  0.00    +0.016 A 
ATOM     17  C   UNL     1      -3.368 -11.627  10.695  0.00  0.00    +0.016 A 
ATOM     18  C   UNL     1      -3.990  -9.274   9.331  0.00  0.00    +0.039 A 
ATOM     19  C   UNL     1      -4.197 -11.669   9.574  0.00  0.00    +0.039 A 
ATOM     21  C   UNL     1      -4.507 -10.493   8.892  0.00  0.00    +0.123 A 
ENDBRANCH  13  14
BRANCH   8   3
ATOM      3  O   UNL     1      -6.012 -11.258  14.055  0.00  0.00    -0.468 OA
BRANCH   3  15
ATOM      6  N   UNL     1      -7.154 -11.570  12.054  0.00  0.00    -0.219 NA
ATOM      7  N   UNL     1      -6.810  -8.849  11.467  0.00  0.00    -0.256 NA
ATOM     15  C   UNL     1      -6.506 -10.736  12.892  0.00  0.00    +0.234 A 
ATOM     20  C   UNL     1      -6.337  -9.400  12.603  0.00  0.00    +0.177 A 
ATOM     22  C   UNL     1      -7.627 -11.020  10.918  0.00  0.00    +0.134 A 
ATOM     23  C   UNL     1      -7.458  -9.683  10.631  0.00  0.00    +0.130 A 
ENDBRANCH   3  15
ENDBRANCH   8   3
TORSDOF 3
ENDMDL
MODEL 4
REMARK VINA RESULT:      -5.0     30.820     33.065
REMARK  Name = 75367706
REMARK  3 active torsions:
REMARK  status: ('A' for Active; 'I' for Inactive)
REMARK    1  A    between atoms: O_3  and  C_8
REMARK    2  A    between atoms: O_3  and  C_15
REMARK    3  A    between atoms: C_13  and  C_14
REMARK                            x       y       z     vdW  Elec       q    Type
REMARK                         _______ _______ _______ _____ _____    ______ ____
ROOT
ATOM      2  O   UNL     1      22.303  -4.749  26.397  0.00  0.00    -0.375 OA
ATOM      4  O   UNL     1      19.540  -0.655  25.537  0.00  0.00    -0.270 OA
ATOM      5  N   UNL     1      20.418  -2.774  25.054  0.00  0.00    -0.292 N 
ATOM      8  C   UNL     1      19.981  -5.154  25.548  0.00  0.00    +0.218 C 
ATOM      9  C   UNL     1      20.257  -4.112  24.465  0.00  0.00    +0.155 C 
ATOM     10  C   UNL     1      21.685  -2.515  25.744  0.00  0.00    +0.136 C 
ATOM     11  C   UNL     1      21.243  -5.681  26.236  0.00  0.00    +0.206 C 
ATOM     12  C   UNL     1      21.923  -3.475  26.906  0.00  0.00    +0.179 C 
ATOM     13  C   UNL     1      19.442  -1.770  25.025  0.00  0.00    +0.247 C 
ENDROOT
BRANCH  13  14
ATOM      1  F   UNL     1      14.627  -2.838  22.380  0.00  0.00    -0.205 F 
ATOM     14  C   UNL     1      18.180  -2.050  24.332  0.00  0.00    +0.037 A 
ATOM     16  C   UNL     1      17.156  -2.729  24.993  0.00  0.00    +0.016 A 
ATOM     17  C   UNL     1      18.002  -1.637  23.010  0.00  0.00    +0.016 A 
ATOM     18  C   UNL     1      15.956  -2.995  24.334  0.00  0.00    +0.039 A 
ATOM     19  C   UNL     1      16.803  -1.904  22.352  0.00  0.00    +0.039 A 
ATOM     21  C   UNL     1      15.779  -2.583  23.014  0.00  0.00    +0.123 A 
ENDBRANCH  13  14
BRANCH   8   3
ATOM      3  O   UNL     1      19.280  -6.251  24.963  0.00  0.00    -0.468 OA
BRANCH   3  15
ATOM      6  N   UNL     1      17.665  -5.857  26.588  0.00  0.00    -0.219 NA
ATOM      7  N   UNL     1      16.152  -7.982  25.557  0.00  0.00    -0.256 NA
ATOM     15  C   UNL     1      18.082  -6.582  25.531  0.00  0.00    +0.234 A 
ATOM     20  C   UNL     1      17.338  -7.626  25.024  0.00  0.00    +0.177 A 
ATOM     22  C   UNL     1      16.479  -6.213  27.120  0.00  0.00    +0.134 A 
ATOM     23  C   UNL     1      15.736  -7.257  26.613  0.00  0.00    +0.130 A 
ENDBRANCH   3  15
ENDBRANCH   8   3
TORSDOF 3
ENDMDL
MODEL 5
REMARK VINA RESULT:      -5.0     14.255     16.007
REMARK  Name = 75367706
REMARK  3 active torsions:
REMARK  status: ('A' for Active; 'I' for Inactive)
REMARK    1  A    between atoms: O_3  and  C_8
REMARK    2  A    between atoms: O_3  and  C_15
REMARK    3  A    between atoms: C_13  and  C_14
REMARK                            x       y       z     vdW  Elec       q    Type
REMARK                         _______ _______ _______ _____ _____    ______ ____
ROOT
ATOM      2  O   UNL     1     -10.094  12.480  17.743  0.00  0.00    -0.375 OA
ATOM      4  O   UNL     1     -10.932   7.572  17.155  0.00  0.00    -0.270 OA
ATOM      5  N   UNL     1     -10.586   9.544  18.374  0.00  0.00    -0.292 N 
ATOM      8  C   UNL     1     -11.857  11.486  19.220  0.00  0.00    +0.218 C 
ATOM      9  C   UNL     1     -10.866  10.373  19.557  0.00  0.00    +0.155 C 
ATOM     10  C   UNL     1      -9.708  10.134  17.359  0.00  0.00    +0.136 C 
ATOM     11  C   UNL     1     -11.210  12.722  18.589  0.00  0.00    +0.206 C 
ATOM     12  C   UNL     1     -10.266  11.436  16.791  0.00  0.00    +0.179 C 
ATOM     13  C   UNL     1     -11.125   8.271  18.149  0.00  0.00    +0.247 C 
ENDROOT
BRANCH  13  14
ATOM      1  F   UNL     1     -14.479   6.091  22.063  0.00  0.00    -0.205 F 
ATOM     14  C   UNL     1     -12.004   7.700  19.175  0.00  0.00    +0.037 A 
ATOM     16  C   UNL     1     -11.459   6.982  20.240  0.00  0.00    +0.016 A 
ATOM     17  C   UNL     1     -13.386   7.873  19.086  0.00  0.00    +0.016 A 
ATOM     18  C   UNL     1     -12.294   6.438  21.216  0.00  0.00    +0.039 A 
ATOM     19  C   UNL     1     -14.221   7.329  20.061  0.00  0.00    +0.039 A 
ATOM     21  C   UNL     1     -13.675   6.613  21.126  0.00  0.00    +0.123 A 
ENDBRANCH  13  14
BRANCH   8   3
ATOM      3  O   UNL     1     -12.533  11.876  20.415  0.00  0.00    -0.468 OA
BRANCH   3  15
ATOM      6  N   UNL     1     -14.669  11.372  19.647  0.00  0.00    -0.219 NA
ATOM      7  N   UNL     1     -15.222  10.121  22.096  0.00  0.00    -0.256 NA
ATOM     15  C   UNL     1     -13.756  11.307  20.637  0.00  0.00    +0.234 A 
ATOM     20  C   UNL     1     -14.029  10.693  21.840  0.00  0.00    +0.177 A 
ATOM     22  C   UNL     1     -15.863  10.800  19.903  0.00  0.00    +0.134 A 
ATOM     23  C   UNL     1     -16.134  10.186  21.106  0.00  0.00    +0.130 A 
ENDBRANCH   3  15
ENDBRANCH   8   3
TORSDOF 3
ENDMDL
MODEL 6
REMARK VINA RESULT:      -5.0     22.317     23.871
REMARK  Name = 75367706
REMARK  3 active torsions:
REMARK  status: ('A' for Active; 'I' for Inactive)
REMARK    1  A    between atoms: O_3  and  C_8
REMARK    2  A    between atoms: O_3  and  C_15
REMARK    3  A    between atoms: C_13  and  C_14
REMARK                            x       y       z     vdW  Elec       q    Type
REMARK                         _______ _______ _______ _____ _____    ______ ____
ROOT
ATOM      2  O   UNL     1      -3.284 -11.788  11.709  0.00  0.00    -0.375 OA
ATOM      4  O   UNL     1      -1.752 -10.710  16.361  0.00  0.00    -0.270 OA
ATOM      5  N   UNL     1      -3.247 -10.711  14.555  0.00  0.00    -0.292 N 
ATOM      8  C   UNL     1      -4.966 -12.159  13.529  0.00  0.00    +0.218 C 
ATOM      9  C   UNL     1      -4.627 -10.762  14.048  0.00  0.00    +0.155 C 
ATOM     10  C   UNL     1      -2.184 -10.686  13.546  0.00  0.00    +0.136 C 
ATOM     11  C   UNL     1      -4.498 -12.417  12.094  0.00  0.00    +0.206 C 
ATOM     12  C   UNL     1      -2.212 -11.912  12.639  0.00  0.00    +0.179 C 
ATOM     13  C   UNL     1      -2.898 -10.720  15.911  0.00  0.00    +0.247 C 
ENDROOT
BRANCH  13  14
ATOM      1  F   UNL     1      -7.015 -10.827  19.700  0.00  0.00    -0.205 F 
ATOM     14  C   UNL     1      -3.977 -10.749  16.905  0.00  0.00    +0.037 A 
ATOM     16  C   UNL     1      -3.852 -11.536  18.049  0.00  0.00    +0.016 A 
ATOM     17  C   UNL     1      -5.130  -9.988  16.705  0.00  0.00    +0.016 A 
ATOM     18  C   UNL     1      -4.878 -11.563  18.993  0.00  0.00    +0.039 A 
ATOM     19  C   UNL     1      -6.156 -10.015  17.649  0.00  0.00    +0.039 A 
ATOM     21  C   UNL     1      -6.029 -10.802  18.794  0.00  0.00    +0.123 A 
ENDBRANCH  13  14
BRANCH   8   3
ATOM      3  O   UNL     1      -6.379 -12.344  13.597  0.00  0.00    -0.468 OA
BRANCH   3  15
ATOM      6  N   UNL     1      -6.185 -13.559  15.570  0.00  0.00    -0.219 NA
ATOM      7  N   UNL     1      -8.628 -12.487  16.435  0.00  0.00    -0.256 NA
ATOM     15  C   UNL     1      -6.891 -12.693  14.815  0.00  0.00    +0.234 A 
ATOM     20  C   UNL     1      -8.092 -12.167  15.241  0.00  0.00    +0.177 A 
ATOM     22  C   UNL     1      -6.721 -13.879  16.764  0.00  0.00    +0.134 A 
ATOM     23  C   UNL     1      -7.922 -13.352  17.189  0.00  0.00    +0.130 A 
ENDBRANCH   3  15
ENDBRANCH   8   3
TORSDOF 3
ENDMDL
MODEL 7
REMARK VINA RESULT:      -4.9     20.394     22.617
REMARK  Name = 75367706
REMARK  3 active torsions:
REMARK  status: ('A' for Active; 'I' for Inactive)
REMARK    1  A    between atoms: O_3  and  C_8
REMARK    2  A    between atoms: O_3  and  C_15
REMARK    3  A    between atoms: C_13  and  C_14
REMARK                            x       y       z     vdW  Elec       q    Type
REMARK                         _______ _______ _______ _____ _____    ______ ____
ROOT
ATOM      2  O   UNL     1      -7.139 -10.568  18.238  0.00  0.00    -0.375 OA
ATOM      4  O   UNL     1      -8.657 -10.577  13.460  0.00  0.00    -0.270 OA
ATOM      5  N   UNL     1      -7.310  -9.934  15.267  0.00  0.00    -0.292 N 
ATOM      8  C   UNL     1      -5.327 -10.719  16.514  0.00  0.00    +0.218 C 
ATOM      9  C   UNL     1      -5.992  -9.546  15.796  0.00  0.00    +0.155 C 
ATOM     10  C   UNL     1      -8.393 -10.059  16.247  0.00  0.00    +0.136 C 
ATOM     11  C   UNL     1      -5.783 -10.896  17.965  0.00  0.00    +0.206 C 
ATOM     12  C   UNL     1      -8.090 -11.098  17.322  0.00  0.00    +0.179 C 
ATOM     13  C   UNL     1      -7.574 -10.220  13.922  0.00  0.00    +0.247 C 
ENDROOT
BRANCH  13  14
ATOM      1  F   UNL     1      -3.384  -9.736  10.244  0.00  0.00    -0.205 F 
ATOM     14  C   UNL     1      -6.475 -10.093  12.958  0.00  0.00    +0.037 A 
ATOM     16  C   UNL     1      -6.331  -8.921  12.214  0.00  0.00    +0.016 A 
ATOM     17  C   UNL     1      -5.574 -11.144  12.783  0.00  0.00    +0.016 A 
ATOM     18  C   UNL     1      -5.288  -8.801  11.297  0.00  0.00    +0.039 A 
ATOM     19  C   UNL     1      -4.530 -11.023  11.867  0.00  0.00    +0.039 A 
ATOM     21  C   UNL     1      -4.387  -9.851  11.124  0.00  0.00    +0.123 A 
ENDBRANCH  13  14
BRANCH   8   3
ATOM      3  O   UNL     1      -3.913 -10.527  16.494  0.00  0.00    -0.468 OA
BRANCH   3  15
ATOM      6  N   UNL     1      -3.570 -12.539  15.380  0.00  0.00    -0.219 NA
ATOM      7  N   UNL     1      -1.463 -11.357  13.955  0.00  0.00    -0.256 NA
ATOM     15  C   UNL     1      -3.212 -11.254  15.572  0.00  0.00    +0.234 A 
ATOM     20  C   UNL     1      -2.177 -10.673  14.872  0.00  0.00    +0.177 A 
ATOM     22  C   UNL     1      -2.856 -13.223  14.463  0.00  0.00    +0.134 A 
ATOM     23  C   UNL     1      -1.821 -12.641  13.763  0.00  0.00    +0.130 A 
ENDBRANCH   3  15
ENDBRANCH   8   3
TORSDOF 3
ENDMDL
MODEL 8
REMARK VINA RESULT:      -4.8     22.546     24.648
REMARK  Name = 75367706
REMARK  3 active torsions:
REMARK  status: ('A' for Active; 'I' for Inactive)
REMARK    1  A    between atoms: O_3  and  C_8
REMARK    2  A    between atoms: O_3  and  C_15
REMARK    3  A    between atoms: C_13  and  C_14
REMARK                            x       y       z     vdW  Elec       q    Type
REMARK                         _______ _______ _______ _____ _____    ______ ____
ROOT
ATOM      2  O   UNL     1     -10.038 -13.746  18.668  0.00  0.00    -0.375 OA
ATOM      4  O   UNL     1      -6.333 -10.860  20.424  0.00  0.00    -0.270 OA
ATOM      5  N   UNL     1      -7.274 -12.549  19.098  0.00  0.00    -0.292 N 
ATOM      8  C   UNL     1      -8.467 -12.817  16.952  0.00  0.00    +0.218 C 
ATOM      9  C   UNL     1      -7.313 -13.296  17.831  0.00  0.00    +0.155 C 
ATOM     10  C   UNL     1      -8.291 -12.900  20.093  0.00  0.00    +0.136 C 
ATOM     11  C   UNL     1      -9.815 -13.456  17.295  0.00  0.00    +0.206 C 
ATOM     12  C   UNL     1      -9.710 -12.697  19.573  0.00  0.00    +0.179 C 
ATOM     13  C   UNL     1      -6.367 -11.521  19.387  0.00  0.00    +0.247 C 
ENDROOT
BRANCH  13  14
ATOM      1  F   UNL     1      -2.523 -10.227  15.531  0.00  0.00    -0.205 F 
ATOM     14  C   UNL     1      -5.359 -11.182  18.376  0.00  0.00    +0.037 A 
ATOM     16  C   UNL     1      -4.084 -11.744  18.445  0.00  0.00    +0.016 A 
ATOM     17  C   UNL     1      -5.675 -10.297  17.345  0.00  0.00    +0.016 A 
ATOM     18  C   UNL     1      -3.126 -11.422  17.485  0.00  0.00    +0.039 A 
ATOM     19  C   UNL     1      -4.716  -9.974  16.384  0.00  0.00    +0.039 A 
ATOM     21  C   UNL     1      -3.442 -10.537  16.454  0.00  0.00    +0.123 A 
ENDBRANCH  13  14
BRANCH   8   3
ATOM      3  O   UNL     1      -8.153 -13.100  15.589  0.00  0.00    -0.468 OA
BRANCH   3  15
ATOM      6  N   UNL     1      -8.415 -10.896  14.897  0.00  0.00    -0.219 NA
ATOM      7  N   UNL     1      -6.146 -11.168  13.271  0.00  0.00    -0.256 NA
ATOM     15  C   UNL     1      -7.719 -12.049  14.831  0.00  0.00    +0.234 A 
ATOM     20  C   UNL     1      -6.605 -12.182  14.032  0.00  0.00    +0.177 A 
ATOM     22  C   UNL     1      -7.957  -9.882  14.137  0.00  0.00    +0.134 A 
ATOM     23  C   UNL     1      -6.842 -10.016  13.338  0.00  0.00    +0.130 A 
ENDBRANCH   3  15
ENDBRANCH   8   3
TORSDOF 3
ENDMDL
MODEL 9
REMARK VINA RESULT:      -4.8     30.795     33.060
REMARK  Name = 75367706
REMARK  3 active torsions:
REMARK  status: ('A' for Active; 'I' for Inactive)
REMARK    1  A    between atoms: O_3  and  C_8
REMARK    2  A    between atoms: O_3  and  C_15
REMARK    3  A    between atoms: C_13  and  C_14
REMARK                            x       y       z     vdW  Elec       q    Type
REMARK                         _______ _______ _______ _____ _____    ______ ____
ROOT
ATOM      2  O   UNL     1      18.228  -7.683  27.200  0.00  0.00    -0.375 OA
ATOM      4  O   UNL     1      18.088  -6.276  22.390  0.00  0.00    -0.270 OA
ATOM      5  N   UNL     1      17.422  -6.254  24.638  0.00  0.00    -0.292 N 
ATOM      8  C   UNL     1      18.066  -5.217  26.785  0.00  0.00    +0.218 C 
ATOM      9  C   UNL     1      16.929  -5.515  25.810  0.00  0.00    +0.155 C 
ATOM     10  C   UNL     1      17.729  -7.673  24.845  0.00  0.00    +0.136 C 
ATOM     11  C   UNL     1      18.387  -6.376  27.734  0.00  0.00    +0.206 C 
ATOM     12  C   UNL     1      18.798  -7.889  25.912  0.00  0.00    +0.179 C 
ATOM     13  C   UNL     1      17.646  -5.688  23.376  0.00  0.00    +0.247 C 
ENDROOT
BRANCH  13  14
ATOM      1  F   UNL     1      16.465  -0.263  22.668  0.00  0.00    -0.205 F 
ATOM     14  C   UNL     1      17.336  -4.266  23.191  0.00  0.00    +0.037 A 
ATOM     16  C   UNL     1      16.010  -3.851  23.062  0.00  0.00    +0.016 A 
ATOM     17  C   UNL     1      18.368  -3.327  23.142  0.00  0.00    +0.016 A 
ATOM     18  C   UNL     1      15.716  -2.499  22.885  0.00  0.00    +0.039 A 
ATOM     19  C   UNL     1      18.073  -1.975  22.965  0.00  0.00    +0.039 A 
ATOM     21  C   UNL     1      16.747  -1.562  22.837  0.00  0.00    +0.123 A 
ENDBRANCH  13  14
BRANCH   8   3
ATOM      3  O   UNL     1      17.720  -4.069  27.558  0.00  0.00    -0.468 OA
BRANCH   3  15
ATOM      6  N   UNL     1      19.132  -2.859  28.954  0.00  0.00    -0.219 NA
ATOM      7  N   UNL     1      20.148  -1.514  26.711  0.00  0.00    -0.256 NA
ATOM     15  C   UNL     1      18.691  -3.118  27.706  0.00  0.00    +0.234 A 
ATOM     20  C   UNL     1      19.190  -2.457  26.605  0.00  0.00    +0.177 A 
ATOM     22  C   UNL     1      20.090  -1.916  29.060  0.00  0.00    +0.134 A 
ATOM     23  C   UNL     1      20.588  -1.256  27.958  0.00  0.00    +0.130 A 
ENDBRANCH   3  15
ENDBRANCH   8   3
TORSDOF 3
ENDMDL
MODEL 10
REMARK VINA RESULT:      -4.8     15.015     17.149
REMARK  Name = 75367706
REMARK  3 active torsions:
REMARK  status: ('A' for Active; 'I' for Inactive)
REMARK    1  A    between atoms: O_3  and  C_8
REMARK    2  A    between atoms: O_3  and  C_15
REMARK    3  A    between atoms: C_13  and  C_14
REMARK                            x       y       z     vdW  Elec       q    Type
REMARK                         _______ _______ _______ _____ _____    ______ ____
ROOT
ATOM      2  O   UNL     1     -16.900   7.010  21.713  0.00  0.00    -0.375 OA
ATOM      4  O   UNL     1     -11.998   5.972  21.556  0.00  0.00    -0.270 OA
ATOM      5  N   UNL     1     -14.052   6.696  20.689  0.00  0.00    -0.292 N 
ATOM      8  C   UNL     1     -15.452   8.729  20.605  0.00  0.00    +0.218 C 
ATOM      9  C   UNL     1     -14.814   7.594  19.807  0.00  0.00    +0.155 C 
ATOM     10  C   UNL     1     -14.838   5.782  21.523  0.00  0.00    +0.136 C 
ATOM     11  C   UNL     1     -16.783   8.352  21.261  0.00  0.00    +0.206 C 
ATOM     12  C   UNL     1     -15.791   6.519  22.458  0.00  0.00    +0.179 C 
ATOM     13  C   UNL     1     -12.656   6.689  20.803  0.00  0.00    +0.247 C 
ENDROOT
BRANCH  13  14
ATOM      1  F   UNL     1      -9.726  10.217  17.596  0.00  0.00    -0.205 F 
ATOM     14  C   UNL     1     -11.888   7.614  19.962  0.00  0.00    +0.037 A 
ATOM     16  C   UNL     1     -11.481   8.847  20.473  0.00  0.00    +0.016 A 
ATOM     17  C   UNL     1     -11.564   7.262  18.651  0.00  0.00    +0.016 A 
ATOM     18  C   UNL     1     -10.751   9.727  19.674  0.00  0.00    +0.039 A 
ATOM     19  C   UNL     1     -10.835   8.141  17.852  0.00  0.00    +0.039 A 
ATOM     21  C   UNL     1     -10.427   9.373  18.364  0.00  0.00    +0.123 A 
ENDBRANCH  13  14
BRANCH   8   3
ATOM      3  O   UNL     1     -15.663   9.840  19.734  0.00  0.00    -0.468 OA
BRANCH   3  15
ATOM      6  N   UNL     1     -14.283  11.299  20.906  0.00  0.00    -0.219 NA
ATOM      7  N   UNL     1     -13.188  12.169  18.474  0.00  0.00    -0.256 NA
ATOM     15  C   UNL     1     -14.688  10.799  19.721  0.00  0.00    +0.234 A 
ATOM     20  C   UNL     1     -14.150  11.226  18.527  0.00  0.00    +0.177 A 
ATOM     22  C   UNL     1     -13.321  12.242  20.852  0.00  0.00    +0.134 A 
ATOM     23  C   UNL     1     -12.783  12.668  19.657  0.00  0.00    +0.130 A 
ENDBRANCH   3  15
ENDBRANCH   8   3
TORSDOF 3
ENDMDL
