MODEL 1
REMARK VINA RESULT:      -6.8      0.000      0.000
REMARK  Name = 75536642
REMARK  9 active torsions:
REMARK  status: ('A' for Active; 'I' for Inactive)
REMARK    1  A    between atoms: O_3  and  C_10
REMARK    2  A    between atoms: N_6  and  C_9
REMARK    3  A    between atoms: N_6  and  C_14
REMARK    4  A    between atoms: N_7  and  C_13
REMARK    5  A    between atoms: N_8  and  C_22
REMARK    6  A    between atoms: C_11  and  C_13
REMARK    7  A    between atoms: C_14  and  C_15
REMARK    8  A    between atoms: C_16  and  C_19
REMARK    9  A    between atoms: C_28  and  C_29
REMARK                            x       y       z     vdW  Elec       q    Type
REMARK                         _______ _______ _______ _____ _____    ______ ____
ROOT
ATOM      2  O   UNL     1      12.491  12.825  23.462  0.00  0.00    -0.371 OA
ATOM      9  C   UNL     1      10.918  11.106  23.873  0.00  0.00    +0.111 C 
ATOM     10  C   UNL     1      11.577  11.461  25.194  0.00  0.00    +0.164 C 
ATOM     11  C   UNL     1      12.719  12.404  24.820  0.00  0.00    +0.165 C 
ATOM     12  C   UNL     1      11.213  12.340  23.036  0.00  0.00    +0.181 C 
ENDROOT
BRANCH  10   3
ATOM      3  O   UNL     1      10.620  12.175  25.980  0.00  0.00    -0.388 OA
ATOM     31  H   UNL     1      11.016  13.032  26.212  0.00  0.00    +0.210 HD
ENDBRANCH  10   3
BRANCH   9   6
ATOM      6  N   UNL     1      11.519   9.917  23.273  0.00  0.00    -0.305 NA
ATOM     30  H   UNL     1      12.427  10.163  22.879  0.00  0.00    +0.123 HD
BRANCH   6  14
ATOM     14  C   UNL     1      10.680   9.387  22.205  0.00  0.00    +0.116 C 
BRANCH  14  15
ATOM     15  C   UNL     1      11.377   9.430  20.871  0.00  0.00    -0.033 A 
ATOM     17  C   UNL     1      12.212  10.501  20.554  0.00  0.00    +0.007 A 
ATOM     18  C   UNL     1      11.188   8.398  19.952  0.00  0.00    +0.007 A 
ATOM     20  C   UNL     1      12.858  10.542  19.319  0.00  0.00    +0.023 A 
ATOM     21  C   UNL     1      11.834   8.438  18.716  0.00  0.00    +0.023 A 
ATOM     22  C   UNL     1      12.669   9.510  18.399  0.00  0.00    +0.033 A 
BRANCH  22   8
ATOM      5  O   UNL     1      14.032   7.328  16.834  0.00  0.00    -0.276 OA
ATOM      8  N   UNL     1      13.314   9.550  17.163  0.00  0.00    -0.286 N 
ATOM     28  C   UNL     1      13.936   8.498  16.478  0.00  0.00    +0.214 C 
ATOM     29  C   UNL     1      14.520   8.955  15.164  0.00  0.00    +0.109 C 
ATOM     33  H   UNL     1      13.330  10.462  16.711  0.00  0.00    +0.155 HD
ENDBRANCH  22   8
ENDBRANCH  14  15
ENDBRANCH   6  14
ENDBRANCH   9   6
BRANCH  11  13
ATOM     13  C   UNL     1      14.093  11.756  24.895  0.00  0.00    +0.138 C 
BRANCH  13   7
ATOM      4  O   UNL     1      16.125  11.531  22.878  0.00  0.00    -0.270 OA
ATOM      7  N   UNL     1      14.227  10.705  23.927  0.00  0.00    -0.309 N 
ATOM     16  C   UNL     1      15.247  10.678  22.982  0.00  0.00    +0.244 C 
ATOM     32  H   UNL     1      13.487  10.012  23.904  0.00  0.00    +0.149 HD
BRANCH  16  19
ATOM      1  F   UNL     1      15.187   6.359  19.393  0.00  0.00    -0.205 F 
ATOM     19  C   UNL     1      15.231   9.535  22.032  0.00  0.00    +0.037 A 
ATOM     23  C   UNL     1      15.935   9.617  20.831  0.00  0.00    +0.016 A 
ATOM     24  C   UNL     1      14.511   8.381  22.341  0.00  0.00    +0.016 A 
ATOM     25  C   UNL     1      15.920   8.544  19.938  0.00  0.00    +0.039 A 
ATOM     26  C   UNL     1      14.496   7.309  21.450  0.00  0.00    +0.039 A 
ATOM     27  C   UNL     1      15.200   7.390  20.248  0.00  0.00    +0.123 A 
ENDBRANCH  16  19
ENDBRANCH  13   7
ENDBRANCH  11  13
TORSDOF 8
ENDMDL
MODEL 2
REMARK VINA RESULT:      -6.7      3.810      6.074
REMARK  Name = 75536642
REMARK  9 active torsions:
REMARK  status: ('A' for Active; 'I' for Inactive)
REMARK    1  A    between atoms: O_3  and  C_10
REMARK    2  A    between atoms: N_6  and  C_9
REMARK    3  A    between atoms: N_6  and  C_14
REMARK    4  A    between atoms: N_7  and  C_13
REMARK    5  A    between atoms: N_8  and  C_22
REMARK    6  A    between atoms: C_11  and  C_13
REMARK    7  A    between atoms: C_14  and  C_15
REMARK    8  A    between atoms: C_16  and  C_19
REMARK    9  A    between atoms: C_28  and  C_29
REMARK                            x       y       z     vdW  Elec       q    Type
REMARK                         _______ _______ _______ _____ _____    ______ ____
ROOT
ATOM      2  O   UNL     1      11.111   8.158  20.271  0.00  0.00    -0.371 OA
ATOM      9  C   UNL     1      12.624   6.361  20.564  0.00  0.00    +0.111 C 
ATOM     10  C   UNL     1      11.499   6.192  21.569  0.00  0.00    +0.164 C 
ATOM     11  C   UNL     1      10.692   7.486  21.474  0.00  0.00    +0.165 C 
ATOM     12  C   UNL     1      11.993   7.295  19.544  0.00  0.00    +0.181 C 
ENDROOT
BRANCH  10   3
ATOM      3  O   UNL     1      10.685   5.101  21.132  0.00  0.00    -0.388 OA
ATOM     31  H   UNL     1      11.006   4.833  20.255  0.00  0.00    +0.210 HD
ENDBRANCH  10   3
BRANCH   9   6
ATOM      6  N   UNL     1      13.801   6.978  21.172  0.00  0.00    -0.305 NA
ATOM     30  H   UNL     1      13.501   7.694  21.833  0.00  0.00    +0.123 HD
BRANCH   6  14
ATOM     14  C   UNL     1      14.644   7.607  20.162  0.00  0.00    +0.116 C 
BRANCH  14  15
ATOM     15  C   UNL     1      16.063   7.106  20.225  0.00  0.00    -0.033 A 
ATOM     17  C   UNL     1      16.555   6.276  19.219  0.00  0.00    +0.007 A 
ATOM     18  C   UNL     1      16.886   7.474  21.290  0.00  0.00    +0.007 A 
ATOM     20  C   UNL     1      17.869   5.812  19.276  0.00  0.00    +0.023 A 
ATOM     21  C   UNL     1      18.200   7.010  21.348  0.00  0.00    +0.023 A 
ATOM     22  C   UNL     1      18.692   6.179  20.341  0.00  0.00    +0.033 A 
BRANCH  22   8
ATOM      5  O   UNL     1      21.293   7.688  20.490  0.00  0.00    -0.276 OA
ATOM      8  N   UNL     1      20.006   5.715  20.399  0.00  0.00    -0.286 N 
ATOM     28  C   UNL     1      21.187   6.466  20.466  0.00  0.00    +0.214 C 
ATOM     29  C   UNL     1      22.409   5.584  20.514  0.00  0.00    +0.109 C 
ATOM     33  H   UNL     1      20.109   4.703  20.391  0.00  0.00    +0.155 HD
ENDBRANCH  22   8
ENDBRANCH  14  15
ENDBRANCH   6  14
ENDBRANCH   9   6
BRANCH  11  13
ATOM     13  C   UNL     1      10.911   8.428  22.648  0.00  0.00    +0.138 C 
BRANCH  13   7
ATOM      4  O   UNL     1      11.233  11.206  21.999  0.00  0.00    -0.270 OA
ATOM      7  N   UNL     1      12.150   9.139  22.522  0.00  0.00    -0.309 N 
ATOM     16  C   UNL     1      12.212  10.491  22.201  0.00  0.00    +0.244 C 
ATOM     32  H   UNL     1      12.999   8.590  22.595  0.00  0.00    +0.149 HD
BRANCH  16  19
ATOM      1  F   UNL     1      17.355  12.699  21.746  0.00  0.00    -0.205 F 
ATOM     19  C   UNL     1      13.573  11.076  22.080  0.00  0.00    +0.037 A 
ATOM     23  C   UNL     1      13.753  12.294  21.426  0.00  0.00    +0.016 A 
ATOM     24  C   UNL     1      14.670  10.405  22.621  0.00  0.00    +0.016 A 
ATOM     25  C   UNL     1      15.031  12.843  21.312  0.00  0.00    +0.039 A 
ATOM     26  C   UNL     1      15.948  10.953  22.507  0.00  0.00    +0.039 A 
ATOM     27  C   UNL     1      16.128  12.172  21.853  0.00  0.00    +0.123 A 
ENDBRANCH  16  19
ENDBRANCH  13   7
ENDBRANCH  11  13
TORSDOF 8
ENDMDL
MODEL 3
REMARK VINA RESULT:      -6.7      2.270      4.346
REMARK  Name = 75536642
REMARK  9 active torsions:
REMARK  status: ('A' for Active; 'I' for Inactive)
REMARK    1  A    between atoms: O_3  and  C_10
REMARK    2  A    between atoms: N_6  and  C_9
REMARK    3  A    between atoms: N_6  and  C_14
REMARK    4  A    between atoms: N_7  and  C_13
REMARK    5  A    between atoms: N_8  and  C_22
REMARK    6  A    between atoms: C_11  and  C_13
REMARK    7  A    between atoms: C_14  and  C_15
REMARK    8  A    between atoms: C_16  and  C_19
REMARK    9  A    between atoms: C_28  and  C_29
REMARK                            x       y       z     vdW  Elec       q    Type
REMARK                         _______ _______ _______ _____ _____    ______ ____
ROOT
ATOM      2  O   UNL     1      10.745  10.651  24.667  0.00  0.00    -0.371 OA
ATOM      9  C   UNL     1      12.367  12.145  23.805  0.00  0.00    +0.111 C 
ATOM     10  C   UNL     1      11.420  11.780  22.675  0.00  0.00    +0.164 C 
ATOM     11  C   UNL     1      10.549  10.660  23.241  0.00  0.00    +0.165 C 
ATOM     12  C   UNL     1      11.542  11.785  25.030  0.00  0.00    +0.181 C 
ENDROOT
BRANCH  10   3
ATOM      3  O   UNL     1      10.600  12.920  22.409  0.00  0.00    -0.388 OA
ATOM     31  H   UNL     1      10.586  13.463  23.215  0.00  0.00    +0.210 HD
ENDBRANCH  10   3
BRANCH   9   6
ATOM      6  N   UNL     1      13.594  11.354  23.757  0.00  0.00    -0.305 NA
ATOM     30  H   UNL     1      14.126  11.507  24.614  0.00  0.00    +0.123 HD
BRANCH   6  14
ATOM     14  C   UNL     1      14.424  11.743  22.623  0.00  0.00    +0.116 C 
BRANCH  14  15
ATOM     15  C   UNL     1      14.979  10.545  21.897  0.00  0.00    -0.033 A 
ATOM     17  C   UNL     1      14.766   9.263  22.402  0.00  0.00    +0.007 A 
ATOM     18  C   UNL     1      15.706  10.719  20.720  0.00  0.00    +0.007 A 
ATOM     20  C   UNL     1      15.279   8.154  21.731  0.00  0.00    +0.023 A 
ATOM     21  C   UNL     1      16.220   9.610  20.048  0.00  0.00    +0.023 A 
ATOM     22  C   UNL     1      16.007   8.327  20.554  0.00  0.00    +0.033 A 
BRANCH  22   8
ATOM      5  O   UNL     1      18.639   6.900  20.868  0.00  0.00    -0.276 OA
ATOM      8  N   UNL     1      16.521   7.218  19.882  0.00  0.00    -0.286 N 
ATOM     28  C   UNL     1      17.761   6.593  20.068  0.00  0.00    +0.214 C 
ATOM     29  C   UNL     1      17.941   5.419  19.138  0.00  0.00    +0.109 C 
ATOM     33  H   UNL     1      15.913   6.822  19.169  0.00  0.00    +0.155 HD
ENDBRANCH  22   8
ENDBRANCH  14  15
ENDBRANCH   6  14
ENDBRANCH   9   6
BRANCH  11  13
ATOM     13  C   UNL     1      10.905   9.282  22.702  0.00  0.00    +0.138 C 
BRANCH  13   7
ATOM      4  O   UNL     1      11.032   7.283  20.645  0.00  0.00    -0.270 OA
ATOM      7  N   UNL     1      11.616   9.376  21.460  0.00  0.00    -0.309 N 
ATOM     16  C   UNL     1      11.624   8.353  20.518  0.00  0.00    +0.244 C 
ATOM     32  H   UNL     1      12.192  10.200  21.328  0.00  0.00    +0.149 HD
BRANCH  16  19
ATOM      1  F   UNL     1      14.672   9.264  15.891  0.00  0.00    -0.205 F 
ATOM     19  C   UNL     1      12.431   8.594  19.293  0.00  0.00    +0.037 A 
ATOM     23  C   UNL     1      12.972   7.517  18.592  0.00  0.00    +0.016 A 
ATOM     24  C   UNL     1      12.647   9.898  18.846  0.00  0.00    +0.016 A 
ATOM     25  C   UNL     1      13.731   7.743  17.443  0.00  0.00    +0.039 A 
ATOM     26  C   UNL     1      13.405  10.124  17.697  0.00  0.00    +0.039 A 
ATOM     27  C   UNL     1      13.947   9.047  16.996  0.00  0.00    +0.123 A 
ENDBRANCH  16  19
ENDBRANCH  13   7
ENDBRANCH  11  13
TORSDOF 8
ENDMDL
MODEL 4
REMARK VINA RESULT:      -6.7      3.237      4.663
REMARK  Name = 75536642
REMARK  9 active torsions:
REMARK  status: ('A' for Active; 'I' for Inactive)
REMARK    1  A    between atoms: O_3  and  C_10
REMARK    2  A    between atoms: N_6  and  C_9
REMARK    3  A    between atoms: N_6  and  C_14
REMARK    4  A    between atoms: N_7  and  C_13
REMARK    5  A    between atoms: N_8  and  C_22
REMARK    6  A    between atoms: C_11  and  C_13
REMARK    7  A    between atoms: C_14  and  C_15
REMARK    8  A    between atoms: C_16  and  C_19
REMARK    9  A    between atoms: C_28  and  C_29
REMARK                            x       y       z     vdW  Elec       q    Type
REMARK                         _______ _______ _______ _____ _____    ______ ____
ROOT
ATOM      2  O   UNL     1      13.108   8.307  22.192  0.00  0.00    -0.371 OA
ATOM      9  C   UNL     1      11.858   9.865  20.921  0.00  0.00    +0.111 C 
ATOM     10  C   UNL     1      10.993   8.635  21.136  0.00  0.00    +0.164 C 
ATOM     11  C   UNL     1      11.929   7.603  21.761  0.00  0.00    +0.165 C 
ATOM     12  C   UNL     1      12.892   9.713  22.024  0.00  0.00    +0.181 C 
ENDROOT
BRANCH  10   3
ATOM      3  O   UNL     1       9.976   8.977  22.081  0.00  0.00    -0.388 OA
ATOM     31  H   UNL     1       9.154   8.548  21.792  0.00  0.00    +0.210 HD
ENDBRANCH  10   3
BRANCH   9   6
ATOM      6  N   UNL     1      12.496   9.851  19.607  0.00  0.00    -0.305 NA
ATOM     30  H   UNL     1      13.034   8.991  19.504  0.00  0.00    +0.123 HD
BRANCH   6  14
ATOM     14  C   UNL     1      13.402  10.983  19.453  0.00  0.00    +0.116 C 
BRANCH  14  15
ATOM     15  C   UNL     1      13.978  11.056  18.063  0.00  0.00    -0.033 A 
ATOM     17  C   UNL     1      15.095  11.852  17.812  0.00  0.00    +0.007 A 
ATOM     18  C   UNL     1      13.393  10.328  17.027  0.00  0.00    +0.007 A 
ATOM     20  C   UNL     1      15.629  11.920  16.526  0.00  0.00    +0.023 A 
ATOM     21  C   UNL     1      13.926  10.396  15.740  0.00  0.00    +0.023 A 
ATOM     22  C   UNL     1      15.044  11.192  15.489  0.00  0.00    +0.033 A 
BRANCH  22   8
ATOM      5  O   UNL     1      14.558  13.175  13.276  0.00  0.00    -0.276 OA
ATOM      8  N   UNL     1      15.577  11.261  14.202  0.00  0.00    -0.286 N 
ATOM     28  C   UNL     1      15.313  12.210  13.205  0.00  0.00    +0.214 C 
ATOM     29  C   UNL     1      16.094  11.931  11.946  0.00  0.00    +0.109 C 
ATOM     33  H   UNL     1      16.238  10.524  13.966  0.00  0.00    +0.155 HD
ENDBRANCH  22   8
ENDBRANCH  14  15
ENDBRANCH   6  14
ENDBRANCH   9   6
BRANCH  11  13
ATOM     13  C   UNL     1      12.354   6.505  20.797  0.00  0.00    +0.138 C 
BRANCH  13   7
ATOM      4  O   UNL     1      14.216   7.458  18.831  0.00  0.00    -0.270 OA
ATOM      7  N   UNL     1      13.778   6.325  20.808  0.00  0.00    -0.309 N 
ATOM     16  C   UNL     1      14.606   6.823  19.808  0.00  0.00    +0.244 C 
ATOM     32  H   UNL     1      14.156   5.739  21.544  0.00  0.00    +0.149 HD
BRANCH  16  19
ATOM      1  F   UNL     1      20.084   5.711  20.343  0.00  0.00    -0.205 F 
ATOM     19  C   UNL     1      16.056   6.529  19.950  0.00  0.00    +0.037 A 
ATOM     23  C   UNL     1      16.734   6.906  21.108  0.00  0.00    +0.016 A 
ATOM     24  C   UNL     1      16.739   5.876  18.923  0.00  0.00    +0.016 A 
ATOM     25  C   UNL     1      18.095   6.630  21.242  0.00  0.00    +0.039 A 
ATOM     26  C   UNL     1      18.099   5.601  19.055  0.00  0.00    +0.039 A 
ATOM     27  C   UNL     1      18.778   5.978  20.215  0.00  0.00    +0.123 A 
ENDBRANCH  16  19
ENDBRANCH  13   7
ENDBRANCH  11  13
TORSDOF 8
ENDMDL
MODEL 5
REMARK VINA RESULT:      -6.5      3.891      6.945
REMARK  Name = 75536642
REMARK  9 active torsions:
REMARK  status: ('A' for Active; 'I' for Inactive)
REMARK    1  A    between atoms: O_3  and  C_10
REMARK    2  A    between atoms: N_6  and  C_9
REMARK    3  A    between atoms: N_6  and  C_14
REMARK    4  A    between atoms: N_7  and  C_13
REMARK    5  A    between atoms: N_8  and  C_22
REMARK    6  A    between atoms: C_11  and  C_13
REMARK    7  A    between atoms: C_14  and  C_15
REMARK    8  A    between atoms: C_16  and  C_19
REMARK    9  A    between atoms: C_28  and  C_29
REMARK                            x       y       z     vdW  Elec       q    Type
REMARK                         _______ _______ _______ _____ _____    ______ ____
ROOT
ATOM      2  O   UNL     1      11.657   7.110  19.775  0.00  0.00    -0.371 OA
ATOM      9  C   UNL     1      13.269   8.505  20.804  0.00  0.00    +0.111 C 
ATOM     10  C   UNL     1      12.246   9.397  20.123  0.00  0.00    +0.164 C 
ATOM     11  C   UNL     1      11.377   8.442  19.306  0.00  0.00    +0.165 C 
ATOM     12  C   UNL     1      12.508   7.195  20.924  0.00  0.00    +0.181 C 
ENDROOT
BRANCH  10   3
ATOM      3  O   UNL     1      11.446  10.001  21.142  0.00  0.00    -0.388 OA
ATOM     31  H   UNL     1      11.907  10.805  21.435  0.00  0.00    +0.210 HD
ENDBRANCH  10   3
BRANCH   9   6
ATOM      6  N   UNL     1      14.467   8.335  19.985  0.00  0.00    -0.305 NA
ATOM     30  H   UNL     1      14.334   8.813  19.094  0.00  0.00    +0.123 HD
BRANCH   6  14
ATOM     14  C   UNL     1      14.725   6.925  19.720  0.00  0.00    +0.116 C 
BRANCH  14  15
ATOM     15  C   UNL     1      16.178   6.576  19.908  0.00  0.00    -0.033 A 
ATOM     17  C   UNL     1      16.845   5.825  18.941  0.00  0.00    +0.007 A 
ATOM     18  C   UNL     1      16.856   7.002  21.050  0.00  0.00    +0.007 A 
ATOM     20  C   UNL     1      18.190   5.501  19.114  0.00  0.00    +0.023 A 
ATOM     21  C   UNL     1      18.201   6.678  21.224  0.00  0.00    +0.023 A 
ATOM     22  C   UNL     1      18.869   5.928  20.255  0.00  0.00    +0.033 A 
BRANCH  22   8
ATOM      5  O   UNL     1      21.311   7.688  20.328  0.00  0.00    -0.276 OA
ATOM      8  N   UNL     1      20.214   5.603  20.430  0.00  0.00    -0.286 N 
ATOM     28  C   UNL     1      21.317   6.467  20.454  0.00  0.00    +0.214 C 
ATOM     29  C   UNL     1      22.609   5.719  20.666  0.00  0.00    +0.109 C 
ATOM     33  H   UNL     1      20.409   4.612  20.553  0.00  0.00    +0.155 HD
ENDBRANCH  22   8
ENDBRANCH  14  15
ENDBRANCH   6  14
ENDBRANCH   9   6
BRANCH  11  13
ATOM     13  C   UNL     1      11.658   8.491  17.811  0.00  0.00    +0.138 C 
BRANCH  13   7
ATOM      4  O   UNL     1      12.919   8.868  15.260  0.00  0.00    -0.270 OA
ATOM      7  N   UNL     1      12.736   9.390  17.513  0.00  0.00    -0.309 N 
ATOM     16  C   UNL     1      13.289   9.507  16.242  0.00  0.00    +0.244 C 
ATOM     32  H   UNL     1      13.143   9.887  18.297  0.00  0.00    +0.149 HD
BRANCH  16  19
ATOM      1  F   UNL     1      17.555  13.118  15.713  0.00  0.00    -0.205 F 
ATOM     19  C   UNL     1      14.418  10.463  16.102  0.00  0.00    +0.037 A 
ATOM     23  C   UNL     1      14.724  11.337  17.144  0.00  0.00    +0.016 A 
ATOM     24  C   UNL     1      15.170  10.486  14.927  0.00  0.00    +0.016 A 
ATOM     25  C   UNL     1      15.784  12.235  17.013  0.00  0.00    +0.039 A 
ATOM     26  C   UNL     1      16.229  11.384  14.796  0.00  0.00    +0.039 A 
ATOM     27  C   UNL     1      16.537  12.258  15.839  0.00  0.00    +0.123 A 
ENDBRANCH  16  19
ENDBRANCH  13   7
ENDBRANCH  11  13
TORSDOF 8
ENDMDL
MODEL 6
REMARK VINA RESULT:      -6.2     26.659     29.152
REMARK  Name = 75536642
REMARK  9 active torsions:
REMARK  status: ('A' for Active; 'I' for Inactive)
REMARK    1  A    between atoms: O_3  and  C_10
REMARK    2  A    between atoms: N_6  and  C_9
REMARK    3  A    between atoms: N_6  and  C_14
REMARK    4  A    between atoms: N_7  and  C_13
REMARK    5  A    between atoms: N_8  and  C_22
REMARK    6  A    between atoms: C_11  and  C_13
REMARK    7  A    between atoms: C_14  and  C_15
REMARK    8  A    between atoms: C_16  and  C_19
REMARK    9  A    between atoms: C_28  and  C_29
REMARK                            x       y       z     vdW  Elec       q    Type
REMARK                         _______ _______ _______ _____ _____    ______ ____
ROOT
ATOM      2  O   UNL     1      -3.870 -12.287  15.583  0.00  0.00    -0.371 OA
ATOM      9  C   UNL     1      -2.113 -11.185  14.443  0.00  0.00    +0.111 C 
ATOM     10  C   UNL     1      -2.250 -10.550  15.815  0.00  0.00    +0.164 C 
ATOM     11  C   UNL     1      -3.527 -11.151  16.399  0.00  0.00    +0.165 C 
ATOM     12  C   UNL     1      -2.811 -12.520  14.647  0.00  0.00    +0.181 C 
ENDROOT
BRANCH  10   3
ATOM      3  O   UNL     1      -1.133 -10.969  16.603  0.00  0.00    -0.388 OA
ATOM     31  H   UNL     1      -1.406 -11.761  17.095  0.00  0.00    +0.210 HD
ENDBRANCH  10   3
BRANCH   9   6
ATOM      6  N   UNL     1      -2.789 -10.398  13.415  0.00  0.00    -0.305 NA
ATOM     30  H   UNL     1      -3.709 -10.800  13.236  0.00  0.00    +0.123 HD
BRANCH   6  14
ATOM     14  C   UNL     1      -2.033 -10.404  12.168  0.00  0.00    +0.116 C 
BRANCH  14  15
ATOM     15  C   UNL     1      -2.937 -10.359  10.964  0.00  0.00    -0.033 A 
ATOM     17  C   UNL     1      -3.078  -9.175  10.242  0.00  0.00    +0.007 A 
ATOM     18  C   UNL     1      -3.632 -11.503  10.571  0.00  0.00    +0.007 A 
ATOM     20  C   UNL     1      -3.914  -9.132   9.127  0.00  0.00    +0.023 A 
ATOM     21  C   UNL     1      -4.468 -11.461   9.455  0.00  0.00    +0.023 A 
ATOM     22  C   UNL     1      -4.610 -10.276   8.733  0.00  0.00    +0.033 A 
BRANCH  22   8
ATOM      5  O   UNL     1      -4.347 -11.598   6.041  0.00  0.00    -0.276 OA
ATOM      8  N   UNL     1      -5.447 -10.234   7.618  0.00  0.00    -0.286 N 
ATOM     28  C   UNL     1      -5.274 -10.871   6.382  0.00  0.00    +0.214 C 
ATOM     29  C   UNL     1      -6.410 -10.571   5.435  0.00  0.00    +0.109 C 
ATOM     33  H   UNL     1      -6.285  -9.666   7.726  0.00  0.00    +0.155 HD
ENDBRANCH  22   8
ENDBRANCH  14  15
ENDBRANCH   6  14
ENDBRANCH   9   6
BRANCH  11  13
ATOM     13  C   UNL     1      -4.707 -10.191  16.401  0.00  0.00    +0.138 C 
BRANCH  13   7
ATOM      4  O   UNL     1      -7.265 -11.125  15.493  0.00  0.00    -0.270 OA
ATOM      7  N   UNL     1      -5.256 -10.038  15.085  0.00  0.00    -0.309 N 
ATOM     16  C   UNL     1      -6.510 -10.526  14.731  0.00  0.00    +0.244 C 
ATOM     32  H   UNL     1      -4.650  -9.625  14.384  0.00  0.00    +0.149 HD
BRANCH  16  19
ATOM      1  F   UNL     1      -8.075  -9.715   9.400  0.00  0.00    -0.205 F 
ATOM     19  C   UNL     1      -6.924 -10.311  13.320  0.00  0.00    +0.037 A 
ATOM     23  C   UNL     1      -6.401  -9.241  12.595  0.00  0.00    +0.016 A 
ATOM     24  C   UNL     1      -7.837 -11.180  12.721  0.00  0.00    +0.016 A 
ATOM     25  C   UNL     1      -6.790  -9.039  11.270  0.00  0.00    +0.039 A 
ATOM     26  C   UNL     1      -8.226 -10.978  11.398  0.00  0.00    +0.039 A 
ATOM     27  C   UNL     1      -7.703  -9.908  10.672  0.00  0.00    +0.123 A 
ENDBRANCH  16  19
ENDBRANCH  13   7
ENDBRANCH  11  13
TORSDOF 8
ENDMDL
MODEL 7
REMARK VINA RESULT:      -6.0     24.649     27.033
REMARK  Name = 75536642
REMARK  9 active torsions:
REMARK  status: ('A' for Active; 'I' for Inactive)
REMARK    1  A    between atoms: O_3  and  C_10
REMARK    2  A    between atoms: N_6  and  C_9
REMARK    3  A    between atoms: N_6  and  C_14
REMARK    4  A    between atoms: N_7  and  C_13
REMARK    5  A    between atoms: N_8  and  C_22
REMARK    6  A    between atoms: C_11  and  C_13
REMARK    7  A    between atoms: C_14  and  C_15
REMARK    8  A    between atoms: C_16  and  C_19
REMARK    9  A    between atoms: C_28  and  C_29
REMARK                            x       y       z     vdW  Elec       q    Type
REMARK                         _______ _______ _______ _____ _____    ______ ____
ROOT
ATOM      2  O   UNL     1     -10.873  10.985  16.103  0.00  0.00    -0.371 OA
ATOM      9  C   UNL     1     -11.025   8.710  15.468  0.00  0.00    +0.111 C 
ATOM     10  C   UNL     1     -11.882   9.520  14.511  0.00  0.00    +0.164 C 
ATOM     11  C   UNL     1     -11.912  10.926  15.108  0.00  0.00    +0.165 C 
ATOM     12  C   UNL     1     -10.107   9.776  16.043  0.00  0.00    +0.181 C 
ENDROOT
BRANCH  10   3
ATOM      3  O   UNL     1     -11.207   9.562  13.251  0.00  0.00    -0.388 OA
ATOM     31  H   UNL     1     -11.862   9.353  12.564  0.00  0.00    +0.210 HD
ENDBRANCH  10   3
BRANCH   9   6
ATOM      6  N   UNL     1     -11.829   8.095  16.522  0.00  0.00    -0.305 NA
ATOM     30  H   UNL     1     -12.685   8.634  16.648  0.00  0.00    +0.123 HD
BRANCH   6  14
ATOM     14  C   UNL     1     -11.106   8.075  17.788  0.00  0.00    +0.116 C 
BRANCH  14  15
ATOM     15  C   UNL     1     -12.002   7.703  18.940  0.00  0.00    -0.033 A 
ATOM     17  C   UNL     1     -11.446   7.278  20.146  0.00  0.00    +0.007 A 
ATOM     18  C   UNL     1     -13.387   7.786  18.800  0.00  0.00    +0.007 A 
ATOM     20  C   UNL     1     -12.275   6.934  21.213  0.00  0.00    +0.023 A 
ATOM     21  C   UNL     1     -14.217   7.442  19.868  0.00  0.00    +0.023 A 
ATOM     22  C   UNL     1     -13.661   7.016  21.075  0.00  0.00    +0.033 A 
BRANCH  22   8
ATOM      5  O   UNL     1     -14.687   4.329  21.964  0.00  0.00    -0.276 OA
ATOM      8  N   UNL     1     -14.491   6.671  22.142  0.00  0.00    -0.286 N 
ATOM     28  C   UNL     1     -14.941   5.397  22.511  0.00  0.00    +0.214 C 
ATOM     29  C   UNL     1     -15.828   5.448  23.730  0.00  0.00    +0.109 C 
ATOM     33  H   UNL     1     -14.803   7.450  22.717  0.00  0.00    +0.155 HD
ENDBRANCH  22   8
ENDBRANCH  14  15
ENDBRANCH   6  14
ENDBRANCH   9   6
BRANCH  11  13
ATOM     13  C   UNL     1     -13.233  11.275  15.776  0.00  0.00    +0.138 C 
BRANCH  13   7
ATOM      4  O   UNL     1     -13.424  13.106  17.979  0.00  0.00    -0.270 OA
ATOM      7  N   UNL     1     -13.215  10.941  17.172  0.00  0.00    -0.309 N 
ATOM     16  C   UNL     1     -13.312  11.898  18.176  0.00  0.00    +0.244 C 
ATOM     32  H   UNL     1     -13.043   9.969  17.404  0.00  0.00    +0.149 HD
BRANCH  16  19
ATOM      1  F   UNL     1     -13.081   9.991  23.452  0.00  0.00    -0.205 F 
ATOM     19  C   UNL     1     -13.251  11.393  19.572  0.00  0.00    +0.037 A 
ATOM     23  C   UNL     1     -12.016  11.176  20.182  0.00  0.00    +0.016 A 
ATOM     24  C   UNL     1     -14.430  11.136  20.273  0.00  0.00    +0.016 A 
ATOM     25  C   UNL     1     -11.957  10.702  21.493  0.00  0.00    +0.039 A 
ATOM     26  C   UNL     1     -14.372  10.662  21.583  0.00  0.00    +0.039 A 
ATOM     27  C   UNL     1     -13.136  10.445  22.193  0.00  0.00    +0.123 A 
ENDBRANCH  16  19
ENDBRANCH  13   7
ENDBRANCH  11  13
TORSDOF 8
ENDMDL
MODEL 8
REMARK VINA RESULT:      -6.0     27.083     29.323
REMARK  Name = 75536642
REMARK  9 active torsions:
REMARK  status: ('A' for Active; 'I' for Inactive)
REMARK    1  A    between atoms: O_3  and  C_10
REMARK    2  A    between atoms: N_6  and  C_9
REMARK    3  A    between atoms: N_6  and  C_14
REMARK    4  A    between atoms: N_7  and  C_13
REMARK    5  A    between atoms: N_8  and  C_22
REMARK    6  A    between atoms: C_11  and  C_13
REMARK    7  A    between atoms: C_14  and  C_15
REMARK    8  A    between atoms: C_16  and  C_19
REMARK    9  A    between atoms: C_28  and  C_29
REMARK                            x       y       z     vdW  Elec       q    Type
REMARK                         _______ _______ _______ _____ _____    ______ ____
ROOT
ATOM      2  O   UNL     1      -8.222 -11.241  20.019  0.00  0.00    -0.371 OA
ATOM      9  C   UNL     1      -9.511 -10.663  18.119  0.00  0.00    +0.111 C 
ATOM     10  C   UNL     1      -8.212 -11.279  17.632  0.00  0.00    +0.164 C 
ATOM     11  C   UNL     1      -7.351 -11.420  18.887  0.00  0.00    +0.165 C 
ATOM     12  C   UNL     1      -9.574 -11.163  19.553  0.00  0.00    +0.181 C 
ENDROOT
BRANCH  10   3
ATOM      3  O   UNL     1      -8.511 -12.581  17.123  0.00  0.00    -0.388 OA
ATOM     31  H   UNL     1      -7.709 -13.121  17.216  0.00  0.00    +0.210 HD
ENDBRANCH  10   3
BRANCH   9   6
ATOM      6  N   UNL     1      -9.462  -9.203  18.082  0.00  0.00    -0.305 NA
ATOM     30  H   UNL     1     -10.383  -8.830  18.313  0.00  0.00    +0.123 HD
BRANCH   6  14
ATOM     14  C   UNL     1      -9.089  -8.724  16.757  0.00  0.00    +0.116 C 
BRANCH  14  15
ATOM     15  C   UNL     1     -10.188  -7.910  16.125  0.00  0.00    -0.033 A 
ATOM     17  C   UNL     1     -10.687  -6.785  16.781  0.00  0.00    +0.007 A 
ATOM     18  C   UNL     1     -10.705  -8.281  14.884  0.00  0.00    +0.007 A 
ATOM     20  C   UNL     1     -11.704  -6.031  16.197  0.00  0.00    +0.023 A 
ATOM     21  C   UNL     1     -11.723  -7.527  14.299  0.00  0.00    +0.023 A 
ATOM     22  C   UNL     1     -12.222  -6.402  14.956  0.00  0.00    +0.033 A 
BRANCH  22   8
ATOM      5  O   UNL     1     -12.096  -4.215  12.890  0.00  0.00    -0.276 OA
ATOM      8  N   UNL     1     -13.240  -5.648  14.371  0.00  0.00    -0.286 N 
ATOM     28  C   UNL     1     -13.124  -4.636  13.410  0.00  0.00    +0.214 C 
ATOM     29  C   UNL     1     -14.469  -4.064  13.035  0.00  0.00    +0.109 C 
ATOM     33  H   UNL     1     -14.181  -5.869  14.690  0.00  0.00    +0.155 HD
ENDBRANCH  22   8
ENDBRANCH  14  15
ENDBRANCH   6  14
ENDBRANCH   9   6
BRANCH  11  13
ATOM     13  C   UNL     1      -6.233 -10.392  18.976  0.00  0.00    +0.138 C 
BRANCH  13   7
ATOM      4  O   UNL     1      -3.730 -11.697  18.454  0.00  0.00    -0.270 OA
ATOM      7  N   UNL     1      -5.477 -10.338  17.758  0.00  0.00    -0.309 N 
ATOM     16  C   UNL     1      -4.267 -11.004  17.593  0.00  0.00    +0.244 C 
ATOM     32  H   UNL     1      -5.823  -9.716  17.036  0.00  0.00    +0.149 HD
BRANCH  16  19
ATOM      1  F   UNL     1      -1.718 -10.327  12.636  0.00  0.00    -0.205 F 
ATOM     19  C   UNL     1      -3.592 -10.825  16.281  0.00  0.00    +0.037 A 
ATOM     23  C   UNL     1      -4.342 -10.832  15.105  0.00  0.00    +0.016 A 
ATOM     24  C   UNL     1      -2.209 -10.651  16.226  0.00  0.00    +0.016 A 
ATOM     25  C   UNL     1      -3.709 -10.664  13.873  0.00  0.00    +0.039 A 
ATOM     26  C   UNL     1      -1.576 -10.484  14.995  0.00  0.00    +0.039 A 
ATOM     27  C   UNL     1      -2.326 -10.490  13.818  0.00  0.00    +0.123 A 
ENDBRANCH  16  19
ENDBRANCH  13   7
ENDBRANCH  11  13
TORSDOF 8
ENDMDL
MODEL 9
REMARK VINA RESULT:      -6.0     27.125     29.917
REMARK  Name = 75536642
REMARK  9 active torsions:
REMARK  status: ('A' for Active; 'I' for Inactive)
REMARK    1  A    between atoms: O_3  and  C_10
REMARK    2  A    between atoms: N_6  and  C_9
REMARK    3  A    between atoms: N_6  and  C_14
REMARK    4  A    between atoms: N_7  and  C_13
REMARK    5  A    between atoms: N_8  and  C_22
REMARK    6  A    between atoms: C_11  and  C_13
REMARK    7  A    between atoms: C_14  and  C_15
REMARK    8  A    between atoms: C_16  and  C_19
REMARK    9  A    between atoms: C_28  and  C_29
REMARK                            x       y       z     vdW  Elec       q    Type
REMARK                         _______ _______ _______ _____ _____    ______ ____
ROOT
ATOM      2  O   UNL     1      -2.503 -10.323  13.094  0.00  0.00    -0.371 OA
ATOM      9  C   UNL     1      -1.957 -11.799  14.862  0.00  0.00    +0.111 C 
ATOM     10  C   UNL     1      -2.127 -12.625  13.600  0.00  0.00    +0.164 C 
ATOM     11  C   UNL     1      -2.688 -11.650  12.567  0.00  0.00    +0.165 C 
ATOM     12  C   UNL     1      -1.727 -10.407  14.295  0.00  0.00    +0.181 C 
ENDROOT
BRANCH  10   3
ATOM      3  O   UNL     1      -0.829 -13.054  13.182  0.00  0.00    -0.388 OA
ATOM     31  H   UNL     1      -0.411 -12.307  12.722  0.00  0.00    +0.210 HD
ENDBRANCH  10   3
BRANCH   9   6
ATOM      6  N   UNL     1      -3.160 -11.828  15.691  0.00  0.00    -0.305 NA
ATOM     30  H   UNL     1      -3.981 -11.892  15.089  0.00  0.00    +0.123 HD
BRANCH   6  14
ATOM     14  C   UNL     1      -3.272 -10.617  16.496  0.00  0.00    +0.116 C 
BRANCH  14  15
ATOM     15  C   UNL     1      -4.660 -10.439  17.052  0.00  0.00    -0.033 A 
ATOM     17  C   UNL     1      -5.611  -9.715  16.334  0.00  0.00    +0.007 A 
ATOM     18  C   UNL     1      -4.994 -10.998  18.285  0.00  0.00    +0.007 A 
ATOM     20  C   UNL     1      -6.896  -9.549  16.848  0.00  0.00    +0.023 A 
ATOM     21  C   UNL     1      -6.280 -10.833  18.801  0.00  0.00    +0.023 A 
ATOM     22  C   UNL     1      -7.231 -10.108  18.081  0.00  0.00    +0.033 A 
BRANCH  22   8
ATOM      5  O   UNL     1      -8.799 -11.810  20.008  0.00  0.00    -0.276 OA
ATOM      8  N   UNL     1      -8.517  -9.942  18.597  0.00  0.00    -0.286 N 
ATOM     28  C   UNL     1      -9.202 -10.771  19.495  0.00  0.00    +0.214 C 
ATOM     29  C   UNL     1     -10.579 -10.240  19.806  0.00  0.00    +0.109 C 
ATOM     33  H   UNL     1      -9.010  -9.113  18.274  0.00  0.00    +0.155 HD
ENDBRANCH  22   8
ENDBRANCH  14  15
ENDBRANCH   6  14
ENDBRANCH   9   6
BRANCH  11  13
ATOM     13  C   UNL     1      -4.169 -11.849  12.282  0.00  0.00    +0.138 C 
BRANCH  13   7
ATOM      4  O   UNL     1      -6.966 -11.603  12.879  0.00  0.00    -0.270 OA
ATOM      7  N   UNL     1      -4.851 -12.384  13.425  0.00  0.00    -0.309 N 
ATOM     16  C   UNL     1      -6.215 -12.215  13.635  0.00  0.00    +0.244 C 
ATOM     32  H   UNL     1      -4.275 -12.830  14.131  0.00  0.00    +0.149 HD
BRANCH  16  19
ATOM      1  F   UNL     1      -8.300 -14.452  18.345  0.00  0.00    -0.205 F 
ATOM     19  C   UNL     1      -6.767 -12.807  14.882  0.00  0.00    +0.037 A 
ATOM     23  C   UNL     1      -5.968 -13.628  15.677  0.00  0.00    +0.016 A 
ATOM     24  C   UNL     1      -8.085 -12.542  15.256  0.00  0.00    +0.016 A 
ATOM     25  C   UNL     1      -6.485 -14.185  16.847  0.00  0.00    +0.039 A 
ATOM     26  C   UNL     1      -8.602 -13.099  16.425  0.00  0.00    +0.039 A 
ATOM     27  C   UNL     1      -7.803 -13.920  17.221  0.00  0.00    +0.123 A 
ENDBRANCH  16  19
ENDBRANCH  13   7
ENDBRANCH  11  13
TORSDOF 8
ENDMDL
MODEL 10
REMARK VINA RESULT:      -5.9      3.684      5.097
REMARK  Name = 75536642
REMARK  9 active torsions:
REMARK  status: ('A' for Active; 'I' for Inactive)
REMARK    1  A    between atoms: O_3  and  C_10
REMARK    2  A    between atoms: N_6  and  C_9
REMARK    3  A    between atoms: N_6  and  C_14
REMARK    4  A    between atoms: N_7  and  C_13
REMARK    5  A    between atoms: N_8  and  C_22
REMARK    6  A    between atoms: C_11  and  C_13
REMARK    7  A    between atoms: C_14  and  C_15
REMARK    8  A    between atoms: C_16  and  C_19
REMARK    9  A    between atoms: C_28  and  C_29
REMARK                            x       y       z     vdW  Elec       q    Type
REMARK                         _______ _______ _______ _____ _____    ______ ____
ROOT
ATOM      2  O   UNL     1      13.869   8.476  22.004  0.00  0.00    -0.371 OA
ATOM      9  C   UNL     1      11.848   8.140  20.820  0.00  0.00    +0.111 C 
ATOM     10  C   UNL     1      12.769   6.973  20.512  0.00  0.00    +0.164 C 
ATOM     11  C   UNL     1      14.113   7.365  21.123  0.00  0.00    +0.165 C 
ATOM     12  C   UNL     1      12.456   8.687  22.101  0.00  0.00    +0.181 C 
ENDROOT
BRANCH  10   3
ATOM      3  O   UNL     1      12.262   5.825  21.196  0.00  0.00    -0.388 OA
ATOM     31  H   UNL     1      11.302   5.944  21.291  0.00  0.00    +0.210 HD
ENDBRANCH  10   3
BRANCH   9   6
ATOM      6  N   UNL     1      11.879   9.146  19.761  0.00  0.00    -0.305 NA
ATOM     30  H   UNL     1      11.029   9.708  19.807  0.00  0.00    +0.123 HD
BRANCH   6  14
ATOM     14  C   UNL     1      11.949   8.521  18.446  0.00  0.00    +0.116 C 
BRANCH  14  15
ATOM     15  C   UNL     1      12.926   9.225  17.541  0.00  0.00    -0.033 A 
ATOM     17  C   UNL     1      13.413   8.580  16.405  0.00  0.00    +0.007 A 
ATOM     18  C   UNL     1      13.343  10.522  17.840  0.00  0.00    +0.007 A 
ATOM     20  C   UNL     1      14.318   9.231  15.566  0.00  0.00    +0.023 A 
ATOM     21  C   UNL     1      14.249  11.174  17.002  0.00  0.00    +0.023 A 
ATOM     22  C   UNL     1      14.736  10.528  15.865  0.00  0.00    +0.033 A 
BRANCH  22   8
ATOM      5  O   UNL     1      14.367  11.683  13.109  0.00  0.00    -0.276 OA
ATOM      8  N   UNL     1      15.642  11.179  15.027  0.00  0.00    -0.286 N 
ATOM     28  C   UNL     1      15.416  11.698  13.746  0.00  0.00    +0.214 C 
ATOM     29  C   UNL     1      16.659  12.329  13.170  0.00  0.00    +0.109 C 
ATOM     33  H   UNL     1      16.581  11.284  15.403  0.00  0.00    +0.155 HD
ENDBRANCH  22   8
ENDBRANCH  14  15
ENDBRANCH   6  14
ENDBRANCH   9   6
BRANCH  11  13
ATOM     13  C   UNL     1      15.149   7.790  20.092  0.00  0.00    +0.138 C 
BRANCH  13   7
ATOM      4  O   UNL     1      17.334   8.623  21.758  0.00  0.00    -0.270 OA
ATOM      7  N   UNL     1      16.391   7.098  20.285  0.00  0.00    -0.309 N 
ATOM     16  C   UNL     1      17.399   7.578  21.114  0.00  0.00    +0.244 C 
ATOM     32  H   UNL     1      16.542   6.271  19.719  0.00  0.00    +0.149 HD
BRANCH  16  19
ATOM      1  F   UNL     1      22.074   4.480  21.387  0.00  0.00    -0.205 F 
ATOM     19  C   UNL     1      18.636   6.758  21.186  0.00  0.00    +0.037 A 
ATOM     23  C   UNL     1      18.896   5.801  20.207  0.00  0.00    +0.016 A 
ATOM     24  C   UNL     1      19.537   6.946  22.235  0.00  0.00    +0.016 A 
ATOM     25  C   UNL     1      20.058   5.030  20.274  0.00  0.00    +0.039 A 
ATOM     26  C   UNL     1      20.698   6.176  22.303  0.00  0.00    +0.039 A 
ATOM     27  C   UNL     1      20.959   5.218  21.323  0.00  0.00    +0.123 A 
ENDBRANCH  16  19
ENDBRANCH  13   7
ENDBRANCH  11  13
TORSDOF 8
ENDMDL
