REMARK  Name = 25389261
REMARK  5 active torsions:
REMARK  status: ('A' for Active; 'I' for Inactive)
REMARK    1  A    between atoms: N_5  and  C_14
REMARK    2  A    between atoms: N_6  and  C_15
REMARK    3  A    between atoms: C_8  and  C_14
REMARK    4  A    between atoms: C_9  and  C_15
REMARK    5  A    between atoms: C_21  and  C_24
REMARK                            x       y       z     vdW  Elec       q    Type
REMARK                         _______ _______ _______ _____ _____    ______ ____
ROOT
ATOM      4  N   UNL     1      -0.569  -2.834  -0.943  0.00  0.00    -0.298 NA
ATOM      7  C   UNL     1      -0.819  -2.453   1.618  0.00  0.00    -0.003 C 
ATOM      8  C   UNL     1      -2.071  -1.954   0.861  0.00  0.00    +0.020 C 
ATOM      9  C   UNL     1       0.618  -2.106  -0.418  0.00  0.00    +0.074 C 
ATOM     10  C   UNL     1       0.428  -1.735   1.070  0.00  0.00    +0.024 C 
ATOM     11  C   UNL     1      -1.809  -2.072  -0.657  0.00  0.00    +0.089 C 
ATOM     12  C   UNL     1      -0.665  -3.950   1.290  0.00  0.00    +0.019 C 
ATOM     13  C   UNL     1      -0.655  -4.136  -0.238  0.00  0.00    +0.085 C 
ENDROOT
BRANCH   8  14
ATOM     14  C   UNL     1      -2.488  -0.538   1.253  0.00  0.00    +0.089 C 
BRANCH  14   5
ATOM      5  N   UNL     1      -3.727  -0.154   0.578  0.00  0.00    -0.298 NA
ATOM     16  C   UNL     1      -4.886  -0.790   1.215  0.00  0.00    +0.089 C 
ATOM     17  C   UNL     1      -3.882   1.312   0.586  0.00  0.00    +0.119 C 
ATOM     18  C   UNL     1      -6.143  -0.545   0.373  0.00  0.00    +0.051 C 
ATOM     19  C   UNL     1      -5.208   1.776   0.029  0.00  0.00    -0.030 A 
ATOM     20  C   UNL     1      -6.304   0.897  -0.031  0.00  0.00    -0.042 A 
ATOM     22  C   UNL     1      -5.369   3.109  -0.373  0.00  0.00    +0.005 A 
ATOM     23  C   UNL     1      -7.532   1.354  -0.527  0.00  0.00    +0.004 A 
ATOM     25  C   UNL     1      -6.599   3.557  -0.856  0.00  0.00    +0.000 A 
ATOM     26  C   UNL     1      -7.678   2.680  -0.934  0.00  0.00    +0.000 A 
ENDBRANCH  14   5
ENDBRANCH   8  14
BRANCH   9  15
ATOM     15  C   UNL     1       0.975  -0.884  -1.267  0.00  0.00    +0.123 C 
BRANCH  15   6
ATOM      1  O   UNL     1       3.612  -1.540  -2.196  0.00  0.00    -0.270 OA
ATOM      6  N   UNL     1       2.225  -0.293  -0.819  0.00  0.00    -0.310 N 
ATOM     21  C   UNL     1       3.447  -0.682  -1.333  0.00  0.00    +0.244 C 
ATOM     33  H   UNL     1       2.165   0.375  -0.059  0.00  0.00    +0.149 HD
BRANCH  21  24
ATOM      2  O   UNL     1       5.694   3.114   0.873  0.00  0.00    -0.453 OA
ATOM      3  O   UNL     1       7.826   1.991   0.888  0.00  0.00    -0.453 OA
ATOM     24  C   UNL     1       4.633  -0.001  -0.751  0.00  0.00    +0.040 A 
ATOM     27  C   UNL     1       4.501   1.283  -0.217  0.00  0.00    +0.062 A 
ATOM     28  C   UNL     1       5.877  -0.656  -0.743  0.00  0.00    +0.017 A 
ATOM     29  C   UNL     1       5.630   1.875   0.313  0.00  0.00    +0.167 A 
ATOM     30  C   UNL     1       7.004  -0.034  -0.200  0.00  0.00    +0.050 A 
ATOM     31  C   UNL     1       6.847   1.234   0.321  0.00  0.00    +0.166 A 
ATOM     32  C   UNL     1       7.088   3.180   1.235  0.00  0.00    +0.466 C 
ENDBRANCH  21  24
ENDBRANCH  15   6
ENDBRANCH   9  15
TORSDOF 5
