REMARK  Name = 11884148
REMARK  8 active torsions:
REMARK  status: ('A' for Active; 'I' for Inactive)
REMARK    1  A    between atoms: O_6  and  C_15
REMARK    2  A    between atoms: O_6  and  C_19
REMARK    3  A    between atoms: N_10  and  C_14
REMARK    4  A    between atoms: N_11  and  C_23
REMARK    5  A    between atoms: C_18  and  C_20
REMARK    6  A    between atoms: C_26  and  C_29
REMARK    7  A    between atoms: C_32  and  C_33
REMARK    8  A    between atoms: C_33  and  C_34
REMARK                            x       y       z     vdW  Elec       q    Type
REMARK                         _______ _______ _______ _____ _____    ______ ____
ROOT
ATOM      4  O   UNL     1       0.018  -1.893  -1.047  0.00  0.00    -0.368 OA
ATOM      5  O   UNL     1      -0.398  -4.026   1.117  0.00  0.00    -0.368 OA
ATOM     12  C   UNL     1      -0.967  -2.710   0.950  0.00  0.00    +0.173 C 
ATOM     13  C   UNL     1       0.127  -1.827   0.385  0.00  0.00    +0.192 C 
ATOM     14  C   UNL     1      -2.013  -2.733  -0.140  0.00  0.00    +0.130 C 
ATOM     15  C   UNL     1       1.382  -2.503   0.882  0.00  0.00    +0.235 C 
ATOM     16  C   UNL     1      -1.170  -2.619  -1.398  0.00  0.00    +0.185 C 
ATOM     17  C   UNL     1       1.004  -3.966   0.815  0.00  0.00    +0.207 C 
ENDROOT
BRANCH  14  10
ATOM      7  O   UNL     1      -4.714  -2.608  -1.108  0.00  0.00    -0.270 OA
ATOM     10  N   UNL     1      -2.922  -1.620  -0.015  0.00  0.00    -0.304 N 
ATOM     18  C   UNL     1      -4.216  -1.653  -0.518  0.00  0.00    +0.244 C 
ATOM     35  H   UNL     1      -2.546  -0.757   0.365  0.00  0.00    +0.149 HD
BRANCH  18  20
ATOM     20  C   UNL     1      -5.018  -0.416  -0.331  0.00  0.00    +0.037 A 
ATOM     21  C   UNL     1      -6.045  -0.110  -1.224  0.00  0.00    +0.013 A 
ATOM     22  C   UNL     1      -4.744   0.439   0.736  0.00  0.00    +0.013 A 
ATOM     24  C   UNL     1      -6.798   1.051  -1.050  0.00  0.00    +0.013 A 
ATOM     25  C   UNL     1      -5.497   1.600   0.911  0.00  0.00    +0.013 A 
ATOM     26  C   UNL     1      -6.524   1.906   0.018  0.00  0.00    +0.055 A 
BRANCH  26  29
ATOM      1  F   UNL     1      -7.988   3.196   1.401  0.00  0.00    -0.166 F 
ATOM      2  F   UNL     1      -8.300   3.317  -0.742  0.00  0.00    -0.166 F 
ATOM      3  F   UNL     1      -6.570   4.279   0.158  0.00  0.00    -0.166 F 
ATOM     29  C   UNL     1      -7.330   3.146   0.205  0.00  0.00    +0.417 C 
ENDBRANCH  26  29
ENDBRANCH  18  20
ENDBRANCH  14  10
BRANCH  15   6
ATOM      6  O   UNL     1       2.523  -2.214   0.106  0.00  0.00    -0.442 OA
BRANCH   6  19
ATOM      8  O   UNL     1       3.043  -0.484   1.508  0.00  0.00    -0.226 OA
ATOM     11  N   UNL     1       4.375  -1.008  -0.345  0.00  0.00    -0.251 N 
ATOM     19  C   UNL     1       3.306  -1.156   0.518  0.00  0.00    +0.405 C 
ATOM     36  H   UNL     1       4.424  -1.669  -1.117  0.00  0.00    +0.158 HD
BRANCH  11  23
ATOM     23  C   UNL     1       5.414  -0.051  -0.288  0.00  0.00    +0.036 A 
ATOM     27  C   UNL     1       6.419  -0.055  -1.255  0.00  0.00    +0.024 A 
ATOM     28  C   UNL     1       5.434   0.896   0.736  0.00  0.00    +0.024 A 
ATOM     30  C   UNL     1       7.444   0.889  -1.198  0.00  0.00    +0.013 A 
ATOM     31  C   UNL     1       6.459   1.840   0.792  0.00  0.00    +0.013 A 
ATOM     32  C   UNL     1       7.465   1.836  -0.175  0.00  0.00    +0.017 A 
BRANCH  32  33
ATOM      9  O   UNL     1       8.348   3.955   0.367  0.00  0.00    -0.292 OA
ATOM     33  C   UNL     1       8.534   2.821  -0.117  0.00  0.00    +0.160 C 
ATOM     34  C   UNL     1       9.920   2.482  -0.654  0.00  0.00    +0.091 C 
ENDBRANCH  32  33
ENDBRANCH  11  23
ENDBRANCH   6  19
ENDBRANCH  15   6
TORSDOF 7
