MODEL 1
REMARK VINA RESULT:      -7.8      0.000      0.000
REMARK  Name = 75536065
REMARK  6 active torsions:
REMARK  status: ('A' for Active; 'I' for Inactive)
REMARK    1  A    between atoms: O_1  and  C_10
REMARK    2  A    between atoms: O_2  and  C_12
REMARK    3  A    between atoms: N_5  and  C_9
REMARK    4  A    between atoms: C_8  and  C_13
REMARK    5  A    between atoms: C_16  and  C_18
REMARK    6  A    between atoms: C_21  and  C_22
REMARK                            x       y       z     vdW  Elec       q    Type
REMARK                         _______ _______ _______ _____ _____    ______ ____
ROOT
ATOM      8  C   UNL     1      12.867   8.638  19.596  0.00  0.00    +0.046 C 
ATOM      9  C   UNL     1      12.922   7.125  19.903  0.00  0.00    +0.112 C 
ATOM     10  C   UNL     1      12.437   7.037  21.349  0.00  0.00    +0.164 C 
ATOM     11  C   UNL     1      11.842   9.235  20.596  0.00  0.00    +0.044 C 
ATOM     12  C   UNL     1      11.300   8.051  21.396  0.00  0.00    +0.145 C 
ENDROOT
BRANCH   8  13
ATOM      6  N   UNL     1      11.091   8.687  16.245  0.00  0.00    -0.263 NA
ATOM     13  C   UNL     1      12.568   8.938  18.143  0.00  0.00    -0.024 A 
ATOM     14  C   UNL     1      13.438   9.704  17.374  0.00  0.00    +0.007 A 
ATOM     15  C   UNL     1      11.418   8.457  17.536  0.00  0.00    +0.114 A 
ATOM     17  C   UNL     1      13.136   9.962  16.042  0.00  0.00    +0.020 A 
ATOM     19  C   UNL     1      11.962   9.435  15.529  0.00  0.00    +0.111 A 
ENDBRANCH   8  13
BRANCH   9   5
ATOM      3  O   UNL     1      15.317   8.096  21.154  0.00  0.00    -0.268 OA
ATOM      5  N   UNL     1      14.251   6.591  19.748  0.00  0.00    -0.304 N 
ATOM     16  C   UNL     1      15.354   7.130  20.397  0.00  0.00    +0.266 C 
ATOM     23  H   UNL     1      14.377   5.767  19.168  0.00  0.00    +0.149 HD
BRANCH  16  18
ATOM      4  O   UNL     1      18.131   5.313  19.039  0.00  0.00    -0.359 OA
ATOM      7  N   UNL     1      16.820   5.769  18.992  0.00  0.00    -0.073 NA
ATOM     18  C   UNL     1      16.660   6.481  20.111  0.00  0.00    +0.168 A 
ATOM     20  C   UNL     1      17.825   6.511  20.895  0.00  0.00    +0.080 A 
ATOM     21  C   UNL     1      18.720   5.762  20.178  0.00  0.00    +0.135 A 
ATOM     22  C   UNL     1      20.119   5.370  20.391  0.00  0.00    +0.089 C 
ENDBRANCH  16  18
ENDBRANCH   9   5
BRANCH  10   1
ATOM      1  O   UNL     1      11.979   5.741  21.684  0.00  0.00    -0.387 OA
ATOM     24  H   UNL     1      12.013   5.201  20.876  0.00  0.00    +0.210 HD
ENDBRANCH  10   1
BRANCH  12   2
ATOM      2  O   UNL     1      10.141   7.549  20.739  0.00  0.00    -0.389 OA
ATOM     25  H   UNL     1      10.192   7.821  19.807  0.00  0.00    +0.210 HD
ENDBRANCH  12   2
TORSDOF 5
ENDMDL
MODEL 2
REMARK VINA RESULT:      -6.6      3.622      6.677
REMARK  Name = 75536065
REMARK  6 active torsions:
REMARK  status: ('A' for Active; 'I' for Inactive)
REMARK    1  A    between atoms: O_1  and  C_10
REMARK    2  A    between atoms: O_2  and  C_12
REMARK    3  A    between atoms: N_5  and  C_9
REMARK    4  A    between atoms: C_8  and  C_13
REMARK    5  A    between atoms: C_16  and  C_18
REMARK    6  A    between atoms: C_21  and  C_22
REMARK                            x       y       z     vdW  Elec       q    Type
REMARK                         _______ _______ _______ _____ _____    ______ ____
ROOT
ATOM      8  C   UNL     1      13.625   8.745  20.413  0.00  0.00    +0.046 C 
ATOM      9  C   UNL     1      12.558   8.242  21.412  0.00  0.00    +0.112 C 
ATOM     10  C   UNL     1      11.287   8.167  20.568  0.00  0.00    +0.164 C 
ATOM     11  C   UNL     1      13.095   8.367  19.005  0.00  0.00    +0.044 C 
ATOM     12  C   UNL     1      11.786   7.614  19.238  0.00  0.00    +0.145 C 
ENDROOT
BRANCH   8  13
ATOM      6  N   UNL     1      17.251   8.659  21.524  0.00  0.00    -0.263 NA
ATOM     13  C   UNL     1      15.014   8.224  20.717  0.00  0.00    -0.024 A 
ATOM     14  C   UNL     1      15.347   6.894  20.488  0.00  0.00    +0.007 A 
ATOM     15  C   UNL     1      15.993   9.059  21.231  0.00  0.00    +0.114 A 
ATOM     17  C   UNL     1      16.631   6.445  20.777  0.00  0.00    +0.020 A 
ATOM     19  C   UNL     1      17.537   7.358  21.288  0.00  0.00    +0.111 A 
ENDBRANCH   8  13
BRANCH   9   5
ATOM      3  O   UNL     1      11.542  10.927  21.344  0.00  0.00    -0.268 OA
ATOM      5  N   UNL     1      12.407   9.134  22.534  0.00  0.00    -0.304 N 
ATOM     16  C   UNL     1      11.904  10.421  22.403  0.00  0.00    +0.266 C 
ATOM     23  H   UNL     1      12.647   8.792  23.460  0.00  0.00    +0.149 HD
BRANCH  16  18
ATOM      4  O   UNL     1      11.089  11.913  25.560  0.00  0.00    -0.359 OA
ATOM      7  N   UNL     1      10.855  11.009  24.531  0.00  0.00    -0.073 NA
ATOM     18  C   UNL     1      11.837  11.224  23.651  0.00  0.00    +0.168 A 
ATOM     20  C   UNL     1      12.712  12.242  24.067  0.00  0.00    +0.080 A 
ATOM     21  C   UNL     1      12.198  12.642  25.272  0.00  0.00    +0.135 A 
ATOM     22  C   UNL     1      12.593  13.653  26.261  0.00  0.00    +0.089 C 
ENDBRANCH  16  18
ENDBRANCH   9   5
BRANCH  10   1
ATOM      1  O   UNL     1      10.313   7.316  21.141  0.00  0.00    -0.387 OA
ATOM     24  H   UNL     1       9.573   7.875  21.435  0.00  0.00    +0.210 HD
ENDBRANCH  10   1
BRANCH  12   2
ATOM      2  O   UNL     1      12.073   6.222  19.339  0.00  0.00    -0.389 OA
ATOM     25  H   UNL     1      12.863   6.126  19.896  0.00  0.00    +0.210 HD
ENDBRANCH  12   2
TORSDOF 5
ENDMDL
MODEL 3
REMARK VINA RESULT:      -6.5      2.365      3.733
REMARK  Name = 75536065
REMARK  6 active torsions:
REMARK  status: ('A' for Active; 'I' for Inactive)
REMARK    1  A    between atoms: O_1  and  C_10
REMARK    2  A    between atoms: O_2  and  C_12
REMARK    3  A    between atoms: N_5  and  C_9
REMARK    4  A    between atoms: C_8  and  C_13
REMARK    5  A    between atoms: C_16  and  C_18
REMARK    6  A    between atoms: C_21  and  C_22
REMARK                            x       y       z     vdW  Elec       q    Type
REMARK                         _______ _______ _______ _____ _____    ______ ____
ROOT
ATOM      8  C   UNL     1      13.295   8.801  18.785  0.00  0.00    +0.046 C 
ATOM      9  C   UNL     1      14.600   9.356  19.400  0.00  0.00    +0.112 C 
ATOM     10  C   UNL     1      14.952  10.530  18.489  0.00  0.00    +0.164 C 
ATOM     11  C   UNL     1      12.674   9.975  17.985  0.00  0.00    +0.044 C 
ATOM     12  C   UNL     1      13.597  11.171  18.210  0.00  0.00    +0.145 C 
ENDROOT
BRANCH   8  13
ATOM      6  N   UNL     1      11.518   6.208  20.910  0.00  0.00    -0.263 NA
ATOM     13  C   UNL     1      12.368   8.189  19.815  0.00  0.00    -0.024 A 
ATOM     14  C   UNL     1      11.537   8.986  20.595  0.00  0.00    +0.007 A 
ATOM     15  C   UNL     1      12.320   6.818  20.009  0.00  0.00    +0.114 A 
ATOM     17  C   UNL     1      10.696   8.396  21.532  0.00  0.00    +0.020 A 
ATOM     19  C   UNL     1      10.724   7.016  21.649  0.00  0.00    +0.111 A 
ENDBRANCH   8  13
BRANCH   9   5
ATOM      3  O   UNL     1      16.488   8.918  21.519  0.00  0.00    -0.268 OA
ATOM      5  N   UNL     1      15.645   8.365  19.430  0.00  0.00    -0.304 N 
ATOM     16  C   UNL     1      16.515   8.227  20.504  0.00  0.00    +0.266 C 
ATOM     23  H   UNL     1      15.725   7.721  18.648  0.00  0.00    +0.149 HD
BRANCH  16  18
ATOM      4  O   UNL     1      18.502   5.363  19.664  0.00  0.00    -0.359 OA
ATOM      7  N   UNL     1      17.354   6.138  19.552  0.00  0.00    -0.073 NA
ATOM     18  C   UNL     1      17.556   7.176  20.369  0.00  0.00    +0.168 A 
ATOM     20  C   UNL     1      18.802   7.111  21.016  0.00  0.00    +0.080 A 
ATOM     21  C   UNL     1      19.357   5.953  20.539  0.00  0.00    +0.135 A 
ATOM     22  C   UNL     1      20.630   5.262  20.779  0.00  0.00    +0.089 C 
ENDBRANCH  16  18
ENDBRANCH   9   5
BRANCH  10   1
ATOM      1  O   UNL     1      15.832  11.446  19.110  0.00  0.00    -0.387 OA
ATOM     24  H   UNL     1      15.499  11.609  20.009  0.00  0.00    +0.210 HD
ENDBRANCH  10   1
BRANCH  12   2
ATOM      2  O   UNL     1      13.134  11.897  19.344  0.00  0.00    -0.389 OA
ATOM     25  H   UNL     1      13.070  11.272  20.085  0.00  0.00    +0.210 HD
ENDBRANCH  12   2
TORSDOF 5
ENDMDL
MODEL 4
REMARK VINA RESULT:      -6.5      2.739      5.988
REMARK  Name = 75536065
REMARK  6 active torsions:
REMARK  status: ('A' for Active; 'I' for Inactive)
REMARK    1  A    between atoms: O_1  and  C_10
REMARK    2  A    between atoms: O_2  and  C_12
REMARK    3  A    between atoms: N_5  and  C_9
REMARK    4  A    between atoms: C_8  and  C_13
REMARK    5  A    between atoms: C_16  and  C_18
REMARK    6  A    between atoms: C_21  and  C_22
REMARK                            x       y       z     vdW  Elec       q    Type
REMARK                         _______ _______ _______ _____ _____    ______ ____
ROOT
ATOM      8  C   UNL     1      14.379   7.274  19.689  0.00  0.00    +0.046 C 
ATOM      9  C   UNL     1      14.223   8.803  19.532  0.00  0.00    +0.112 C 
ATOM     10  C   UNL     1      12.854   9.087  20.148  0.00  0.00    +0.164 C 
ATOM     11  C   UNL     1      13.439   6.872  20.855  0.00  0.00    +0.044 C 
ATOM     12  C   UNL     1      12.826   8.174  21.367  0.00  0.00    +0.145 C 
ENDROOT
BRANCH   8  13
ATOM      6  N   UNL     1      17.758   5.701  18.983  0.00  0.00    -0.263 NA
ATOM     13  C   UNL     1      15.818   6.840  19.869  0.00  0.00    -0.024 A 
ATOM     14  C   UNL     1      16.521   7.152  21.028  0.00  0.00    +0.007 A 
ATOM     15  C   UNL     1      16.477   6.119  18.886  0.00  0.00    +0.114 A 
ATOM     17  C   UNL     1      17.842   6.739  21.165  0.00  0.00    +0.020 A 
ATOM     19  C   UNL     1      18.409   6.024  20.124  0.00  0.00    +0.111 A 
ENDBRANCH   8  13
BRANCH   9   5
ATOM      3  O   UNL     1      15.013  11.382  18.547  0.00  0.00    -0.268 OA
ATOM      5  N   UNL     1      14.289   9.214  18.153  0.00  0.00    -0.304 N 
ATOM     16  C   UNL     1      14.685  10.489  17.770  0.00  0.00    +0.266 C 
ATOM     23  H   UNL     1      14.070   8.532  17.433  0.00  0.00    +0.149 HD
BRANCH  16  18
ATOM      4  O   UNL     1      13.915  10.844  14.287  0.00  0.00    -0.359 OA
ATOM      7  N   UNL     1      13.593  10.464  15.584  0.00  0.00    -0.073 NA
ATOM     18  C   UNL     1      14.673  10.764  16.311  0.00  0.00    +0.168 A 
ATOM     20  C   UNL     1      15.698  11.331  15.534  0.00  0.00    +0.080 A 
ATOM     21  C   UNL     1      15.172  11.358  14.269  0.00  0.00    +0.135 A 
ATOM     22  C   UNL     1      15.677  11.812  12.968  0.00  0.00    +0.089 C 
ENDBRANCH  16  18
ENDBRANCH   9   5
BRANCH  10   1
ATOM      1  O   UNL     1      12.704  10.443  20.521  0.00  0.00    -0.387 OA
ATOM     24  H   UNL     1      13.454  10.935  20.146  0.00  0.00    +0.210 HD
ENDBRANCH  10   1
BRANCH  12   2
ATOM      2  O   UNL     1      13.651   8.687  22.409  0.00  0.00    -0.389 OA
ATOM     25  H   UNL     1      14.562   8.398  22.229  0.00  0.00    +0.210 HD
ENDBRANCH  12   2
TORSDOF 5
ENDMDL
MODEL 5
REMARK VINA RESULT:      -6.2     12.899     14.677
REMARK  Name = 75536065
REMARK  6 active torsions:
REMARK  status: ('A' for Active; 'I' for Inactive)
REMARK    1  A    between atoms: O_1  and  C_10
REMARK    2  A    between atoms: O_2  and  C_12
REMARK    3  A    between atoms: N_5  and  C_9
REMARK    4  A    between atoms: C_8  and  C_13
REMARK    5  A    between atoms: C_16  and  C_18
REMARK    6  A    between atoms: C_21  and  C_22
REMARK                            x       y       z     vdW  Elec       q    Type
REMARK                         _______ _______ _______ _____ _____    ______ ____
ROOT
ATOM      8  C   UNL     1      10.379   6.179   4.858  0.00  0.00    +0.046 C 
ATOM      9  C   UNL     1      11.443   6.171   5.979  0.00  0.00    +0.112 C 
ATOM     10  C   UNL     1      10.620   5.957   7.249  0.00  0.00    +0.164 C 
ATOM     11  C   UNL     1       9.160   5.407   5.427  0.00  0.00    +0.044 C 
ATOM     12  C   UNL     1       9.578   4.932   6.818  0.00  0.00    +0.145 C 
ENDROOT
BRANCH   8  13
ATOM      6  N   UNL     1      11.833   6.076   1.355  0.00  0.00    -0.263 NA
ATOM     13  C   UNL     1      10.901   5.639   3.542  0.00  0.00    -0.024 A 
ATOM     14  C   UNL     1      10.937   4.271   3.293  0.00  0.00    +0.007 A 
ATOM     15  C   UNL     1      11.356   6.492   2.550  0.00  0.00    +0.114 A 
ATOM     17  C   UNL     1      11.420   3.805   2.076  0.00  0.00    +0.020 A 
ATOM     19  C   UNL     1      11.852   4.739   1.149  0.00  0.00    +0.111 A 
ENDBRANCH   8  13
BRANCH   9   5
ATOM      3  O   UNL     1      14.053   6.553   7.113  0.00  0.00    -0.268 OA
ATOM      5  N   UNL     1      12.190   7.402   6.023  0.00  0.00    -0.304 N 
ATOM     16  C   UNL     1      13.452   7.491   6.595  0.00  0.00    +0.266 C 
ATOM     23  H   UNL     1      11.790   8.227   5.586  0.00  0.00    +0.149 HD
BRANCH  16  18
ATOM      4  O   UNL     1      14.239  10.981   6.816  0.00  0.00    -0.359 OA
ATOM      7  N   UNL     1      13.363   9.909   6.935  0.00  0.00    -0.073 NA
ATOM     18  C   UNL     1      14.079   8.837   6.585  0.00  0.00    +0.168 A 
ATOM     20  C   UNL     1      15.400   9.168   6.238  0.00  0.00    +0.080 A 
ATOM     21  C   UNL     1      15.449  10.528   6.399  0.00  0.00    +0.135 A 
ATOM     22  C   UNL     1      16.501  11.536   6.218  0.00  0.00    +0.089 C 
ENDBRANCH  16  18
ENDBRANCH   9   5
BRANCH  10   1
ATOM      1  O   UNL     1      11.404   5.469   8.320  0.00  0.00    -0.387 OA
ATOM     24  H   UNL     1      11.805   4.631   8.031  0.00  0.00    +0.210 HD
ENDBRANCH  10   1
BRANCH  12   2
ATOM      2  O   UNL     1      10.154   3.635   6.702  0.00  0.00    -0.389 OA
ATOM     25  H   UNL     1       9.426   2.999   6.608  0.00  0.00    +0.210 HD
ENDBRANCH  12   2
TORSDOF 5
ENDMDL
MODEL 6
REMARK VINA RESULT:      -6.2     31.104     32.377
REMARK  Name = 75536065
REMARK  6 active torsions:
REMARK  status: ('A' for Active; 'I' for Inactive)
REMARK    1  A    between atoms: O_1  and  C_10
REMARK    2  A    between atoms: O_2  and  C_12
REMARK    3  A    between atoms: N_5  and  C_9
REMARK    4  A    between atoms: C_8  and  C_13
REMARK    5  A    between atoms: C_16  and  C_18
REMARK    6  A    between atoms: C_21  and  C_22
REMARK                            x       y       z     vdW  Elec       q    Type
REMARK                         _______ _______ _______ _____ _____    ______ ____
ROOT
ATOM      8  C   UNL     1     -14.748   3.172  30.384  0.00  0.00    +0.046 C 
ATOM      9  C   UNL     1     -15.371   1.961  29.653  0.00  0.00    +0.112 C 
ATOM     10  C   UNL     1     -14.339   0.853  29.856  0.00  0.00    +0.164 C 
ATOM     11  C   UNL     1     -13.759   2.576  31.420  0.00  0.00    +0.044 C 
ATOM     12  C   UNL     1     -13.888   1.059  31.296  0.00  0.00    +0.145 C 
ENDROOT
BRANCH   8  13
ATOM      6  N   UNL     1     -17.131   6.100  30.755  0.00  0.00    -0.263 NA
ATOM     13  C   UNL     1     -15.783   4.105  30.976  0.00  0.00    -0.024 A 
ATOM     14  C   UNL     1     -16.334   3.862  32.229  0.00  0.00    +0.007 A 
ATOM     15  C   UNL     1     -16.212   5.228  30.286  0.00  0.00    +0.114 A 
ATOM     17  C   UNL     1     -17.283   4.737  32.747  0.00  0.00    +0.020 A 
ATOM     19  C   UNL     1     -17.644   5.831  31.978  0.00  0.00    +0.111 A 
ENDBRANCH   8  13
BRANCH   9   5
ATOM      3  O   UNL     1     -17.177   0.567  27.909  0.00  0.00    -0.268 OA
ATOM      5  N   UNL     1     -15.602   2.234  28.258  0.00  0.00    -0.304 N 
ATOM     16  C   UNL     1     -16.499   1.503  27.491  0.00  0.00    +0.266 C 
ATOM     23  H   UNL     1     -15.113   3.015  27.829  0.00  0.00    +0.149 HD
BRANCH  16  18
ATOM      4  O   UNL     1     -16.909   1.659  23.933  0.00  0.00    -0.359 OA
ATOM      7  N   UNL     1     -16.891   0.969  25.138  0.00  0.00    -0.073 NA
ATOM     18  C   UNL     1     -16.602   1.891  26.061  0.00  0.00    +0.168 A 
ATOM     20  C   UNL     1     -16.430   3.169  25.502  0.00  0.00    +0.080 A 
ATOM     21  C   UNL     1     -16.633   2.968  24.162  0.00  0.00    +0.135 A 
ATOM     22  C   UNL     1     -16.610   3.849  22.988  0.00  0.00    +0.089 C 
ENDBRANCH  16  18
ENDBRANCH   9   5
BRANCH  10   1
ATOM      1  O   UNL     1     -14.893  -0.435  29.673  0.00  0.00    -0.387 OA
ATOM     24  H   UNL     1     -15.403  -0.651  30.472  0.00  0.00    +0.210 HD
ENDBRANCH  10   1
BRANCH  12   2
ATOM      2  O   UNL     1     -14.882   0.610  32.212  0.00  0.00    -0.389 OA
ATOM     25  H   UNL     1     -14.495  -0.114  32.732  0.00  0.00    +0.210 HD
ENDBRANCH  12   2
TORSDOF 5
ENDMDL
MODEL 7
REMARK VINA RESULT:      -6.2     25.625     27.804
REMARK  Name = 75536065
REMARK  6 active torsions:
REMARK  status: ('A' for Active; 'I' for Inactive)
REMARK    1  A    between atoms: O_1  and  C_10
REMARK    2  A    between atoms: O_2  and  C_12
REMARK    3  A    between atoms: N_5  and  C_9
REMARK    4  A    between atoms: C_8  and  C_13
REMARK    5  A    between atoms: C_16  and  C_18
REMARK    6  A    between atoms: C_21  and  C_22
REMARK                            x       y       z     vdW  Elec       q    Type
REMARK                         _______ _______ _______ _____ _____    ______ ____
ROOT
ATOM      8  C   UNL     1      -5.201 -11.572  16.683  0.00  0.00    +0.046 C 
ATOM      9  C   UNL     1      -5.625 -10.509  17.721  0.00  0.00    +0.112 C 
ATOM     10  C   UNL     1      -6.118 -11.342  18.903  0.00  0.00    +0.164 C 
ATOM     11  C   UNL     1      -4.910 -12.861  17.494  0.00  0.00    +0.044 C 
ATOM     12  C   UNL     1      -5.115 -12.488  18.961  0.00  0.00    +0.145 C 
ENDROOT
BRANCH   8  13
ATOM      6  N   UNL     1      -3.252 -10.525  13.601  0.00  0.00    -0.263 NA
ATOM     13  C   UNL     1      -4.055 -11.117  15.803  0.00  0.00    -0.024 A 
ATOM     14  C   UNL     1      -2.794 -10.875  16.336  0.00  0.00    +0.007 A 
ATOM     15  C   UNL     1      -4.231 -10.929  14.442  0.00  0.00    +0.114 A 
ATOM     17  C   UNL     1      -1.762 -10.458  15.504  0.00  0.00    +0.020 A 
ATOM     19  C   UNL     1      -2.039 -10.300  14.157  0.00  0.00    +0.111 A 
ENDBRANCH   8  13
BRANCH   9   5
ATOM      3  O   UNL     1      -8.390 -11.170  17.318  0.00  0.00    -0.268 OA
ATOM      5  N   UNL     1      -6.653  -9.637  17.212  0.00  0.00    -0.304 N 
ATOM     16  C   UNL     1      -7.970 -10.048  17.050  0.00  0.00    +0.266 C 
ATOM     23  H   UNL     1      -6.409  -8.675  16.995  0.00  0.00    +0.149 HD
BRANCH  16  18
ATOM      4  O   UNL     1     -10.086  -8.003  15.003  0.00  0.00    -0.359 OA
ATOM      7  N   UNL     1      -9.208  -9.063  15.187  0.00  0.00    -0.073 NA
ATOM     18  C   UNL     1      -8.903  -9.038  16.488  0.00  0.00    +0.168 A 
ATOM     20  C   UNL     1      -9.554  -7.995  17.168  0.00  0.00    +0.080 A 
ATOM     21  C   UNL     1     -10.285  -7.374  16.189  0.00  0.00    +0.135 A 
ATOM     22  C   UNL     1     -11.193  -6.220  16.177  0.00  0.00    +0.089 C 
ENDBRANCH  16  18
ENDBRANCH   9   5
BRANCH  10   1
ATOM      1  O   UNL     1      -6.125 -10.607  20.112  0.00  0.00    -0.387 OA
ATOM     24  H   UNL     1      -5.646 -11.132  20.776  0.00  0.00    +0.210 HD
ENDBRANCH  10   1
BRANCH  12   2
ATOM      2  O   UNL     1      -3.870 -12.050  19.498  0.00  0.00    -0.389 OA
ATOM     25  H   UNL     1      -4.013 -11.847  20.438  0.00  0.00    +0.210 HD
ENDBRANCH  12   2
TORSDOF 5
ENDMDL
MODEL 8
REMARK VINA RESULT:      -6.2     25.419     27.212
REMARK  Name = 75536065
REMARK  6 active torsions:
REMARK  status: ('A' for Active; 'I' for Inactive)
REMARK    1  A    between atoms: O_1  and  C_10
REMARK    2  A    between atoms: O_2  and  C_12
REMARK    3  A    between atoms: N_5  and  C_9
REMARK    4  A    between atoms: C_8  and  C_13
REMARK    5  A    between atoms: C_16  and  C_18
REMARK    6  A    between atoms: C_21  and  C_22
REMARK                            x       y       z     vdW  Elec       q    Type
REMARK                         _______ _______ _______ _____ _____    ______ ____
ROOT
ATOM      8  C   UNL     1      -3.665 -12.794  12.354  0.00  0.00    +0.046 C 
ATOM      9  C   UNL     1      -3.139 -13.082  13.778  0.00  0.00    +0.112 C 
ATOM     10  C   UNL     1      -3.123 -14.608  13.850  0.00  0.00    +0.164 C 
ATOM     11  C   UNL     1      -3.357 -14.069  11.525  0.00  0.00    +0.044 C 
ATOM     12  C   UNL     1      -2.619 -15.015  12.471  0.00  0.00    +0.145 C 
ENDROOT
BRANCH   8  13
ATOM      6  N   UNL     1      -1.347  -9.859  11.717  0.00  0.00    -0.263 NA
ATOM     13  C   UNL     1      -3.107 -11.516  11.763  0.00  0.00    -0.024 A 
ATOM     14  C   UNL     1      -3.789 -10.830  10.764  0.00  0.00    +0.007 A 
ATOM     15  C   UNL     1      -1.901 -10.993  12.201  0.00  0.00    +0.114 A 
ATOM     17  C   UNL     1      -3.252  -9.660  10.241  0.00  0.00    +0.020 A 
ATOM     19  C   UNL     1      -2.040  -9.220  10.747  0.00  0.00    +0.111 A 
ENDBRANCH   8  13
BRANCH   9   5
ATOM      3  O   UNL     1      -2.402 -11.058  15.677  0.00  0.00    -0.268 OA
ATOM      5  N   UNL     1      -3.984 -12.504  14.792  0.00  0.00    -0.304 N 
ATOM     16  C   UNL     1      -3.537 -11.525  15.670  0.00  0.00    +0.266 C 
ATOM     23  H   UNL     1      -4.954 -12.802  14.842  0.00  0.00    +0.149 HD
BRANCH  16  18
ATOM      4  O   UNL     1      -6.233  -9.992  17.468  0.00  0.00    -0.359 OA
ATOM      7  N   UNL     1      -5.511 -10.232  16.306  0.00  0.00    -0.073 NA
ATOM     18  C   UNL     1      -4.523 -11.052  16.675  0.00  0.00    +0.168 A 
ATOM     20  C   UNL     1      -4.571 -11.362  18.045  0.00  0.00    +0.080 A 
ATOM     21  C   UNL     1      -5.664 -10.670  18.497  0.00  0.00    +0.135 A 
ATOM     22  C   UNL     1      -6.305 -10.528  19.811  0.00  0.00    +0.089 C 
ENDBRANCH  16  18
ENDBRANCH   9   5
BRANCH  10   1
ATOM      1  O   UNL     1      -2.266 -15.087  14.869  0.00  0.00    -0.387 OA
ATOM     24  H   UNL     1      -1.945 -14.317  15.368  0.00  0.00    +0.210 HD
ENDBRANCH  10   1
BRANCH  12   2
ATOM      2  O   UNL     1      -1.219 -14.780  12.349  0.00  0.00    -0.389 OA
ATOM     25  H   UNL     1      -0.808 -15.022  13.196  0.00  0.00    +0.210 HD
ENDBRANCH  12   2
TORSDOF 5
ENDMDL
MODEL 9
REMARK VINA RESULT:      -6.1     26.613     27.881
REMARK  Name = 75536065
REMARK  6 active torsions:
REMARK  status: ('A' for Active; 'I' for Inactive)
REMARK    1  A    between atoms: O_1  and  C_10
REMARK    2  A    between atoms: O_2  and  C_12
REMARK    3  A    between atoms: N_5  and  C_9
REMARK    4  A    between atoms: C_8  and  C_13
REMARK    5  A    between atoms: C_16  and  C_18
REMARK    6  A    between atoms: C_21  and  C_22
REMARK                            x       y       z     vdW  Elec       q    Type
REMARK                         _______ _______ _______ _____ _____    ______ ____
ROOT
ATOM      8  C   UNL     1      -5.941 -10.281  17.561  0.00  0.00    +0.046 C 
ATOM      9  C   UNL     1      -5.632 -11.239  16.388  0.00  0.00    +0.112 C 
ATOM     10  C   UNL     1      -4.367 -11.963  16.844  0.00  0.00    +0.164 C 
ATOM     11  C   UNL     1      -5.250 -10.899  18.804  0.00  0.00    +0.044 C 
ATOM     12  C   UNL     1      -4.622 -12.208  18.326  0.00  0.00    +0.145 C 
ENDROOT
BRANCH   8  13
ATOM      6  N   UNL     1      -9.507 -10.599  18.816  0.00  0.00    -0.263 NA
ATOM     13  C   UNL     1      -7.423 -10.020  17.738  0.00  0.00    -0.024 A 
ATOM     14  C   UNL     1      -8.062  -9.010  17.027  0.00  0.00    +0.007 A 
ATOM     15  C   UNL     1      -8.184 -10.779  18.612  0.00  0.00    +0.114 A 
ATOM     17  C   UNL     1      -9.423  -8.794  17.210  0.00  0.00    +0.020 A 
ATOM     19  C   UNL     1     -10.094  -9.608  18.107  0.00  0.00    +0.111 A 
ENDBRANCH   8  13
BRANCH   9   5
ATOM      3  O   UNL     1      -5.953 -12.289  13.735  0.00  0.00    -0.268 OA
ATOM      5  N   UNL     1      -5.429 -10.528  15.151  0.00  0.00    -0.304 N 
ATOM     16  C   UNL     1      -5.610 -11.122  13.909  0.00  0.00    +0.266 C 
ATOM     23  H   UNL     1      -5.178  -9.545  15.193  0.00  0.00    +0.149 HD
BRANCH  16  18
ATOM      4  O   UNL     1      -5.577  -8.631  11.331  0.00  0.00    -0.359 OA
ATOM      7  N   UNL     1      -6.102  -9.197  12.486  0.00  0.00    -0.073 NA
ATOM     18  C   UNL     1      -5.334 -10.263  12.729  0.00  0.00    +0.168 A 
ATOM     20  C   UNL     1      -4.318 -10.417  11.771  0.00  0.00    +0.080 A 
ATOM     21  C   UNL     1      -4.515  -9.366  10.915  0.00  0.00    +0.135 A 
ATOM     22  C   UNL     1      -3.835  -8.906   9.697  0.00  0.00    +0.089 C 
ENDBRANCH  16  18
ENDBRANCH   9   5
BRANCH  10   1
ATOM      1  O   UNL     1      -4.166 -13.180  16.152  0.00  0.00    -0.387 OA
ATOM     24  H   UNL     1      -3.846 -13.834  16.797  0.00  0.00    +0.210 HD
ENDBRANCH  10   1
BRANCH  12   2
ATOM      2  O   UNL     1      -5.564 -13.260  18.515  0.00  0.00    -0.389 OA
ATOM     25  H   UNL     1      -5.361 -13.954  17.865  0.00  0.00    +0.210 HD
ENDBRANCH  12   2
TORSDOF 5
ENDMDL
MODEL 10
REMARK VINA RESULT:      -6.1     14.931     18.092
REMARK  Name = 75536065
REMARK  6 active torsions:
REMARK  status: ('A' for Active; 'I' for Inactive)
REMARK    1  A    between atoms: O_1  and  C_10
REMARK    2  A    between atoms: O_2  and  C_12
REMARK    3  A    between atoms: N_5  and  C_9
REMARK    4  A    between atoms: C_8  and  C_13
REMARK    5  A    between atoms: C_16  and  C_18
REMARK    6  A    between atoms: C_21  and  C_22
REMARK                            x       y       z     vdW  Elec       q    Type
REMARK                         _______ _______ _______ _____ _____    ______ ____
ROOT
ATOM      8  C   UNL     1      11.733   7.251   3.412  0.00  0.00    +0.046 C 
ATOM      9  C   UNL     1      12.638   6.089   2.946  0.00  0.00    +0.112 C 
ATOM     10  C   UNL     1      14.013   6.740   2.810  0.00  0.00    +0.164 C 
ATOM     11  C   UNL     1      12.682   8.286   4.070  0.00  0.00    +0.044 C 
ATOM     12  C   UNL     1      14.078   7.668   4.017  0.00  0.00    +0.145 C 
ENDROOT
BRANCH   8  13
ATOM      6  N   UNL     1       9.820   5.381   6.102  0.00  0.00    -0.263 NA
ATOM     13  C   UNL     1      10.594   6.795   4.301  0.00  0.00    -0.024 A 
ATOM     14  C   UNL     1       9.318   7.330   4.162  0.00  0.00    +0.007 A 
ATOM     15  C   UNL     1      10.791   5.832   5.277  0.00  0.00    +0.114 A 
ATOM     17  C   UNL     1       8.293   6.892   4.992  0.00  0.00    +0.020 A 
ATOM     19  C   UNL     1       8.592   5.925   5.937  0.00  0.00    +0.111 A 
ENDBRANCH   8  13
BRANCH   9   5
ATOM      3  O   UNL     1      13.163   3.435   1.983  0.00  0.00    -0.268 OA
ATOM      5  N   UNL     1      12.187   5.520   1.701  0.00  0.00    -0.304 N 
ATOM     16  C   UNL     1      12.492   4.220   1.319  0.00  0.00    +0.266 C 
ATOM     23  H   UNL     1      11.594   6.082   1.098  0.00  0.00    +0.149 HD
BRANCH  16  18
ATOM      4  O   UNL     1      10.543   3.458  -1.592  0.00  0.00    -0.359 OA
ATOM      7  N   UNL     1      10.682   3.954  -0.302  0.00  0.00    -0.073 NA
ATOM     18  C   UNL     1      11.975   3.792  -0.006  0.00  0.00    +0.168 A 
ATOM     20  C   UNL     1      12.694   3.206  -1.062  0.00  0.00    +0.080 A 
ATOM     21  C   UNL     1      11.748   3.015  -2.034  0.00  0.00    +0.135 A 
ATOM     22  C   UNL     1      11.783   2.453  -3.390  0.00  0.00    +0.089 C 
ENDBRANCH  16  18
ENDBRANCH   9   5
BRANCH  10   1
ATOM      1  O   UNL     1      15.062   5.792   2.838  0.00  0.00    -0.387 OA
ATOM     24  H   UNL     1      14.905   5.160   2.116  0.00  0.00    +0.210 HD
ENDBRANCH  10   1
BRANCH  12   2
ATOM      2  O   UNL     1      14.296   6.931   5.216  0.00  0.00    -0.389 OA
ATOM     25  H   UNL     1      13.703   6.160   5.197  0.00  0.00    +0.210 HD
ENDBRANCH  12   2
TORSDOF 5
ENDMDL
