REMARK  Name = 26743426
REMARK  11 active torsions:
REMARK  status: ('A' for Active; 'I' for Inactive)
REMARK    1  A    between atoms: O_5  and  C_23
REMARK    2  A    between atoms: O_5  and  C_30
REMARK    3  A    between atoms: O_6  and  C_31
REMARK    4  A    between atoms: N_8  and  C_13
REMARK    5  A    between atoms: N_9  and  C_21
REMARK    6  A    between atoms: C_11  and  C_14
REMARK    7  A    between atoms: C_17  and  C_19
REMARK    8  A    between atoms: C_18  and  C_20
REMARK    9  A    between atoms: C_22  and  C_23
REMARK   10  A    between atoms: C_28  and  C_29
REMARK   11  A    between atoms: C_30  and  C_31
REMARK                            x       y       z     vdW  Elec       q    Type
REMARK                         _______ _______ _______ _____ _____    ______ ____
ROOT
ATOM      9  N   UNL     1      -2.613   0.947   0.356  0.00  0.00    -0.236 N 
ATOM     10  N   UNL     1      -2.392   2.013   1.144  0.00  0.00    -0.171 NA
ATOM     14  C   UNL     1      -0.497   1.384   0.035  0.00  0.00    +0.003 A 
ATOM     17  C   UNL     1      -1.510   0.531  -0.330  0.00  0.00    +0.046 A 
ATOM     18  C   UNL     1      -1.098   2.276   0.943  0.00  0.00    +0.064 A 
ATOM     19  C   UNL     1      -1.516  -0.622  -1.253  0.00  0.00    +0.066 C 
ATOM     20  C   UNL     1      -0.469   3.404   1.653  0.00  0.00    +0.068 C 
ENDROOT
BRANCH   9  21
ATOM     21  C   UNL     1      -3.885   0.378   0.303  0.00  0.00    +0.066 A 
ATOM     24  C   UNL     1      -4.974   1.140  -0.120  0.00  0.00    +0.028 A 
ATOM     25  C   UNL     1      -4.069  -0.953   0.677  0.00  0.00    +0.028 A 
ATOM     26  C   UNL     1      -6.247   0.571  -0.170  0.00  0.00    +0.014 A 
ATOM     27  C   UNL     1      -5.342  -1.522   0.627  0.00  0.00    +0.014 A 
ATOM     28  C   UNL     1      -6.431  -0.760   0.204  0.00  0.00    +0.055 A 
BRANCH  28  29
ATOM      1  F   UNL     1      -7.879  -2.444  -0.685  0.00  0.00    -0.166 F 
ATOM      2  F   UNL     1      -8.742  -0.490  -0.282  0.00  0.00    -0.166 F 
ATOM      3  F   UNL     1      -8.236  -1.820   1.362  0.00  0.00    -0.166 F 
ATOM     29  C   UNL     1      -7.792  -1.368   0.152  0.00  0.00    +0.417 C 
ENDBRANCH  28  29
ENDBRANCH   9  21
BRANCH  14  11
ATOM     11  C   UNL     1       0.939   1.367  -0.436  0.00  0.00    +0.047 C 
ATOM     12  C   UNL     1       1.661   0.036  -0.140  0.00  0.00    +0.039 C 
ATOM     13  C   UNL     1       2.627  -0.187  -1.310  0.00  0.00    +0.097 C 
ATOM     15  C   UNL     1       1.116   1.506  -1.920  0.00  0.00    -0.021 C 
ATOM     16  C   UNL     1       2.039   0.660  -2.391  0.00  0.00    -0.009 C 
BRANCH  13   8
ATOM      4  O   UNL     1       4.824  -1.752  -0.265  0.00  0.00    -0.273 OA
ATOM      8  N   UNL     1       3.961   0.270  -1.026  0.00  0.00    -0.307 N 
ATOM     22  C   UNL     1       4.957  -0.558  -0.522  0.00  0.00    +0.239 C 
ATOM     32  H   UNL     1       4.175   1.255  -1.165  0.00  0.00    +0.149 HD
BRANCH  22  23
ATOM     23  C   UNL     1       6.261   0.183  -0.319  0.00  0.00    +0.256 C 
BRANCH  23   5
ATOM      5  O   UNL     1       7.256  -0.685   0.180  0.00  0.00    -0.359 OA
BRANCH   5  30
ATOM     30  C   UNL     1       8.496  -0.013   0.381  0.00  0.00    +0.280 C 
BRANCH  30  31
ATOM      7  O   UNL     1       9.325  -2.159   1.162  0.00  0.00    -0.248 OA
ATOM     31  C   UNL     1       9.518  -0.979   0.911  0.00  0.00    +0.331 C 
BRANCH  31   6
ATOM      6  O   UNL     1      10.711  -0.354   1.077  0.00  0.00    -0.479 OA
ATOM     33  H   UNL     1      11.399  -0.963   1.423  0.00  0.00    +0.295 HD
ENDBRANCH  31   6
ENDBRANCH  30  31
ENDBRANCH   5  30
ENDBRANCH  23   5
ENDBRANCH  22  23
ENDBRANCH  13   8
ENDBRANCH  14  11
TORSDOF 9
