MODEL 1
REMARK VINA RESULT:      -7.5      0.000      0.000
REMARK  Name = 51137521
REMARK  9 active torsions:
REMARK  status: ('A' for Active; 'I' for Inactive)
REMARK    1  A    between atoms: O_2  and  C_27
REMARK    2  A    between atoms: N_4  and  C_12
REMARK    3  A    between atoms: N_7  and  C_24
REMARK    4  A    between atoms: N_7  and  C_28
REMARK    5  A    between atoms: N_7  and  C_29
REMARK    6  A    between atoms: C_8  and  C_13
REMARK    7  A    between atoms: C_12  and  C_14
REMARK    8  A    between atoms: C_15  and  C_18
REMARK    9  A    between atoms: C_21  and  C_27
REMARK                            x       y       z     vdW  Elec       q    Type
REMARK                         _______ _______ _______ _____ _____    ______ ____
ROOT
ATOM      4  N   UNL     1      15.928   7.340  20.693  0.00  0.00    -0.297 NA
ATOM      8  C   UNL     1      13.641   7.068  21.134  0.00  0.00    +0.092 C 
ATOM      9  C   UNL     1      13.856   7.235  19.620  0.00  0.00    +0.029 C 
ATOM     10  C   UNL     1      14.955   7.543  21.769  0.00  0.00    +0.097 C 
ATOM     11  C   UNL     1      15.257   7.816  19.483  0.00  0.00    +0.085 C 
ENDROOT
BRANCH   8  13
ATOM      1  O   UNL     1      12.578   9.101  21.993  0.00  0.00    -0.420 OA
ATOM      5  N   UNL     1      11.222   7.323  21.923  0.00  0.00    -0.112 NA
ATOM      6  N   UNL     1      10.500   8.390  22.422  0.00  0.00    -0.107 NA
ATOM     13  C   UNL     1      12.428   7.783  21.686  0.00  0.00    +0.222 A 
ATOM     15  C   UNL     1      11.332   9.406  22.446  0.00  0.00    +0.248 A 
BRANCH  15  18
ATOM     18  C   UNL     1      11.132  10.763  22.866  0.00  0.00    +0.039 A 
ATOM     22  C   UNL     1      10.927  11.051  24.216  0.00  0.00    +0.015 A 
ATOM     23  C   UNL     1      11.145  11.793  21.927  0.00  0.00    +0.015 A 
ATOM     24  C   UNL     1      10.746  13.402  23.685  0.00  0.00    +0.029 A 
ATOM     25  C   UNL     1      10.734  12.371  24.625  0.00  0.00    +0.024 A 
ATOM     26  C   UNL     1      10.952  13.112  22.336  0.00  0.00    +0.024 A 
BRANCH  24   7
ATOM      7  N   UNL     1      10.550  14.736  24.099  0.00  0.00    -0.336 N 
ATOM     28  C   UNL     1       9.352  15.455  23.712  0.00  0.00    +0.129 C 
ATOM     29  C   UNL     1      11.547  15.407  24.909  0.00  0.00    +0.129 C 
ENDBRANCH  24   7
ENDBRANCH  15  18
ENDBRANCH   8  13
BRANCH   4  12
ATOM     12  C   UNL     1      17.183   8.034  20.940  0.00  0.00    +0.119 C 
BRANCH  12  14
ATOM     14  C   UNL     1      18.362   7.100  20.878  0.00  0.00    -0.033 A 
ATOM     16  C   UNL     1      19.485   7.341  21.668  0.00  0.00    +0.006 A 
ATOM     17  C   UNL     1      18.330   5.994  20.028  0.00  0.00    +0.006 A 
ATOM     19  C   UNL     1      20.577   6.476  21.610  0.00  0.00    +0.015 A 
ATOM     20  C   UNL     1      19.423   5.129  19.970  0.00  0.00    +0.015 A 
ATOM     21  C   UNL     1      20.547   5.369  20.762  0.00  0.00    +0.059 A 
BRANCH  21  27
ATOM      3  O   UNL     1      22.867   4.810  20.608  0.00  0.00    -0.245 OA
ATOM     27  C   UNL     1      21.685   4.467  20.701  0.00  0.00    +0.337 C 
BRANCH  27   2
ATOM      2  O   UNL     1      21.315   3.158  20.760  0.00  0.00    -0.477 OA
ATOM     30  H   UNL     1      22.020   2.563  20.425  0.00  0.00    +0.295 HD
ENDBRANCH  27   2
ENDBRANCH  21  27
ENDBRANCH  12  14
ENDBRANCH   4  12
TORSDOF 7
ENDMDL
MODEL 2
REMARK VINA RESULT:      -7.4      3.007      9.954
REMARK  Name = 51137521
REMARK  9 active torsions:
REMARK  status: ('A' for Active; 'I' for Inactive)
REMARK    1  A    between atoms: O_2  and  C_27
REMARK    2  A    between atoms: N_4  and  C_12
REMARK    3  A    between atoms: N_7  and  C_24
REMARK    4  A    between atoms: N_7  and  C_28
REMARK    5  A    between atoms: N_7  and  C_29
REMARK    6  A    between atoms: C_8  and  C_13
REMARK    7  A    between atoms: C_12  and  C_14
REMARK    8  A    between atoms: C_15  and  C_18
REMARK    9  A    between atoms: C_21  and  C_27
REMARK                            x       y       z     vdW  Elec       q    Type
REMARK                         _______ _______ _______ _____ _____    ______ ____
ROOT
ATOM      4  N   UNL     1      12.448   8.743  19.307  0.00  0.00    -0.297 NA
ATOM      8  C   UNL     1      14.683   8.259  18.791  0.00  0.00    +0.092 C 
ATOM      9  C   UNL     1      13.837   8.213  17.507  0.00  0.00    +0.029 C 
ATOM     10  C   UNL     1      13.659   8.210  19.933  0.00  0.00    +0.097 C 
ATOM     11  C   UNL     1      12.396   8.112  17.988  0.00  0.00    +0.085 C 
ENDROOT
BRANCH   8  13
ATOM      1  O   UNL     1      16.727   7.374  19.810  0.00  0.00    -0.420 OA
ATOM      5  N   UNL     1      15.851   6.055  18.230  0.00  0.00    -0.112 NA
ATOM      6  N   UNL     1      16.989   5.440  18.717  0.00  0.00    -0.107 NA
ATOM     13  C   UNL     1      15.737   7.180  18.897  0.00  0.00    +0.222 A 
ATOM     15  C   UNL     1      17.468   6.247  19.636  0.00  0.00    +0.248 A 
BRANCH  15  18
ATOM     18  C   UNL     1      18.627   6.123  20.471  0.00  0.00    +0.039 A 
ATOM     22  C   UNL     1      18.744   6.902  21.622  0.00  0.00    +0.015 A 
ATOM     23  C   UNL     1      19.637   5.223  20.133  0.00  0.00    +0.015 A 
ATOM     24  C   UNL     1      20.882   5.881  22.096  0.00  0.00    +0.029 A 
ATOM     25  C   UNL     1      19.872   6.782  22.434  0.00  0.00    +0.024 A 
ATOM     26  C   UNL     1      20.765   5.102  20.945  0.00  0.00    +0.024 A 
BRANCH  24   7
ATOM      7  N   UNL     1      22.023   5.760  22.917  0.00  0.00    -0.336 N 
ATOM     28  C   UNL     1      22.531   4.452  23.279  0.00  0.00    +0.129 C 
ATOM     29  C   UNL     1      22.696   6.943  23.416  0.00  0.00    +0.129 C 
ENDBRANCH  24   7
ENDBRANCH  15  18
ENDBRANCH   8  13
BRANCH   4  12
ATOM     12  C   UNL     1      11.253   8.478  20.095  0.00  0.00    +0.119 C 
BRANCH  12  14
ATOM     14  C   UNL     1      11.199   9.330  21.335  0.00  0.00    -0.033 A 
ATOM     16  C   UNL     1      10.910   8.747  22.569  0.00  0.00    +0.006 A 
ATOM     17  C   UNL     1      11.439  10.701  21.250  0.00  0.00    +0.006 A 
ATOM     19  C   UNL     1      10.859   9.536  23.718  0.00  0.00    +0.015 A 
ATOM     20  C   UNL     1      11.389  11.490  22.399  0.00  0.00    +0.015 A 
ATOM     21  C   UNL     1      11.100  10.907  23.634  0.00  0.00    +0.059 A 
BRANCH  21  27
ATOM      3  O   UNL     1      10.224  12.622  25.053  0.00  0.00    -0.245 OA
ATOM     27  C   UNL     1      11.049  11.730  24.832  0.00  0.00    +0.337 C 
BRANCH  27   2
ATOM      2  O   UNL     1      12.029  11.415  25.722  0.00  0.00    -0.477 OA
ATOM     30  H   UNL     1      12.911  11.716  25.416  0.00  0.00    +0.295 HD
ENDBRANCH  27   2
ENDBRANCH  21  27
ENDBRANCH  12  14
ENDBRANCH   4  12
TORSDOF 7
ENDMDL
MODEL 3
REMARK VINA RESULT:      -7.3     26.731     30.787
REMARK  Name = 51137521
REMARK  9 active torsions:
REMARK  status: ('A' for Active; 'I' for Inactive)
REMARK    1  A    between atoms: O_2  and  C_27
REMARK    2  A    between atoms: N_4  and  C_12
REMARK    3  A    between atoms: N_7  and  C_24
REMARK    4  A    between atoms: N_7  and  C_28
REMARK    5  A    between atoms: N_7  and  C_29
REMARK    6  A    between atoms: C_8  and  C_13
REMARK    7  A    between atoms: C_12  and  C_14
REMARK    8  A    between atoms: C_15  and  C_18
REMARK    9  A    between atoms: C_21  and  C_27
REMARK                            x       y       z     vdW  Elec       q    Type
REMARK                         _______ _______ _______ _____ _____    ______ ____
ROOT
ATOM      4  N   UNL     1     -16.718   3.285  26.494  0.00  0.00    -0.297 NA
ATOM      8  C   UNL     1     -16.309   4.819  24.768  0.00  0.00    +0.092 C 
ATOM      9  C   UNL     1     -17.820   4.750  25.048  0.00  0.00    +0.029 C 
ATOM     10  C   UNL     1     -15.730   3.573  25.452  0.00  0.00    +0.097 C 
ATOM     11  C   UNL     1     -18.015   3.466  25.844  0.00  0.00    +0.085 C 
ENDROOT
BRANCH   8  13
ATOM      1  O   UNL     1     -14.938   5.779  22.980  0.00  0.00    -0.420 OA
ATOM      5  N   UNL     1     -16.439   4.279  22.273  0.00  0.00    -0.112 NA
ATOM      6  N   UNL     1     -15.740   4.735  21.171  0.00  0.00    -0.107 NA
ATOM     13  C   UNL     1     -15.937   4.914  23.306  0.00  0.00    +0.222 A 
ATOM     15  C   UNL     1     -14.875   5.610  21.632  0.00  0.00    +0.248 A 
BRANCH  15  18
ATOM     18  C   UNL     1     -13.892   6.397  20.946  0.00  0.00    +0.039 A 
ATOM     22  C   UNL     1     -14.293   7.353  20.012  0.00  0.00    +0.015 A 
ATOM     23  C   UNL     1     -12.537   6.208  21.214  0.00  0.00    +0.015 A 
ATOM     24  C   UNL     1     -11.981   7.930  19.612  0.00  0.00    +0.029 A 
ATOM     25  C   UNL     1     -13.337   8.119  19.344  0.00  0.00    +0.024 A 
ATOM     26  C   UNL     1     -11.581   6.975  20.547  0.00  0.00    +0.024 A 
BRANCH  24   7
ATOM      7  N   UNL     1     -11.014   8.705  18.937  0.00  0.00    -0.336 N 
ATOM     28  C   UNL     1     -10.500   9.921  19.535  0.00  0.00    +0.129 C 
ATOM     29  C   UNL     1     -10.530   8.298  17.633  0.00  0.00    +0.129 C 
ENDBRANCH  24   7
ENDBRANCH  15  18
ENDBRANCH   8  13
BRANCH   4  12
ATOM     12  C   UNL     1     -16.561   1.951  27.055  0.00  0.00    +0.119 C 
BRANCH  12  14
ATOM     14  C   UNL     1     -15.894   1.984  28.404  0.00  0.00    -0.033 A 
ATOM     16  C   UNL     1     -15.526   3.204  28.970  0.00  0.00    +0.006 A 
ATOM     17  C   UNL     1     -15.644   0.794  29.088  0.00  0.00    +0.006 A 
ATOM     19  C   UNL     1     -14.907   3.236  30.220  0.00  0.00    +0.015 A 
ATOM     20  C   UNL     1     -15.026   0.826  30.338  0.00  0.00    +0.015 A 
ATOM     21  C   UNL     1     -14.657   2.047  30.904  0.00  0.00    +0.059 A 
BRANCH  21  27
ATOM      3  O   UNL     1     -14.556   1.801  33.282  0.00  0.00    -0.245 OA
ATOM     27  C   UNL     1     -14.013   2.079  32.208  0.00  0.00    +0.337 C 
BRANCH  27   2
ATOM      2  O   UNL     1     -12.707   2.455  32.134  0.00  0.00    -0.477 OA
ATOM     30  H   UNL     1     -12.613   3.420  31.986  0.00  0.00    +0.295 HD
ENDBRANCH  27   2
ENDBRANCH  21  27
ENDBRANCH  12  14
ENDBRANCH   4  12
TORSDOF 7
ENDMDL
MODEL 4
REMARK VINA RESULT:      -7.2     27.064     29.443
REMARK  Name = 51137521
REMARK  9 active torsions:
REMARK  status: ('A' for Active; 'I' for Inactive)
REMARK    1  A    between atoms: O_2  and  C_27
REMARK    2  A    between atoms: N_4  and  C_12
REMARK    3  A    between atoms: N_7  and  C_24
REMARK    4  A    between atoms: N_7  and  C_28
REMARK    5  A    between atoms: N_7  and  C_29
REMARK    6  A    between atoms: C_8  and  C_13
REMARK    7  A    between atoms: C_12  and  C_14
REMARK    8  A    between atoms: C_15  and  C_18
REMARK    9  A    between atoms: C_21  and  C_27
REMARK                            x       y       z     vdW  Elec       q    Type
REMARK                         _______ _______ _______ _____ _____    ______ ____
ROOT
ATOM      4  N   UNL     1      -2.058 -10.979  14.027  0.00  0.00    -0.297 NA
ATOM      8  C   UNL     1      -3.148 -10.312  15.993  0.00  0.00    +0.092 C 
ATOM      9  C   UNL     1      -1.675 -10.628  16.304  0.00  0.00    +0.029 C 
ATOM     10  C   UNL     1      -3.398 -10.941  14.615  0.00  0.00    +0.097 C 
ATOM     11  C   UNL     1      -1.184 -11.434  15.108  0.00  0.00    +0.085 C 
ENDROOT
BRANCH   8  13
ATOM      1  O   UNL     1      -5.402 -10.296  16.953  0.00  0.00    -0.420 OA
ATOM      5  N   UNL     1      -3.953 -11.600  18.050  0.00  0.00    -0.112 NA
ATOM      6  N   UNL     1      -5.174 -11.684  18.692  0.00  0.00    -0.107 NA
ATOM     13  C   UNL     1      -4.133 -10.780  17.041  0.00  0.00    +0.222 A 
ATOM     15  C   UNL     1      -5.989 -10.906  18.018  0.00  0.00    +0.248 A 
BRANCH  15  18
ATOM     18  C   UNL     1      -7.376 -10.608  18.225  0.00  0.00    +0.039 A 
ATOM     22  C   UNL     1      -8.110 -11.327  19.170  0.00  0.00    +0.015 A 
ATOM     23  C   UNL     1      -7.991  -9.599  17.485  0.00  0.00    +0.015 A 
ATOM     24  C   UNL     1     -10.075 -10.027  18.632  0.00  0.00    +0.029 A 
ATOM     25  C   UNL     1      -9.459 -11.037  19.372  0.00  0.00    +0.024 A 
ATOM     26  C   UNL     1      -9.340  -9.309  17.688  0.00  0.00    +0.024 A 
BRANCH  24   7
ATOM      7  N   UNL     1     -11.439  -9.735  18.836  0.00  0.00    -0.336 N 
ATOM     28  C   UNL     1     -12.053  -9.965  20.129  0.00  0.00    +0.129 C 
ATOM     29  C   UNL     1     -12.246  -9.208  17.753  0.00  0.00    +0.129 C 
ENDBRANCH  24   7
ENDBRANCH  15  18
ENDBRANCH   8  13
BRANCH   4  12
ATOM     12  C   UNL     1      -1.989 -11.843  12.858  0.00  0.00    +0.119 C 
BRANCH  12  14
ATOM     14  C   UNL     1      -2.726 -11.258  11.683  0.00  0.00    -0.033 A 
ATOM     16  C   UNL     1      -3.651 -12.033  10.984  0.00  0.00    +0.006 A 
ATOM     17  C   UNL     1      -2.484  -9.940  11.295  0.00  0.00    +0.006 A 
ATOM     19  C   UNL     1      -4.334 -11.491   9.895  0.00  0.00    +0.015 A 
ATOM     20  C   UNL     1      -3.168  -9.398  10.207  0.00  0.00    +0.015 A 
ATOM     21  C   UNL     1      -4.093 -10.173   9.507  0.00  0.00    +0.059 A 
BRANCH  21  27
ATOM      3  O   UNL     1      -5.027 -10.186   7.305  0.00  0.00    -0.245 OA
ATOM     27  C   UNL     1      -4.806  -9.607   8.373  0.00  0.00    +0.337 C 
BRANCH  27   2
ATOM      2  O   UNL     1      -5.223  -8.332   8.604  0.00  0.00    -0.477 OA
ATOM     30  H   UNL     1      -4.545  -7.806   9.078  0.00  0.00    +0.295 HD
ENDBRANCH  27   2
ENDBRANCH  21  27
ENDBRANCH  12  14
ENDBRANCH   4  12
TORSDOF 7
ENDMDL
MODEL 5
REMARK VINA RESULT:      -7.1      4.536     12.321
REMARK  Name = 51137521
REMARK  9 active torsions:
REMARK  status: ('A' for Active; 'I' for Inactive)
REMARK    1  A    between atoms: O_2  and  C_27
REMARK    2  A    between atoms: N_4  and  C_12
REMARK    3  A    between atoms: N_7  and  C_24
REMARK    4  A    between atoms: N_7  and  C_28
REMARK    5  A    between atoms: N_7  and  C_29
REMARK    6  A    between atoms: C_8  and  C_13
REMARK    7  A    between atoms: C_12  and  C_14
REMARK    8  A    between atoms: C_15  and  C_18
REMARK    9  A    between atoms: C_21  and  C_27
REMARK                            x       y       z     vdW  Elec       q    Type
REMARK                         _______ _______ _______ _____ _____    ______ ____
ROOT
ATOM      4  N   UNL     1      18.048   7.789  21.616  0.00  0.00    -0.297 NA
ATOM      8  C   UNL     1      19.790   6.329  22.191  0.00  0.00    +0.092 C 
ATOM      9  C   UNL     1      20.077   7.725  22.770  0.00  0.00    +0.029 C 
ATOM     10  C   UNL     1      18.690   6.560  21.146  0.00  0.00    +0.097 C 
ATOM     11  C   UNL     1      19.152   8.665  22.008  0.00  0.00    +0.085 C 
ENDROOT
BRANCH   8  13
ATOM      1  O   UNL     1      21.472   4.554  22.337  0.00  0.00    -0.420 OA
ATOM      5  N   UNL     1      21.679   5.861  20.533  0.00  0.00    -0.112 NA
ATOM      6  N   UNL     1      22.682   4.911  20.489  0.00  0.00    -0.107 NA
ATOM     13  C   UNL     1      20.997   5.615  21.627  0.00  0.00    +0.222 A 
ATOM     15  C   UNL     1      22.523   4.171  21.562  0.00  0.00    +0.248 A 
BRANCH  15  18
ATOM     18  C   UNL     1      23.270   3.041  22.033  0.00  0.00    +0.039 A 
ATOM     22  C   UNL     1      23.473   2.862  23.402  0.00  0.00    +0.015 A 
ATOM     23  C   UNL     1      23.791   2.122  21.124  0.00  0.00    +0.015 A 
ATOM     24  C   UNL     1      24.721   0.842  22.950  0.00  0.00    +0.029 A 
ATOM     25  C   UNL     1      24.200   1.762  23.860  0.00  0.00    +0.024 A 
ATOM     26  C   UNL     1      24.517   1.022  21.582  0.00  0.00    +0.024 A 
BRANCH  24   7
ATOM      7  N   UNL     1      25.456  -0.269  23.414  0.00  0.00    -0.336 N 
ATOM     28  C   UNL     1      26.376  -0.960  22.532  0.00  0.00    +0.129 C 
ATOM     29  C   UNL     1      25.295  -0.738  24.776  0.00  0.00    +0.129 C 
ENDBRANCH  24   7
ENDBRANCH  15  18
ENDBRANCH   8  13
BRANCH   4  12
ATOM     12  C   UNL     1      17.195   8.393  20.602  0.00  0.00    +0.119 C 
BRANCH  12  14
ATOM     14  C   UNL     1      15.766   7.938  20.728  0.00  0.00    -0.033 A 
ATOM     16  C   UNL     1      15.067   8.154  21.915  0.00  0.00    +0.006 A 
ATOM     17  C   UNL     1      15.141   7.300  19.656  0.00  0.00    +0.006 A 
ATOM     19  C   UNL     1      13.743   7.732  22.032  0.00  0.00    +0.015 A 
ATOM     20  C   UNL     1      13.816   6.878  19.773  0.00  0.00    +0.015 A 
ATOM     21  C   UNL     1      13.117   7.094  20.961  0.00  0.00    +0.059 A 
BRANCH  21  27
ATOM      3  O   UNL     1      10.744   7.312  20.751  0.00  0.00    -0.245 OA
ATOM     27  C   UNL     1      11.736   6.655  21.082  0.00  0.00    +0.337 C 
BRANCH  27   2
ATOM      2  O   UNL     1      11.632   5.405  21.611  0.00  0.00    -0.477 OA
ATOM     30  H   UNL     1      10.808   4.955  21.326  0.00  0.00    +0.295 HD
ENDBRANCH  27   2
ENDBRANCH  21  27
ENDBRANCH  12  14
ENDBRANCH   4  12
TORSDOF 7
ENDMDL
MODEL 6
REMARK VINA RESULT:      -6.9     27.771     31.473
REMARK  Name = 51137521
REMARK  9 active torsions:
REMARK  status: ('A' for Active; 'I' for Inactive)
REMARK    1  A    between atoms: O_2  and  C_27
REMARK    2  A    between atoms: N_4  and  C_12
REMARK    3  A    between atoms: N_7  and  C_24
REMARK    4  A    between atoms: N_7  and  C_28
REMARK    5  A    between atoms: N_7  and  C_29
REMARK    6  A    between atoms: C_8  and  C_13
REMARK    7  A    between atoms: C_12  and  C_14
REMARK    8  A    between atoms: C_15  and  C_18
REMARK    9  A    between atoms: C_21  and  C_27
REMARK                            x       y       z     vdW  Elec       q    Type
REMARK                         _______ _______ _______ _____ _____    ______ ____
ROOT
ATOM      4  N   UNL     1     -16.291   2.286  28.706  0.00  0.00    -0.297 NA
ATOM      8  C   UNL     1     -16.910   3.206  26.640  0.00  0.00    +0.092 C 
ATOM      9  C   UNL     1     -17.886   2.076  27.013  0.00  0.00    +0.029 C 
ATOM     10  C   UNL     1     -15.707   3.004  27.571  0.00  0.00    +0.097 C 
ATOM     11  C   UNL     1     -17.176   1.287  28.105  0.00  0.00    +0.085 C 
ENDROOT
BRANCH   8  13
ATOM      1  O   UNL     1     -15.777   4.318  24.775  0.00  0.00    -0.420 OA
ATOM      5  N   UNL     1     -16.799   2.410  24.213  0.00  0.00    -0.112 NA
ATOM      6  N   UNL     1     -16.205   2.927  23.077  0.00  0.00    -0.107 NA
ATOM     13  C   UNL     1     -16.523   3.254  25.179  0.00  0.00    +0.222 A 
ATOM     15  C   UNL     1     -15.621   4.041  23.452  0.00  0.00    +0.248 A 
BRANCH  15  18
ATOM     18  C   UNL     1     -14.857   4.992  22.698  0.00  0.00    +0.039 A 
ATOM     22  C   UNL     1     -15.501   6.046  22.049  0.00  0.00    +0.015 A 
ATOM     23  C   UNL     1     -13.471   4.865  22.616  0.00  0.00    +0.015 A 
ATOM     24  C   UNL     1     -13.371   6.843  21.232  0.00  0.00    +0.029 A 
ATOM     25  C   UNL     1     -14.758   6.971  21.315  0.00  0.00    +0.024 A 
ATOM     26  C   UNL     1     -12.728   5.790  21.883  0.00  0.00    +0.024 A 
BRANCH  24   7
ATOM      7  N   UNL     1     -12.620   7.779  20.490  0.00  0.00    -0.336 N 
ATOM     28  C   UNL     1     -11.656   7.329  19.505  0.00  0.00    +0.129 C 
ATOM     29  C   UNL     1     -12.797   9.200  20.709  0.00  0.00    +0.129 C 
ENDBRANCH  24   7
ENDBRANCH  15  18
ENDBRANCH   8  13
BRANCH   4  12
ATOM     12  C   UNL     1     -15.280   1.685  29.563  0.00  0.00    +0.119 C 
BRANCH  12  14
ATOM     14  C   UNL     1     -15.024   2.513  30.794  0.00  0.00    -0.033 A 
ATOM     16  C   UNL     1     -16.070   3.212  31.395  0.00  0.00    +0.006 A 
ATOM     17  C   UNL     1     -13.739   2.582  31.333  0.00  0.00    +0.006 A 
ATOM     19  C   UNL     1     -15.833   3.980  32.535  0.00  0.00    +0.015 A 
ATOM     20  C   UNL     1     -13.502   3.350  32.473  0.00  0.00    +0.015 A 
ATOM     21  C   UNL     1     -14.549   4.048  33.074  0.00  0.00    +0.059 A 
BRANCH  21  27
ATOM      3  O   UNL     1     -13.884   6.011  34.270  0.00  0.00    -0.245 OA
ATOM     27  C   UNL     1     -14.301   4.848  34.263  0.00  0.00    +0.337 C 
BRANCH  27   2
ATOM      2  O   UNL     1     -14.582   4.174  35.412  0.00  0.00    -0.477 OA
ATOM     30  H   UNL     1     -13.816   3.647  35.723  0.00  0.00    +0.295 HD
ENDBRANCH  27   2
ENDBRANCH  21  27
ENDBRANCH  12  14
ENDBRANCH   4  12
TORSDOF 7
ENDMDL
MODEL 7
REMARK VINA RESULT:      -6.9     27.766     30.169
REMARK  Name = 51137521
REMARK  9 active torsions:
REMARK  status: ('A' for Active; 'I' for Inactive)
REMARK    1  A    between atoms: O_2  and  C_27
REMARK    2  A    between atoms: N_4  and  C_12
REMARK    3  A    between atoms: N_7  and  C_24
REMARK    4  A    between atoms: N_7  and  C_28
REMARK    5  A    between atoms: N_7  and  C_29
REMARK    6  A    between atoms: C_8  and  C_13
REMARK    7  A    between atoms: C_12  and  C_14
REMARK    8  A    between atoms: C_15  and  C_18
REMARK    9  A    between atoms: C_21  and  C_27
REMARK                            x       y       z     vdW  Elec       q    Type
REMARK                         _______ _______ _______ _____ _____    ______ ____
ROOT
ATOM      4  N   UNL     1      -2.924 -11.406  15.113  0.00  0.00    -0.297 NA
ATOM      8  C   UNL     1      -3.312 -11.427  12.800  0.00  0.00    +0.092 C 
ATOM      9  C   UNL     1      -1.939 -12.054  13.098  0.00  0.00    +0.029 C 
ATOM     10  C   UNL     1      -3.689 -10.688  14.092  0.00  0.00    +0.097 C 
ATOM     11  C   UNL     1      -1.605 -11.616  14.518  0.00  0.00    +0.085 C 
ENDROOT
BRANCH   8  13
ATOM      1  O   UNL     1      -4.531 -10.479  10.899  0.00  0.00    -0.420 OA
ATOM      5  N   UNL     1      -2.408  -9.792  11.055  0.00  0.00    -0.112 NA
ATOM      6  N   UNL     1      -2.973  -9.185   9.949  0.00  0.00    -0.107 NA
ATOM     13  C   UNL     1      -3.353 -10.537  11.579  0.00  0.00    +0.222 A 
ATOM     15  C   UNL     1      -4.212  -9.616   9.897  0.00  0.00    +0.248 A 
BRANCH  15  18
ATOM     18  C   UNL     1      -5.262  -9.321   8.965  0.00  0.00    +0.039 A 
ATOM     22  C   UNL     1      -5.263  -9.919   7.705  0.00  0.00    +0.015 A 
ATOM     23  C   UNL     1      -6.281  -8.439   9.320  0.00  0.00    +0.015 A 
ATOM     24  C   UNL     1      -7.304  -8.749   7.153  0.00  0.00    +0.029 A 
ATOM     25  C   UNL     1      -6.284  -9.632   6.798  0.00  0.00    +0.024 A 
ATOM     26  C   UNL     1      -7.303  -8.153   8.414  0.00  0.00    +0.024 A 
BRANCH  24   7
ATOM      7  N   UNL     1      -8.337  -8.459   6.236  0.00  0.00    -0.336 N 
ATOM     28  C   UNL     1      -8.726  -9.435   5.238  0.00  0.00    +0.129 C 
ATOM     29  C   UNL     1      -9.014  -7.179   6.277  0.00  0.00    +0.129 C 
ENDBRANCH  24   7
ENDBRANCH  15  18
ENDBRANCH   8  13
BRANCH   4  12
ATOM     12  C   UNL     1      -2.855 -10.676  16.370  0.00  0.00    +0.119 C 
BRANCH  12  14
ATOM     14  C   UNL     1      -4.071 -10.914  17.225  0.00  0.00    -0.033 A 
ATOM     16  C   UNL     1      -5.273 -10.277  16.920  0.00  0.00    +0.006 A 
ATOM     17  C   UNL     1      -3.994 -11.772  18.322  0.00  0.00    +0.006 A 
ATOM     19  C   UNL     1      -6.400 -10.497  17.712  0.00  0.00    +0.015 A 
ATOM     20  C   UNL     1      -5.121 -11.992  19.114  0.00  0.00    +0.015 A 
ATOM     21  C   UNL     1      -6.324 -11.355  18.809  0.00  0.00    +0.059 A 
BRANCH  21  27
ATOM      3  O   UNL     1      -7.937 -12.693  19.963  0.00  0.00    -0.245 OA
ATOM     27  C   UNL     1      -7.499 -11.586  19.635  0.00  0.00    +0.337 C 
BRANCH  27   2
ATOM      2  O   UNL     1      -8.094 -10.427  20.029  0.00  0.00    -0.477 OA
ATOM     30  H   UNL     1      -7.471  -9.842  20.511  0.00  0.00    +0.295 HD
ENDBRANCH  27   2
ENDBRANCH  21  27
ENDBRANCH  12  14
ENDBRANCH   4  12
TORSDOF 7
ENDMDL
MODEL 8
REMARK VINA RESULT:      -6.8      2.883     10.772
REMARK  Name = 51137521
REMARK  9 active torsions:
REMARK  status: ('A' for Active; 'I' for Inactive)
REMARK    1  A    between atoms: O_2  and  C_27
REMARK    2  A    between atoms: N_4  and  C_12
REMARK    3  A    between atoms: N_7  and  C_24
REMARK    4  A    between atoms: N_7  and  C_28
REMARK    5  A    between atoms: N_7  and  C_29
REMARK    6  A    between atoms: C_8  and  C_13
REMARK    7  A    between atoms: C_12  and  C_14
REMARK    8  A    between atoms: C_15  and  C_18
REMARK    9  A    between atoms: C_21  and  C_27
REMARK                            x       y       z     vdW  Elec       q    Type
REMARK                         _______ _______ _______ _____ _____    ______ ____
ROOT
ATOM      4  N   UNL     1      13.622   8.174  19.343  0.00  0.00    -0.297 NA
ATOM      8  C   UNL     1      15.694   7.169  19.782  0.00  0.00    +0.092 C 
ATOM      9  C   UNL     1      14.628   6.582  20.723  0.00  0.00    +0.029 C 
ATOM     10  C   UNL     1      15.055   8.447  19.220  0.00  0.00    +0.097 C 
ATOM     11  C   UNL     1      13.466   7.564  20.663  0.00  0.00    +0.085 C 
ENDROOT
BRANCH   8  13
ATOM      1  O   UNL     1      18.042   6.551  20.109  0.00  0.00    -0.420 OA
ATOM      5  N   UNL     1      17.407   8.361  21.260  0.00  0.00    -0.112 NA
ATOM      6  N   UNL     1      18.741   8.128  21.533  0.00  0.00    -0.107 NA
ATOM     13  C   UNL     1      17.040   7.418  20.424  0.00  0.00    +0.222 A 
ATOM     15  C   UNL     1      19.069   7.061  20.841  0.00  0.00    +0.248 A 
BRANCH  15  18
ATOM     18  C   UNL     1      20.319   6.366  20.738  0.00  0.00    +0.039 A 
ATOM     22  C   UNL     1      20.349   4.973  20.803  0.00  0.00    +0.015 A 
ATOM     23  C   UNL     1      21.503   7.082  20.569  0.00  0.00    +0.015 A 
ATOM     24  C   UNL     1      22.750   5.013  20.534  0.00  0.00    +0.029 A 
ATOM     25  C   UNL     1      21.565   4.296  20.703  0.00  0.00    +0.024 A 
ATOM     26  C   UNL     1      22.719   6.406  20.468  0.00  0.00    +0.024 A 
BRANCH  24   7
ATOM      7  N   UNL     1      23.979   4.328  20.433  0.00  0.00    -0.336 N 
ATOM     28  C   UNL     1      24.104   2.969  20.919  0.00  0.00    +0.129 C 
ATOM     29  C   UNL     1      25.135   4.980  19.849  0.00  0.00    +0.129 C 
ENDBRANCH  24   7
ENDBRANCH  15  18
ENDBRANCH   8  13
BRANCH   4  12
ATOM     12  C   UNL     1      12.813   9.375  19.189  0.00  0.00    +0.119 C 
BRANCH  12  14
ATOM     14  C   UNL     1      12.316   9.890  20.513  0.00  0.00    -0.033 A 
ATOM     16  C   UNL     1      11.233   9.274  21.139  0.00  0.00    +0.006 A 
ATOM     17  C   UNL     1      12.939  10.984  21.113  0.00  0.00    +0.006 A 
ATOM     19  C   UNL     1      10.773   9.751  22.366  0.00  0.00    +0.015 A 
ATOM     20  C   UNL     1      12.479  11.462  22.340  0.00  0.00    +0.015 A 
ATOM     21  C   UNL     1      11.395  10.845  22.968  0.00  0.00    +0.059 A 
BRANCH  21  27
ATOM      3  O   UNL     1      11.376  11.037  25.352  0.00  0.00    -0.245 OA
ATOM     27  C   UNL     1      10.916  11.342  24.247  0.00  0.00    +0.337 C 
BRANCH  27   2
ATOM      2  O   UNL     1       9.875  12.209  24.112  0.00  0.00    -0.477 OA
ATOM     30  H   UNL     1       9.590  12.294  23.178  0.00  0.00    +0.295 HD
ENDBRANCH  27   2
ENDBRANCH  21  27
ENDBRANCH  12  14
ENDBRANCH   4  12
TORSDOF 7
ENDMDL
MODEL 9
REMARK VINA RESULT:      -6.6     27.224     29.922
REMARK  Name = 51137521
REMARK  9 active torsions:
REMARK  status: ('A' for Active; 'I' for Inactive)
REMARK    1  A    between atoms: O_2  and  C_27
REMARK    2  A    between atoms: N_4  and  C_12
REMARK    3  A    between atoms: N_7  and  C_24
REMARK    4  A    between atoms: N_7  and  C_28
REMARK    5  A    between atoms: N_7  and  C_29
REMARK    6  A    between atoms: C_8  and  C_13
REMARK    7  A    between atoms: C_12  and  C_14
REMARK    8  A    between atoms: C_15  and  C_18
REMARK    9  A    between atoms: C_21  and  C_27
REMARK                            x       y       z     vdW  Elec       q    Type
REMARK                         _______ _______ _______ _____ _____    ______ ____
ROOT
ATOM      4  N   UNL     1     -13.579   7.355  33.682  0.00  0.00    -0.297 NA
ATOM      8  C   UNL     1     -11.870   8.710  32.819  0.00  0.00    +0.092 C 
ATOM      9  C   UNL     1     -12.385   9.309  34.140  0.00  0.00    +0.029 C 
ATOM     10  C   UNL     1     -12.947   7.698  32.406  0.00  0.00    +0.097 C 
ATOM     11  C   UNL     1     -13.726   8.630  34.384  0.00  0.00    +0.085 C 
ENDROOT
BRANCH   8  13
ATOM      1  O   UNL     1     -12.029   9.445  30.488  0.00  0.00    -0.420 OA
ATOM      5  N   UNL     1     -10.911  10.857  31.815  0.00  0.00    -0.112 NA
ATOM      6  N   UNL     1     -10.925  11.390  30.540  0.00  0.00    -0.107 NA
ATOM     13  C   UNL     1     -11.567   9.722  31.738  0.00  0.00    +0.222 A 
ATOM     15  C   UNL     1     -11.587  10.531  29.799  0.00  0.00    +0.248 A 
BRANCH  15  18
ATOM     18  C   UNL     1     -11.912  10.564  28.403  0.00  0.00    +0.039 A 
ATOM     22  C   UNL     1     -13.247  10.615  27.999  0.00  0.00    +0.015 A 
ATOM     23  C   UNL     1     -10.895  10.546  27.449  0.00  0.00    +0.015 A 
ATOM     24  C   UNL     1     -12.546  10.628  25.687  0.00  0.00    +0.029 A 
ATOM     25  C   UNL     1     -13.563  10.646  26.641  0.00  0.00    +0.024 A 
ATOM     26  C   UNL     1     -11.212  10.578  26.091  0.00  0.00    +0.024 A 
BRANCH  24   7
ATOM      7  N   UNL     1     -12.866  10.660  24.313  0.00  0.00    -0.336 N 
ATOM     28  C   UNL     1     -12.068  11.443  23.392  0.00  0.00    +0.129 C 
ATOM     29  C   UNL     1     -14.003   9.915  23.808  0.00  0.00    +0.129 C 
ENDBRANCH  24   7
ENDBRANCH  15  18
ENDBRANCH   8  13
BRANCH   4  12
ATOM     12  C   UNL     1     -14.851   6.670  33.505  0.00  0.00    +0.119 C 
BRANCH  12  14
ATOM     14  C   UNL     1     -14.690   5.371  32.762  0.00  0.00    -0.033 A 
ATOM     16  C   UNL     1     -13.995   4.313  33.348  0.00  0.00    +0.006 A 
ATOM     17  C   UNL     1     -15.237   5.225  31.487  0.00  0.00    +0.006 A 
ATOM     19  C   UNL     1     -13.845   3.110  32.659  0.00  0.00    +0.015 A 
ATOM     20  C   UNL     1     -15.088   4.022  30.798  0.00  0.00    +0.015 A 
ATOM     21  C   UNL     1     -14.392   2.963  31.384  0.00  0.00    +0.059 A 
BRANCH  21  27
ATOM      3  O   UNL     1     -15.014   0.750  30.724  0.00  0.00    -0.245 OA
ATOM     27  C   UNL     1     -14.238   1.708  30.666  0.00  0.00    +0.337 C 
BRANCH  27   2
ATOM      2  O   UNL     1     -13.117   1.685  29.893  0.00  0.00    -0.477 OA
ATOM     30  H   UNL     1     -13.114   2.409  29.232  0.00  0.00    +0.295 HD
ENDBRANCH  27   2
ENDBRANCH  21  27
ENDBRANCH  12  14
ENDBRANCH   4  12
TORSDOF 7
ENDMDL
MODEL 10
REMARK VINA RESULT:      -6.6     27.355     29.576
REMARK  Name = 51137521
REMARK  9 active torsions:
REMARK  status: ('A' for Active; 'I' for Inactive)
REMARK    1  A    between atoms: O_2  and  C_27
REMARK    2  A    between atoms: N_4  and  C_12
REMARK    3  A    between atoms: N_7  and  C_24
REMARK    4  A    between atoms: N_7  and  C_28
REMARK    5  A    between atoms: N_7  and  C_29
REMARK    6  A    between atoms: C_8  and  C_13
REMARK    7  A    between atoms: C_12  and  C_14
REMARK    8  A    between atoms: C_15  and  C_18
REMARK    9  A    between atoms: C_21  and  C_27
REMARK                            x       y       z     vdW  Elec       q    Type
REMARK                         _______ _______ _______ _____ _____    ______ ____
ROOT
ATOM      4  N   UNL     1      -4.361 -11.913  16.951  0.00  0.00    -0.297 NA
ATOM      8  C   UNL     1      -5.865 -10.672  18.254  0.00  0.00    +0.092 C 
ATOM      9  C   UNL     1      -5.138 -11.697  19.142  0.00  0.00    +0.029 C 
ATOM     10  C   UNL     1      -5.602 -11.147  16.818  0.00  0.00    +0.097 C 
ATOM     11  C   UNL     1      -4.533 -12.702  18.171  0.00  0.00    +0.085 C 
ENDROOT
BRANCH   8  13
ATOM      1  O   UNL     1      -8.042  -9.680  17.730  0.00  0.00    -0.420 OA
ATOM      5  N   UNL     1      -8.060 -11.026  19.517  0.00  0.00    -0.112 NA
ATOM      6  N   UNL     1      -9.341 -10.540  19.336  0.00  0.00    -0.107 NA
ATOM     13  C   UNL     1      -7.336 -10.499  18.557  0.00  0.00    +0.222 A 
ATOM     15  C   UNL     1      -9.283  -9.758  18.283  0.00  0.00    +0.248 A 
BRANCH  15  18
ATOM     18  C   UNL     1     -10.307  -8.990  17.636  0.00  0.00    +0.039 A 
ATOM     22  C   UNL     1     -11.601  -9.500  17.534  0.00  0.00    +0.015 A 
ATOM     23  C   UNL     1     -10.009  -7.732  17.112  0.00  0.00    +0.015 A 
ATOM     24  C   UNL     1     -12.300  -7.495  16.381  0.00  0.00    +0.029 A 
ATOM     25  C   UNL     1     -12.598  -8.753  16.905  0.00  0.00    +0.024 A 
ATOM     26  C   UNL     1     -11.006  -6.985  16.484  0.00  0.00    +0.024 A 
BRANCH  24   7
ATOM      7  N   UNL     1     -13.308  -6.740  15.744  0.00  0.00    -0.336 N 
ATOM     28  C   UNL     1     -12.965  -5.786  14.708  0.00  0.00    +0.129 C 
ATOM     29  C   UNL     1     -14.697  -6.903  16.125  0.00  0.00    +0.129 C 
ENDBRANCH  24   7
ENDBRANCH  15  18
ENDBRANCH   8  13
BRANCH   4  12
ATOM     12  C   UNL     1      -4.094 -12.745  15.787  0.00  0.00    +0.119 C 
BRANCH  12  14
ATOM     14  C   UNL     1      -3.515 -11.948  14.649  0.00  0.00    -0.033 A 
ATOM     16  C   UNL     1      -4.045 -12.078  13.366  0.00  0.00    +0.006 A 
ATOM     17  C   UNL     1      -2.448 -11.079  14.879  0.00  0.00    +0.006 A 
ATOM     19  C   UNL     1      -3.508 -11.340  12.311  0.00  0.00    +0.015 A 
ATOM     20  C   UNL     1      -1.911 -10.341  13.824  0.00  0.00    +0.015 A 
ATOM     21  C   UNL     1      -2.442 -10.471  12.540  0.00  0.00    +0.059 A 
BRANCH  21  27
ATOM      3  O   UNL     1      -0.752  -9.203  11.417  0.00  0.00    -0.245 OA
ATOM     27  C   UNL     1      -1.882  -9.700  11.441  0.00  0.00    +0.337 C 
BRANCH  27   2
ATOM      2  O   UNL     1      -2.750  -9.572  10.400  0.00  0.00    -0.477 OA
ATOM     30  H   UNL     1      -3.445  -8.905  10.583  0.00  0.00    +0.295 HD
ENDBRANCH  27   2
ENDBRANCH  21  27
ENDBRANCH  12  14
ENDBRANCH   4  12
TORSDOF 7
ENDMDL
