MODEL 1
REMARK VINA RESULT:      -7.2      0.000      0.000
REMARK  Name = 45784340
REMARK  3 active torsions:
REMARK  status: ('A' for Active; 'I' for Inactive)
REMARK    1  A    between atoms: N_5  and  C_11
REMARK    2  A    between atoms: C_7  and  C_12
REMARK    3  A    between atoms: C_11  and  C_13
REMARK                            x       y       z     vdW  Elec       q    Type
REMARK                         _______ _______ _______ _____ _____    ______ ____
ROOT
ATOM      5  N   UNL     1      12.082   9.617  21.250  0.00  0.00    -0.297 NA
ATOM      7  C   UNL     1      14.020   9.084  20.042  0.00  0.00    +0.090 C 
ATOM      8  C   UNL     1      12.802   8.406  19.389  0.00  0.00    +0.029 C 
ATOM      9  C   UNL     1      13.530   9.502  21.435  0.00  0.00    +0.097 C 
ATOM     10  C   UNL     1      11.710   8.452  20.449  0.00  0.00    +0.085 C 
ENDROOT
BRANCH   7  12
ATOM      2  F   UNL     1      19.760   4.703  19.772  0.00  0.00    -0.205 F 
ATOM      4  O   UNL     1      16.179   8.568  21.047  0.00  0.00    -0.439 OA
ATOM      6  N   UNL     1      15.597   7.219  19.321  0.00  0.00    -0.213 NA
ATOM     12  C   UNL     1      15.270   8.236  20.087  0.00  0.00    +0.201 A 
ATOM     14  C   UNL     1      16.824   6.839  19.806  0.00  0.00    +0.112 A 
ATOM     15  C   UNL     1      17.184   7.662  20.864  0.00  0.00    +0.156 A 
ATOM     18  C   UNL     1      17.700   5.814  19.418  0.00  0.00    +0.070 A 
ATOM     19  C   UNL     1      18.367   7.554  21.584  0.00  0.00    +0.051 A 
ATOM     22  C   UNL     1      18.904   5.673  20.121  0.00  0.00    +0.126 A 
ATOM     23  C   UNL     1      19.228   6.528  21.183  0.00  0.00    +0.042 A 
ENDBRANCH   7  12
BRANCH   5  11
ATOM     11  C   UNL     1      11.364   9.673  22.515  0.00  0.00    +0.119 C 
BRANCH  11  13
ATOM      1  F   UNL     1      10.345  12.981  25.956  0.00  0.00    -0.202 F 
ATOM      3  F   UNL     1      10.286  14.976  24.087  0.00  0.00    -0.202 F 
ATOM     13  C   UNL     1      11.077  11.090  22.934  0.00  0.00    -0.030 A 
ATOM     16  C   UNL     1      10.839  11.385  24.277  0.00  0.00    +0.046 A 
ATOM     17  C   UNL     1      11.047  12.108  21.981  0.00  0.00    +0.008 A 
ATOM     20  C   UNL     1      10.572  12.698  24.667  0.00  0.00    +0.159 A 
ATOM     21  C   UNL     1      10.780  13.421  22.370  0.00  0.00    +0.041 A 
ATOM     24  C   UNL     1      10.543  13.715  23.713  0.00  0.00    +0.158 A 
ENDBRANCH  11  13
ENDBRANCH   5  11
TORSDOF 3
ENDMDL
MODEL 2
REMARK VINA RESULT:      -7.0     27.329     29.511
REMARK  Name = 45784340
REMARK  3 active torsions:
REMARK  status: ('A' for Active; 'I' for Inactive)
REMARK    1  A    between atoms: N_5  and  C_11
REMARK    2  A    between atoms: C_7  and  C_12
REMARK    3  A    between atoms: C_11  and  C_13
REMARK                            x       y       z     vdW  Elec       q    Type
REMARK                         _______ _______ _______ _____ _____    ______ ____
ROOT
ATOM      5  N   UNL     1      -2.206 -10.963  13.724  0.00  0.00    -0.297 NA
ATOM      7  C   UNL     1      -3.369 -10.295  15.649  0.00  0.00    +0.090 C 
ATOM      8  C   UNL     1      -1.950 -10.748  16.035  0.00  0.00    +0.029 C 
ATOM      9  C   UNL     1      -3.576 -10.837  14.227  0.00  0.00    +0.097 C 
ATOM     10  C   UNL     1      -1.448 -11.538  14.834  0.00  0.00    +0.085 C 
ENDROOT
BRANCH   7  12
ATOM      2  F   UNL     1      -8.215 -12.862  20.354  0.00  0.00    -0.205 F 
ATOM      4  O   UNL     1      -5.524  -9.884  16.710  0.00  0.00    -0.439 OA
ATOM      6  N   UNL     1      -4.507 -11.804  17.355  0.00  0.00    -0.213 NA
ATOM     12  C   UNL     1      -4.456 -10.724  16.607  0.00  0.00    +0.201 A 
ATOM     14  C   UNL     1      -5.705 -11.677  18.014  0.00  0.00    +0.112 A 
ATOM     15  C   UNL     1      -6.331 -10.502  17.621  0.00  0.00    +0.156 A 
ATOM     18  C   UNL     1      -6.340 -12.501  18.954  0.00  0.00    +0.070 A 
ATOM     19  C   UNL     1      -7.562 -10.065  18.094  0.00  0.00    +0.051 A 
ATOM     22  C   UNL     1      -7.584 -12.094  19.455  0.00  0.00    +0.126 A 
ATOM     23  C   UNL     1      -8.181 -10.899  19.031  0.00  0.00    +0.042 A 
ENDBRANCH   7  12
BRANCH   5  11
ATOM     11  C   UNL     1      -2.131 -11.775  12.520  0.00  0.00    +0.119 C 
BRANCH  11  13
ATOM      1  F   UNL     1      -5.171 -11.932   8.705  0.00  0.00    -0.202 F 
ATOM      3  F   UNL     1      -4.685  -9.299   8.149  0.00  0.00    -0.202 F 
ATOM     13  C   UNL     1      -2.813 -11.113  11.353  0.00  0.00    -0.030 A 
ATOM     16  C   UNL     1      -3.693 -11.844  10.553  0.00  0.00    +0.046 A 
ATOM     17  C   UNL     1      -2.565  -9.770  11.069  0.00  0.00    +0.008 A 
ATOM     20  C   UNL     1      -4.326 -11.231   9.471  0.00  0.00    +0.159 A 
ATOM     21  C   UNL     1      -3.198  -9.157   9.987  0.00  0.00    +0.041 A 
ATOM     24  C   UNL     1      -4.078  -9.888   9.189  0.00  0.00    +0.158 A 
ENDBRANCH  11  13
ENDBRANCH   5  11
TORSDOF 3
ENDMDL
MODEL 3
REMARK VINA RESULT:      -7.0      1.528      8.788
REMARK  Name = 45784340
REMARK  3 active torsions:
REMARK  status: ('A' for Active; 'I' for Inactive)
REMARK    1  A    between atoms: N_5  and  C_11
REMARK    2  A    between atoms: C_7  and  C_12
REMARK    3  A    between atoms: C_11  and  C_13
REMARK                            x       y       z     vdW  Elec       q    Type
REMARK                         _______ _______ _______ _____ _____    ______ ____
ROOT
ATOM      5  N   UNL     1      13.589   7.700  20.034  0.00  0.00    -0.297 NA
ATOM      7  C   UNL     1      12.243   8.667  21.695  0.00  0.00    +0.090 C 
ATOM      8  C   UNL     1      11.352   7.993  20.637  0.00  0.00    +0.029 C 
ATOM      9  C   UNL     1      13.622   8.775  21.029  0.00  0.00    +0.097 C 
ATOM     10  C   UNL     1      12.259   7.786  19.431  0.00  0.00    +0.085 C 
ENDROOT
BRANCH   7  12
ATOM      2  F   UNL     1       9.724  14.733  24.706  0.00  0.00    -0.205 F 
ATOM      4  O   UNL     1      11.672  11.001  21.292  0.00  0.00    -0.439 OA
ATOM      6  N   UNL     1      11.331  10.303  23.421  0.00  0.00    -0.213 NA
ATOM     12  C   UNL     1      11.730   9.993  22.207  0.00  0.00    +0.201 A 
ATOM     14  C   UNL     1      10.978  11.625  23.310  0.00  0.00    +0.112 A 
ATOM     15  C   UNL     1      11.185  12.056  22.007  0.00  0.00    +0.156 A 
ATOM     18  C   UNL     1      10.475  12.534  24.252  0.00  0.00    +0.070 A 
ATOM     19  C   UNL     1      10.930  13.343  21.549  0.00  0.00    +0.051 A 
ATOM     22  C   UNL     1      10.205  13.843  23.828  0.00  0.00    +0.126 A 
ATOM     23  C   UNL     1      10.430  14.236  22.502  0.00  0.00    +0.042 A 
ENDBRANCH   7  12
BRANCH   5  11
ATOM     11  C   UNL     1      14.653   7.823  19.050  0.00  0.00    +0.119 C 
BRANCH  11  13
ATOM      1  F   UNL     1      18.452   4.765  19.249  0.00  0.00    -0.202 F 
ATOM      3  F   UNL     1      19.651   6.305  21.165  0.00  0.00    -0.202 F 
ATOM     13  C   UNL     1      15.988   7.418  19.615  0.00  0.00    -0.030 A 
ATOM     16  C   UNL     1      16.614   6.256  19.162  0.00  0.00    +0.046 A 
ATOM     17  C   UNL     1      16.600   8.204  20.592  0.00  0.00    +0.008 A 
ATOM     20  C   UNL     1      17.852   5.880  19.685  0.00  0.00    +0.159 A 
ATOM     21  C   UNL     1      17.838   7.828  21.115  0.00  0.00    +0.041 A 
ATOM     24  C   UNL     1      18.463   6.667  20.661  0.00  0.00    +0.158 A 
ENDBRANCH  11  13
ENDBRANCH   5  11
TORSDOF 3
ENDMDL
MODEL 4
REMARK VINA RESULT:      -6.9     27.739     29.972
REMARK  Name = 45784340
REMARK  3 active torsions:
REMARK  status: ('A' for Active; 'I' for Inactive)
REMARK    1  A    between atoms: N_5  and  C_11
REMARK    2  A    between atoms: C_7  and  C_12
REMARK    3  A    between atoms: C_11  and  C_13
REMARK                            x       y       z     vdW  Elec       q    Type
REMARK                         _______ _______ _______ _____ _____    ______ ____
ROOT
ATOM      5  N   UNL     1      -4.204 -10.774  14.757  0.00  0.00    -0.297 NA
ATOM      7  C   UNL     1      -5.536  -9.696  16.359  0.00  0.00    +0.090 C 
ATOM      8  C   UNL     1      -4.451 -10.528  17.066  0.00  0.00    +0.029 C 
ATOM      9  C   UNL     1      -5.552 -10.224  14.917  0.00  0.00    +0.097 C 
ATOM     10  C   UNL     1      -3.939 -11.492  16.003  0.00  0.00    +0.085 C 
ENDROOT
BRANCH   7  12
ATOM      2  F   UNL     1     -12.223  -9.447  19.085  0.00  0.00    -0.205 F 
ATOM      4  O   UNL     1      -7.027 -10.602  18.059  0.00  0.00    -0.439 OA
ATOM      6  N   UNL     1      -7.972  -9.043  16.713  0.00  0.00    -0.213 NA
ATOM     12  C   UNL     1      -6.896  -9.736  17.016  0.00  0.00    +0.201 A 
ATOM     14  C   UNL     1      -8.898  -9.481  17.627  0.00  0.00    +0.112 A 
ATOM     15  C   UNL     1      -8.323 -10.436  18.454  0.00  0.00    +0.156 A 
ATOM     18  C   UNL     1     -10.240  -9.129  17.831  0.00  0.00    +0.070 A 
ATOM     19  C   UNL     1      -8.982 -11.087  19.489  0.00  0.00    +0.051 A 
ATOM     22  C   UNL     1     -10.939  -9.764  18.867  0.00  0.00    +0.126 A 
ATOM     23  C   UNL     1     -10.320 -10.724  19.678  0.00  0.00    +0.042 A 
ENDBRANCH   7  12
BRANCH   5  11
ATOM     11  C   UNL     1      -4.091 -11.633  13.588  0.00  0.00    +0.119 C 
BRANCH  11  13
ATOM      1  F   UNL     1      -1.451  -8.951  10.480  0.00  0.00    -0.202 F 
ATOM      3  F   UNL     1      -3.612  -8.649   8.831  0.00  0.00    -0.202 F 
ATOM     13  C   UNL     1      -3.963 -10.836  12.317  0.00  0.00    -0.030 A 
ATOM     16  C   UNL     1      -2.742 -10.251  11.981  0.00  0.00    +0.046 A 
ATOM     17  C   UNL     1      -5.066 -10.682  11.476  0.00  0.00    +0.008 A 
ATOM     20  C   UNL     1      -2.623  -9.512  10.803  0.00  0.00    +0.159 A 
ATOM     21  C   UNL     1      -4.947  -9.944  10.298  0.00  0.00    +0.041 A 
ATOM     24  C   UNL     1      -3.726  -9.359   9.962  0.00  0.00    +0.158 A 
ENDBRANCH  11  13
ENDBRANCH   5  11
TORSDOF 3
ENDMDL
MODEL 5
REMARK VINA RESULT:      -6.8     26.094     29.013
REMARK  Name = 45784340
REMARK  3 active torsions:
REMARK  status: ('A' for Active; 'I' for Inactive)
REMARK    1  A    between atoms: N_5  and  C_11
REMARK    2  A    between atoms: C_7  and  C_12
REMARK    3  A    between atoms: C_11  and  C_13
REMARK                            x       y       z     vdW  Elec       q    Type
REMARK                         _______ _______ _______ _____ _____    ______ ____
ROOT
ATOM      5  N   UNL     1     -13.243   6.965  20.908  0.00  0.00    -0.297 NA
ATOM      7  C   UNL     1     -14.957   5.511  21.583  0.00  0.00    +0.090 C 
ATOM      8  C   UNL     1     -15.487   6.957  21.557  0.00  0.00    +0.029 C 
ATOM      9  C   UNL     1     -13.429   5.658  21.543  0.00  0.00    +0.097 C 
ATOM     10  C   UNL     1     -14.241   7.832  21.533  0.00  0.00    +0.085 C 
ENDROOT
BRANCH   7  12
ATOM      2  F   UNL     1     -16.899   1.894  27.528  0.00  0.00    -0.205 F 
ATOM      4  O   UNL     1     -16.312   3.679  22.444  0.00  0.00    -0.439 OA
ATOM      6  N   UNL     1     -15.125   4.794  24.020  0.00  0.00    -0.213 NA
ATOM     12  C   UNL     1     -15.439   4.679  22.748  0.00  0.00    +0.201 A 
ATOM     14  C   UNL     1     -15.848   3.789  24.615  0.00  0.00    +0.112 A 
ATOM     15  C   UNL     1     -16.576   3.104  23.653  0.00  0.00    +0.156 A 
ATOM     18  C   UNL     1     -15.948   3.385  25.955  0.00  0.00    +0.070 A 
ATOM     19  C   UNL     1     -17.415   2.027  23.913  0.00  0.00    +0.051 A 
ATOM     22  C   UNL     1     -16.785   2.302  26.257  0.00  0.00    +0.126 A 
ATOM     23  C   UNL     1     -17.503   1.638  25.254  0.00  0.00    +0.042 A 
ENDBRANCH   7  12
BRANCH   5  11
ATOM     11  C   UNL     1     -11.890   7.472  21.069  0.00  0.00    +0.119 C 
BRANCH  11  13
ATOM      1  F   UNL     1      -9.910  11.141  18.530  0.00  0.00    -0.202 F 
ATOM      3  F   UNL     1      -9.866   9.611  16.264  0.00  0.00    -0.202 F 
ATOM     13  C   UNL     1     -11.349   8.043  19.785  0.00  0.00    -0.030 A 
ATOM     16  C   UNL     1     -10.871   9.354  19.751  0.00  0.00    +0.046 A 
ATOM     17  C   UNL     1     -11.326   7.263  18.629  0.00  0.00    +0.008 A 
ATOM     20  C   UNL     1     -10.369   9.883  18.562  0.00  0.00    +0.159 A 
ATOM     21  C   UNL     1     -10.824   7.792  17.439  0.00  0.00    +0.041 A 
ATOM     24  C   UNL     1     -10.346   9.102  17.407  0.00  0.00    +0.158 A 
ENDBRANCH  11  13
ENDBRANCH   5  11
TORSDOF 3
ENDMDL
MODEL 6
REMARK VINA RESULT:      -6.8     17.979     21.237
REMARK  Name = 45784340
REMARK  3 active torsions:
REMARK  status: ('A' for Active; 'I' for Inactive)
REMARK    1  A    between atoms: N_5  and  C_11
REMARK    2  A    between atoms: C_7  and  C_12
REMARK    3  A    between atoms: C_11  and  C_13
REMARK                            x       y       z     vdW  Elec       q    Type
REMARK                         _______ _______ _______ _____ _____    ______ ____
ROOT
ATOM      5  N   UNL     1      11.796   4.538   1.623  0.00  0.00    -0.297 NA
ATOM      7  C   UNL     1      10.210   5.070   3.268  0.00  0.00    +0.090 C 
ATOM      8  C   UNL     1      10.795   6.365   2.677  0.00  0.00    +0.029 C 
ATOM      9  C   UNL     1      11.184   3.968   2.826  0.00  0.00    +0.097 C 
ATOM     10  C   UNL     1      12.070   5.933   1.965  0.00  0.00    +0.085 C 
ENDROOT
BRANCH   7  12
ATOM      2  F   UNL     1       9.313   4.584  10.421  0.00  0.00    -0.205 F 
ATOM      4  O   UNL     1       9.613   6.296   5.287  0.00  0.00    -0.439 OA
ATOM      6  N   UNL     1      10.116   4.113   5.626  0.00  0.00    -0.213 NA
ATOM     12  C   UNL     1       9.991   5.096   4.763  0.00  0.00    +0.201 A 
ATOM     14  C   UNL     1       9.797   4.701   6.825  0.00  0.00    +0.112 A 
ATOM     15  C   UNL     1       9.488   6.039   6.622  0.00  0.00    +0.156 A 
ATOM     18  C   UNL     1       9.741   4.184   8.128  0.00  0.00    +0.070 A 
ATOM     19  C   UNL     1       9.121   6.928   7.624  0.00  0.00    +0.051 A 
ATOM     22  C   UNL     1       9.375   5.051   9.166  0.00  0.00    +0.126 A 
ATOM     23  C   UNL     1       9.072   6.395   8.917  0.00  0.00    +0.042 A 
ENDBRANCH   7  12
BRANCH   5  11
ATOM     11  C   UNL     1      12.995   3.820   1.219  0.00  0.00    +0.119 C 
BRANCH  11  13
ATOM      1  F   UNL     1      11.456   2.342  -3.171  0.00  0.00    -0.202 F 
ATOM      3  F   UNL     1      13.539   3.631  -4.387  0.00  0.00    -0.202 F 
ATOM     13  C   UNL     1      13.140   3.770  -0.279  0.00  0.00    -0.030 A 
ATOM     16  C   UNL     1      12.213   3.065  -1.046  0.00  0.00    +0.046 A 
ATOM     17  C   UNL     1      14.203   4.428  -0.899  0.00  0.00    +0.008 A 
ATOM     20  C   UNL     1      12.347   3.019  -2.435  0.00  0.00    +0.159 A 
ATOM     21  C   UNL     1      14.337   4.382  -2.288  0.00  0.00    +0.041 A 
ATOM     24  C   UNL     1      13.409   3.677  -3.054  0.00  0.00    +0.158 A 
ENDBRANCH  11  13
ENDBRANCH   5  11
TORSDOF 3
ENDMDL
MODEL 7
REMARK VINA RESULT:      -6.7     27.655     30.346
REMARK  Name = 45784340
REMARK  3 active torsions:
REMARK  status: ('A' for Active; 'I' for Inactive)
REMARK    1  A    between atoms: N_5  and  C_11
REMARK    2  A    between atoms: C_7  and  C_12
REMARK    3  A    between atoms: C_11  and  C_13
REMARK                            x       y       z     vdW  Elec       q    Type
REMARK                         _______ _______ _______ _____ _____    ______ ____
ROOT
ATOM      5  N   UNL     1      -4.712 -11.771  17.295  0.00  0.00    -0.297 NA
ATOM      7  C   UNL     1      -6.325 -10.590  18.522  0.00  0.00    +0.090 C 
ATOM      8  C   UNL     1      -5.555 -11.537  19.460  0.00  0.00    +0.029 C 
ATOM      9  C   UNL     1      -5.997 -11.092  17.109  0.00  0.00    +0.097 C 
ATOM     10  C   UNL     1      -4.864 -12.530  18.536  0.00  0.00    +0.085 C 
ENDROOT
BRANCH   7  12
ATOM      2  F   UNL     1     -13.330 -10.548  20.292  0.00  0.00    -0.205 F 
ATOM      4  O   UNL     1      -8.530  -9.761  17.900  0.00  0.00    -0.439 OA
ATOM      6  N   UNL     1      -8.501 -11.053  19.761  0.00  0.00    -0.213 NA
ATOM     12  C   UNL     1      -7.810 -10.504  18.787  0.00  0.00    +0.201 A 
ATOM     14  C   UNL     1      -9.787 -10.645  19.508  0.00  0.00    +0.112 A 
ATOM     15  C   UNL     1      -9.809  -9.853  18.368  0.00  0.00    +0.156 A 
ATOM     18  C   UNL     1     -10.991 -10.894  20.182  0.00  0.00    +0.070 A 
ATOM     19  C   UNL     1     -10.951  -9.273  17.829  0.00  0.00    +0.051 A 
ATOM     22  C   UNL     1     -12.165 -10.326  19.668  0.00  0.00    +0.126 A 
ATOM     23  C   UNL     1     -12.142  -9.532  18.515  0.00  0.00    +0.042 A 
ENDBRANCH   7  12
BRANCH   5  11
ATOM     11  C   UNL     1      -4.365 -12.619  16.165  0.00  0.00    +0.119 C 
BRANCH  11  13
ATOM      1  F   UNL     1      -0.882  -9.422  14.953  0.00  0.00    -0.202 F 
ATOM      3  F   UNL     1      -1.367  -9.829  12.293  0.00  0.00    -0.202 F 
ATOM     13  C   UNL     1      -3.564 -11.874  15.130  0.00  0.00    -0.030 A 
ATOM     16  C   UNL     1      -2.575 -10.975  15.529  0.00  0.00    +0.046 A 
ATOM     17  C   UNL     1      -3.812 -12.082  13.773  0.00  0.00    +0.008 A 
ATOM     20  C   UNL     1      -1.832 -10.284  14.570  0.00  0.00    +0.159 A 
ATOM     21  C   UNL     1      -3.069 -11.392  12.815  0.00  0.00    +0.041 A 
ATOM     24  C   UNL     1      -2.080 -10.493  13.214  0.00  0.00    +0.158 A 
ENDBRANCH  11  13
ENDBRANCH   5  11
TORSDOF 3
ENDMDL
MODEL 8
REMARK VINA RESULT:      -6.6     27.224     29.952
REMARK  Name = 45784340
REMARK  3 active torsions:
REMARK  status: ('A' for Active; 'I' for Inactive)
REMARK    1  A    between atoms: N_5  and  C_11
REMARK    2  A    between atoms: C_7  and  C_12
REMARK    3  A    between atoms: C_11  and  C_13
REMARK                            x       y       z     vdW  Elec       q    Type
REMARK                         _______ _______ _______ _____ _____    ______ ____
ROOT
ATOM      5  N   UNL     1      -4.406 -11.670  16.844  0.00  0.00    -0.297 NA
ATOM      7  C   UNL     1      -6.006 -10.268  17.832  0.00  0.00    +0.090 C 
ATOM      8  C   UNL     1      -5.564 -11.339  18.845  0.00  0.00    +0.029 C 
ATOM      9  C   UNL     1      -5.520 -10.794  16.474  0.00  0.00    +0.097 C 
ATOM     10  C   UNL     1      -4.884 -12.415  18.009  0.00  0.00    +0.085 C 
ENDROOT
BRANCH   7  12
ATOM      2  F   UNL     1     -13.144  -9.245  18.298  0.00  0.00    -0.205 F 
ATOM      4  O   UNL     1      -7.874  -8.897  17.078  0.00  0.00    -0.439 OA
ATOM      6  N   UNL     1      -8.445 -10.563  18.504  0.00  0.00    -0.213 NA
ATOM     12  C   UNL     1      -7.484  -9.952  17.846  0.00  0.00    +0.201 A 
ATOM     14  C   UNL     1      -9.569  -9.860  18.147  0.00  0.00    +0.112 A 
ATOM     15  C   UNL     1      -9.224  -8.838  17.274  0.00  0.00    +0.156 A 
ATOM     18  C   UNL     1     -10.915 -10.014  18.510  0.00  0.00    +0.070 A 
ATOM     19  C   UNL     1     -10.121  -7.935  16.717  0.00  0.00    +0.051 A 
ATOM     22  C   UNL     1     -11.850  -9.121  17.969  0.00  0.00    +0.126 A 
ATOM     23  C   UNL     1     -11.458  -8.103  17.091  0.00  0.00    +0.042 A 
ENDBRANCH   7  12
BRANCH   5  11
ATOM     11  C   UNL     1      -4.003 -12.545  15.754  0.00  0.00    +0.119 C 
BRANCH  11  13
ATOM      1  F   UNL     1      -0.800  -9.144  14.340  0.00  0.00    -0.202 F 
ATOM      3  F   UNL     1      -1.267  -9.731  11.710  0.00  0.00    -0.202 F 
ATOM     13  C   UNL     1      -3.272 -11.794  14.674  0.00  0.00    -0.030 A 
ATOM     16  C   UNL     1      -2.357 -10.797  15.014  0.00  0.00    +0.046 A 
ATOM     17  C   UNL     1      -3.510 -12.093  13.332  0.00  0.00    +0.008 A 
ATOM     20  C   UNL     1      -1.679 -10.100  14.013  0.00  0.00    +0.159 A 
ATOM     21  C   UNL     1      -2.832 -11.397  12.331  0.00  0.00    +0.041 A 
ATOM     24  C   UNL     1      -1.917 -10.401  12.672  0.00  0.00    +0.158 A 
ENDBRANCH  11  13
ENDBRANCH   5  11
TORSDOF 3
ENDMDL
MODEL 9
REMARK VINA RESULT:      -6.5     28.601     30.428
REMARK  Name = 45784340
REMARK  3 active torsions:
REMARK  status: ('A' for Active; 'I' for Inactive)
REMARK    1  A    between atoms: N_5  and  C_11
REMARK    2  A    between atoms: C_7  and  C_12
REMARK    3  A    between atoms: C_11  and  C_13
REMARK                            x       y       z     vdW  Elec       q    Type
REMARK                         _______ _______ _______ _____ _____    ______ ____
ROOT
ATOM      5  N   UNL     1     -11.807  -7.813  15.110  0.00  0.00    -0.297 NA
ATOM      7  C   UNL     1     -10.510  -8.756  16.822  0.00  0.00    +0.090 C 
ATOM      8  C   UNL     1     -10.726  -7.258  17.104  0.00  0.00    +0.029 C 
ATOM      9  C   UNL     1     -10.891  -8.932  15.345  0.00  0.00    +0.097 C 
ATOM     10  C   UNL     1     -11.184  -6.670  15.776  0.00  0.00    +0.085 C 
ENDROOT
BRANCH   7  12
ATOM      2  F   UNL     1      -4.119 -11.429  18.874  0.00  0.00    -0.205 F 
ATOM      4  O   UNL     1      -8.169  -9.017  16.199  0.00  0.00    -0.439 OA
ATOM      6  N   UNL     1      -8.717  -9.926  18.201  0.00  0.00    -0.213 NA
ATOM     12  C   UNL     1      -9.124  -9.269  17.138  0.00  0.00    +0.201 A 
ATOM     14  C   UNL     1      -7.382 -10.132  17.955  0.00  0.00    +0.112 A 
ATOM     15  C   UNL     1      -7.042  -9.576  16.729  0.00  0.00    +0.156 A 
ATOM     18  C   UNL     1      -6.387 -10.774  18.706  0.00  0.00    +0.070 A 
ATOM     19  C   UNL     1      -5.770  -9.604  16.173  0.00  0.00    +0.051 A 
ATOM     22  C   UNL     1      -5.090 -10.823  18.178  0.00  0.00    +0.126 A 
ATOM     23  C   UNL     1      -4.790 -10.248  16.936  0.00  0.00    +0.042 A 
ENDBRANCH   7  12
BRANCH   5  11
ATOM     11  C   UNL     1     -12.035  -7.572  13.693  0.00  0.00    +0.119 C 
BRANCH  11  13
ATOM      1  F   UNL     1     -12.330  -2.923  12.236  0.00  0.00    -0.202 F 
ATOM      3  F   UNL     1     -15.001  -2.861  12.818  0.00  0.00    -0.202 F 
ATOM     13  C   UNL     1     -12.828  -6.314  13.459  0.00  0.00    -0.030 A 
ATOM     16  C   UNL     1     -12.199  -5.178  12.946  0.00  0.00    +0.046 A 
ATOM     17  C   UNL     1     -14.191  -6.282  13.756  0.00  0.00    +0.008 A 
ATOM     20  C   UNL     1     -12.933  -4.012  12.729  0.00  0.00    +0.159 A 
ATOM     21  C   UNL     1     -14.925  -5.116  13.538  0.00  0.00    +0.041 A 
ATOM     24  C   UNL     1     -14.296  -3.982  13.025  0.00  0.00    +0.158 A 
ENDBRANCH  11  13
ENDBRANCH   5  11
TORSDOF 3
ENDMDL
MODEL 10
REMARK VINA RESULT:      -6.5     26.896     29.761
REMARK  Name = 45784340
REMARK  3 active torsions:
REMARK  status: ('A' for Active; 'I' for Inactive)
REMARK    1  A    between atoms: N_5  and  C_11
REMARK    2  A    between atoms: C_7  and  C_12
REMARK    3  A    between atoms: C_11  and  C_13
REMARK                            x       y       z     vdW  Elec       q    Type
REMARK                         _______ _______ _______ _____ _____    ______ ____
ROOT
ATOM      5  N   UNL     1     -14.708   6.599  21.782  0.00  0.00    -0.297 NA
ATOM      7  C   UNL     1     -15.428   4.485  22.501  0.00  0.00    +0.090 C 
ATOM      8  C   UNL     1     -16.552   5.168  21.701  0.00  0.00    +0.029 C 
ATOM      9  C   UNL     1     -14.449   5.618  22.839  0.00  0.00    +0.097 C 
ATOM     10  C   UNL     1     -16.165   6.640  21.656  0.00  0.00    +0.085 C 
ENDROOT
BRANCH   7  12
ATOM      2  F   UNL     1     -17.807   0.373  27.945  0.00  0.00    -0.205 F 
ATOM      4  O   UNL     1     -15.730   4.359  24.916  0.00  0.00    -0.439 OA
ATOM      6  N   UNL     1     -16.428   2.525  23.783  0.00  0.00    -0.213 NA
ATOM     12  C   UNL     1     -15.890   3.723  23.721  0.00  0.00    +0.201 A 
ATOM     14  C   UNL     1     -16.645   2.343  25.126  0.00  0.00    +0.112 A 
ATOM     15  C   UNL     1     -16.218   3.464  25.824  0.00  0.00    +0.156 A 
ATOM     18  C   UNL     1     -17.195   1.269  25.842  0.00  0.00    +0.070 A 
ATOM     19  C   UNL     1     -16.292   3.614  27.203  0.00  0.00    +0.051 A 
ATOM     22  C   UNL     1     -17.286   1.383  27.236  0.00  0.00    +0.126 A 
ATOM     23  C   UNL     1     -16.842   2.534  27.901  0.00  0.00    +0.042 A 
ENDBRANCH   7  12
BRANCH   5  11
ATOM     11  C   UNL     1     -14.141   7.903  22.085  0.00  0.00    +0.119 C 
BRANCH  11  13
ATOM      1  F   UNL     1     -10.958   6.697  18.587  0.00  0.00    -0.202 F 
ATOM      3  F   UNL     1      -9.957   9.242  18.554  0.00  0.00    -0.202 F 
ATOM     13  C   UNL     1     -13.023   8.261  21.142  0.00  0.00    -0.030 A 
ATOM     16  C   UNL     1     -12.497   7.294  20.284  0.00  0.00    +0.046 A 
ATOM     17  C   UNL     1     -12.513   9.560  21.125  0.00  0.00    +0.008 A 
ATOM     20  C   UNL     1     -11.462   7.625  19.410  0.00  0.00    +0.159 A 
ATOM     21  C   UNL     1     -11.477   9.891  20.250  0.00  0.00    +0.041 A 
ATOM     24  C   UNL     1     -10.953   8.924  19.393  0.00  0.00    +0.158 A 
ENDBRANCH  11  13
ENDBRANCH   5  11
TORSDOF 3
ENDMDL
