MODEL 1
REMARK VINA RESULT:      -6.4      0.000      0.000
REMARK  Name = 45361003
REMARK  11 active torsions:
REMARK  status: ('A' for Active; 'I' for Inactive)
REMARK    1  A    between atoms: N_3  and  C_13
REMARK    2  A    between atoms: N_4  and  C_18
REMARK    3  A    between atoms: N_6  and  C_24
REMARK    4  A    between atoms: C_12  and  C_17
REMARK    5  A    between atoms: C_13  and  C_15
REMARK    6  A    between atoms: C_15  and  C_19
REMARK    7  A    between atoms: C_15  and  C_20
REMARK    8  A    between atoms: C_15  and  C_21
REMARK    9  A    between atoms: C_17  and  C_22
REMARK   10  A    between atoms: C_22  and  C_23
REMARK   11  A    between atoms: C_24  and  C_25
REMARK                            x       y       z     vdW  Elec       q    Type
REMARK                         _______ _______ _______ _____ _____    ______ ____
ROOT
ATOM      1  O   UNL     1      -5.979  -9.346  13.242  0.00  0.00    -0.274 OA
ATOM      3  N   UNL     1      -3.894 -10.485  11.959  0.00  0.00    -0.290 NA
ATOM      4  N   UNL     1      -3.204 -10.764  15.542  0.00  0.00    -0.296 NA
ATOM      5  N   UNL     1      -6.025 -10.874  14.946  0.00  0.00    -0.312 N 
ATOM      8  C   UNL     1      -3.066 -11.186  14.131  0.00  0.00    +0.084 C 
ATOM      9  C   UNL     1      -4.324 -11.131  13.213  0.00  0.00    +0.160 C 
ATOM     10  C   UNL     1      -2.048 -10.357  13.327  0.00  0.00    +0.036 C 
ATOM     11  C   UNL     1      -2.442 -10.611  11.888  0.00  0.00    +0.087 C 
ATOM     12  C   UNL     1      -4.123 -11.611  16.352  0.00  0.00    +0.074 C 
ATOM     14  C   UNL     1      -5.503 -10.345  13.782  0.00  0.00    +0.232 C 
ATOM     16  C   UNL     1      -5.439 -11.999  15.647  0.00  0.00    +0.123 C 
ATOM     18  C   UNL     1      -1.886 -10.674  16.193  0.00  0.00    +0.105 C 
ATOM     30  H   UNL     1      -6.827 -10.411  15.364  0.00  0.00    +0.149 HD
ENDROOT
BRANCH   3  13
ATOM     13  C   UNL     1      -4.550 -11.028  10.776  0.00  0.00    +0.091 C 
BRANCH  13  15
ATOM     15  C   UNL     1      -5.100  -9.951   9.807  0.00  0.00    -0.025 C 
ATOM     19  C   UNL     1      -4.631  -8.546  10.227  0.00  0.00    +0.012 C 
ATOM     20  C   UNL     1      -4.653 -10.223   8.360  0.00  0.00    +0.012 C 
ATOM     21  C   UNL     1      -6.638  -9.992   9.860  0.00  0.00    +0.012 C 
ENDBRANCH  13  15
ENDBRANCH   3  13
BRANCH  12  17
ATOM     17  C   UNL     1      -4.495 -10.898  17.669  0.00  0.00    +0.029 C 
BRANCH  17  22
ATOM     22  C   UNL     1      -4.858 -11.907  18.741  0.00  0.00    +0.097 C 
BRANCH  22  23
ATOM      2  O   UNL     1      -6.080 -11.131  20.682  0.00  0.00    -0.276 OA
ATOM      6  N   UNL     1      -7.239 -11.564  18.717  0.00  0.00    -0.311 N 
ATOM     23  C   UNL     1      -6.101 -11.488  19.507  0.00  0.00    +0.213 C 
ATOM     31  H   UNL     1      -7.162 -11.890  17.758  0.00  0.00    +0.149 HD
BRANCH   6  24
ATOM     24  C   UNL     1      -8.548 -11.219  19.218  0.00  0.00    +0.141 C 
BRANCH  24  25
ATOM      7  N   UNL     1      -8.999  -8.444  16.688  0.00  0.00    -0.263 NA
ATOM     25  C   UNL     1      -9.198 -10.143  18.397  0.00  0.00    -0.012 A 
ATOM     26  C   UNL     1     -10.545  -9.835  18.556  0.00  0.00    +0.008 A 
ATOM     27  C   UNL     1      -8.475  -9.426  17.458  0.00  0.00    +0.115 A 
ATOM     28  C   UNL     1     -11.119  -8.833  17.782  0.00  0.00    +0.020 A 
ATOM     29  C   UNL     1     -10.310  -8.173  16.871  0.00  0.00    +0.111 A 
ENDBRANCH  24  25
ENDBRANCH   6  24
ENDBRANCH  22  23
ENDBRANCH  17  22
ENDBRANCH  12  17
TORSDOF 7
ENDMDL
MODEL 2
REMARK VINA RESULT:      -6.4      1.908      7.493
REMARK  Name = 45361003
REMARK  11 active torsions:
REMARK  status: ('A' for Active; 'I' for Inactive)
REMARK    1  A    between atoms: N_3  and  C_13
REMARK    2  A    between atoms: N_4  and  C_18
REMARK    3  A    between atoms: N_6  and  C_24
REMARK    4  A    between atoms: C_12  and  C_17
REMARK    5  A    between atoms: C_13  and  C_15
REMARK    6  A    between atoms: C_15  and  C_19
REMARK    7  A    between atoms: C_15  and  C_20
REMARK    8  A    between atoms: C_15  and  C_21
REMARK    9  A    between atoms: C_17  and  C_22
REMARK   10  A    between atoms: C_22  and  C_23
REMARK   11  A    between atoms: C_24  and  C_25
REMARK                            x       y       z     vdW  Elec       q    Type
REMARK                         _______ _______ _______ _____ _____    ______ ____
ROOT
ATOM      1  O   UNL     1      -8.615 -11.109  15.573  0.00  0.00    -0.274 OA
ATOM      3  N   UNL     1      -9.117 -10.610  18.178  0.00  0.00    -0.290 NA
ATOM      4  N   UNL     1      -5.574 -11.493  17.940  0.00  0.00    -0.296 NA
ATOM      5  N   UNL     1      -6.540 -10.144  15.580  0.00  0.00    -0.312 N 
ATOM      8  C   UNL     1      -6.734 -10.834  18.580  0.00  0.00    +0.084 C 
ATOM      9  C   UNL     1      -7.806 -10.169  17.667  0.00  0.00    +0.160 C 
ATOM     10  C   UNL     1      -7.590 -11.778  19.444  0.00  0.00    +0.036 C 
ATOM     11  C   UNL     1      -8.915 -11.052  19.553  0.00  0.00    +0.087 C 
ATOM     12  C   UNL     1      -4.690 -10.574  17.170  0.00  0.00    +0.074 C 
ATOM     14  C   UNL     1      -7.715 -10.539  16.188  0.00  0.00    +0.232 C 
ATOM     16  C   UNL     1      -5.430  -9.544  16.294  0.00  0.00    +0.123 C 
ATOM     18  C   UNL     1      -4.787 -12.247  18.931  0.00  0.00    +0.105 C 
ATOM     30  H   UNL     1      -6.425 -10.340  14.590  0.00  0.00    +0.149 HD
ENDROOT
BRANCH   3  13
ATOM     13  C   UNL     1     -10.150  -9.586  18.078  0.00  0.00    +0.091 C 
BRANCH  13  15
ATOM     15  C   UNL     1     -11.503 -10.105  17.529  0.00  0.00    -0.025 C 
ATOM     19  C   UNL     1     -11.472 -11.634  17.350  0.00  0.00    +0.012 C 
ATOM     20  C   UNL     1     -12.666  -9.728  18.464  0.00  0.00    +0.012 C 
ATOM     21  C   UNL     1     -11.749  -9.455  16.155  0.00  0.00    +0.012 C 
ENDBRANCH  13  15
ENDBRANCH   3  13
BRANCH  12  17
ATOM     17  C   UNL     1      -3.749 -11.377  16.248  0.00  0.00    +0.029 C 
BRANCH  17  22
ATOM     22  C   UNL     1      -2.348 -10.795  16.274  0.00  0.00    +0.097 C 
BRANCH  22  23
ATOM      2  O   UNL     1      -1.072  -9.546  14.638  0.00  0.00    -0.276 OA
ATOM      6  N   UNL     1      -2.389 -11.320  13.928  0.00  0.00    -0.311 N 
ATOM     23  C   UNL     1      -1.852 -10.464  14.878  0.00  0.00    +0.213 C 
ATOM     31  H   UNL     1      -3.044 -12.042  14.216  0.00  0.00    +0.149 HD
BRANCH   6  24
ATOM     24  C   UNL     1      -2.073 -11.210  12.523  0.00  0.00    +0.141 C 
BRANCH  24  25
ATOM      7  N   UNL     1      -5.295  -9.436  11.646  0.00  0.00    -0.263 NA
ATOM     25  C   UNL     1      -3.063 -10.353  11.790  0.00  0.00    -0.012 A 
ATOM     26  C   UNL     1      -2.710  -9.695  10.615  0.00  0.00    +0.008 A 
ATOM     27  C   UNL     1      -4.355 -10.192  12.259  0.00  0.00    +0.115 A 
ATOM     28  C   UNL     1      -3.649  -8.909   9.957  0.00  0.00    +0.020 A 
ATOM     29  C   UNL     1      -4.916  -8.814  10.509  0.00  0.00    +0.111 A 
ENDBRANCH  24  25
ENDBRANCH   6  24
ENDBRANCH  22  23
ENDBRANCH  17  22
ENDBRANCH  12  17
TORSDOF 7
ENDMDL
MODEL 3
REMARK VINA RESULT:      -6.1      2.920      5.662
REMARK  Name = 45361003
REMARK  11 active torsions:
REMARK  status: ('A' for Active; 'I' for Inactive)
REMARK    1  A    between atoms: N_3  and  C_13
REMARK    2  A    between atoms: N_4  and  C_18
REMARK    3  A    between atoms: N_6  and  C_24
REMARK    4  A    between atoms: C_12  and  C_17
REMARK    5  A    between atoms: C_13  and  C_15
REMARK    6  A    between atoms: C_15  and  C_19
REMARK    7  A    between atoms: C_15  and  C_20
REMARK    8  A    between atoms: C_15  and  C_21
REMARK    9  A    between atoms: C_17  and  C_22
REMARK   10  A    between atoms: C_22  and  C_23
REMARK   11  A    between atoms: C_24  and  C_25
REMARK                            x       y       z     vdW  Elec       q    Type
REMARK                         _______ _______ _______ _____ _____    ______ ____
ROOT
ATOM      1  O   UNL     1      -5.787 -11.901   7.893  0.00  0.00    -0.274 OA
ATOM      3  N   UNL     1      -6.931  -9.490   7.479  0.00  0.00    -0.290 NA
ATOM      4  N   UNL     1      -5.802  -9.536  10.959  0.00  0.00    -0.296 NA
ATOM      5  N   UNL     1      -4.108 -11.100   9.225  0.00  0.00    -0.312 N 
ATOM      8  C   UNL     1      -6.175  -8.860   9.697  0.00  0.00    +0.084 C 
ATOM      9  C   UNL     1      -5.741  -9.511   8.350  0.00  0.00    +0.160 C 
ATOM     10  C   UNL     1      -7.693  -8.697   9.500  0.00  0.00    +0.036 C 
ATOM     11  C   UNL     1      -7.834  -8.475   8.009  0.00  0.00    +0.087 C 
ATOM     12  C   UNL     1      -4.335  -9.625  11.201  0.00  0.00    +0.074 C 
ATOM     14  C   UNL     1      -5.247 -10.951   8.459  0.00  0.00    +0.232 C 
ATOM     16  C   UNL     1      -3.496 -10.018   9.969  0.00  0.00    +0.123 C 
ATOM     18  C   UNL     1      -6.472  -8.906  12.109  0.00  0.00    +0.105 C 
ATOM     30  H   UNL     1      -3.713 -12.032   9.319  0.00  0.00    +0.149 HD
ENDROOT
BRANCH   3  13
ATOM     13  C   UNL     1      -6.614  -9.262   6.074  0.00  0.00    +0.091 C 
BRANCH  13  15
ATOM     15  C   UNL     1      -7.281 -10.268   5.103  0.00  0.00    -0.025 C 
ATOM     19  C   UNL     1      -6.243 -11.252   4.534  0.00  0.00    +0.012 C 
ATOM     20  C   UNL     1      -8.399 -11.061   5.803  0.00  0.00    +0.012 C 
ATOM     21  C   UNL     1      -7.900  -9.476   3.936  0.00  0.00    +0.012 C 
ENDBRANCH  13  15
ENDBRANCH   3  13
BRANCH  12  17
ATOM     17  C   UNL     1      -4.032 -10.649  12.315  0.00  0.00    +0.029 C 
BRANCH  17  22
ATOM     22  C   UNL     1      -2.583 -10.553  12.753  0.00  0.00    +0.097 C 
BRANCH  22  23
ATOM      2  O   UNL     1      -1.513 -11.696  14.600  0.00  0.00    -0.276 OA
ATOM      6  N   UNL     1      -3.381 -10.381  15.015  0.00  0.00    -0.311 N 
ATOM     23  C   UNL     1      -2.409 -10.953  14.207  0.00  0.00    +0.213 C 
ATOM     31  H   UNL     1      -4.097  -9.793  14.599  0.00  0.00    +0.149 HD
BRANCH   6  24
ATOM     24  C   UNL     1      -3.432 -10.611  16.440  0.00  0.00    +0.141 C 
BRANCH  24  25
ATOM      7  N   UNL     1      -7.002  -9.396  16.715  0.00  0.00    -0.263 NA
ATOM     25  C   UNL     1      -4.797 -10.344  17.004  0.00  0.00    -0.012 A 
ATOM     26  C   UNL     1      -5.138 -10.765  18.285  0.00  0.00    +0.008 A 
ATOM     27  C   UNL     1      -5.755  -9.670  16.266  0.00  0.00    +0.115 A 
ATOM     28  C   UNL     1      -6.410 -10.502  18.781  0.00  0.00    +0.020 A 
ATOM     29  C   UNL     1      -7.297  -9.819  17.964  0.00  0.00    +0.111 A 
ENDBRANCH  24  25
ENDBRANCH   6  24
ENDBRANCH  22  23
ENDBRANCH  17  22
ENDBRANCH  12  17
TORSDOF 7
ENDMDL
MODEL 4
REMARK VINA RESULT:      -6.1     19.305     20.305
REMARK  Name = 45361003
REMARK  11 active torsions:
REMARK  status: ('A' for Active; 'I' for Inactive)
REMARK    1  A    between atoms: N_3  and  C_13
REMARK    2  A    between atoms: N_4  and  C_18
REMARK    3  A    between atoms: N_6  and  C_24
REMARK    4  A    between atoms: C_12  and  C_17
REMARK    5  A    between atoms: C_13  and  C_15
REMARK    6  A    between atoms: C_15  and  C_19
REMARK    7  A    between atoms: C_15  and  C_20
REMARK    8  A    between atoms: C_15  and  C_21
REMARK    9  A    between atoms: C_17  and  C_22
REMARK   10  A    between atoms: C_22  and  C_23
REMARK   11  A    between atoms: C_24  and  C_25
REMARK                            x       y       z     vdW  Elec       q    Type
REMARK                         _______ _______ _______ _____ _____    ______ ____
ROOT
ATOM      1  O   UNL     1     -13.171   4.944  22.412  0.00  0.00    -0.274 OA
ATOM      3  N   UNL     1     -14.561   6.737  20.948  0.00  0.00    -0.290 NA
ATOM      4  N   UNL     1     -16.948   4.181  22.028  0.00  0.00    -0.296 NA
ATOM      5  N   UNL     1     -14.835   4.604  23.946  0.00  0.00    -0.312 N 
ATOM      8  C   UNL     1     -16.578   5.542  21.580  0.00  0.00    +0.084 C 
ATOM      9  C   UNL     1     -15.255   6.166  22.118  0.00  0.00    +0.160 C 
ATOM     10  C   UNL     1     -16.396   5.672  20.057  0.00  0.00    +0.036 C 
ATOM     11  C   UNL     1     -15.563   6.927  19.906  0.00  0.00    +0.087 C 
ATOM     12  C   UNL     1     -17.208   4.063  23.489  0.00  0.00    +0.074 C 
ATOM     14  C   UNL     1     -14.312   5.184  22.807  0.00  0.00    +0.232 C 
ATOM     16  C   UNL     1     -16.200   4.802  24.391  0.00  0.00    +0.123 C 
ATOM     18  C   UNL     1     -18.098   3.673  21.261  0.00  0.00    +0.105 C 
ATOM     30  H   UNL     1     -14.249   3.957  24.465  0.00  0.00    +0.149 HD
ENDROOT
BRANCH   3  13
ATOM     13  C   UNL     1     -13.842   7.969  21.249  0.00  0.00    +0.091 C 
BRANCH  13  15
ATOM     15  C   UNL     1     -12.584   8.197  20.373  0.00  0.00    -0.025 C 
ATOM     19  C   UNL     1     -12.928   8.071  18.878  0.00  0.00    +0.012 C 
ATOM     20  C   UNL     1     -11.965   9.580  20.635  0.00  0.00    +0.012 C 
ATOM     21  C   UNL     1     -11.544   7.119  20.731  0.00  0.00    +0.012 C 
ENDBRANCH  13  15
ENDBRANCH   3  13
BRANCH  12  17
ATOM     17  C   UNL     1     -17.214   2.580  23.918  0.00  0.00    +0.029 C 
BRANCH  17  22
ATOM     22  C   UNL     1     -17.902   2.412  25.259  0.00  0.00    +0.097 C 
BRANCH  22  23
ATOM      2  O   UNL     1     -16.421   0.547  25.694  0.00  0.00    -0.276 OA
ATOM      6  N   UNL     1     -17.491   1.578  27.477  0.00  0.00    -0.311 N 
ATOM     23  C   UNL     1     -17.181   1.404  26.136  0.00  0.00    +0.213 C 
ATOM     31  H   UNL     1     -18.147   2.304  27.750  0.00  0.00    +0.149 HD
BRANCH   6  24
ATOM     24  C   UNL     1     -16.933   0.741  28.512  0.00  0.00    +0.141 C 
BRANCH  24  25
ATOM      7  N   UNL     1     -13.678   1.168  30.390  0.00  0.00    -0.263 NA
ATOM     25  C   UNL     1     -15.770   1.396  29.199  0.00  0.00    -0.012 A 
ATOM     26  C   UNL     1     -15.682   2.781  29.297  0.00  0.00    +0.008 A 
ATOM     27  C   UNL     1     -14.752   0.641  29.757  0.00  0.00    +0.115 A 
ATOM     28  C   UNL     1     -14.594   3.360  29.940  0.00  0.00    +0.020 A 
ATOM     29  C   UNL     1     -13.628   2.516  30.465  0.00  0.00    +0.111 A 
ENDBRANCH  24  25
ENDBRANCH   6  24
ENDBRANCH  22  23
ENDBRANCH  17  22
ENDBRANCH  12  17
TORSDOF 7
ENDMDL
MODEL 5
REMARK VINA RESULT:      -5.9     24.805     28.476
REMARK  Name = 45361003
REMARK  11 active torsions:
REMARK  status: ('A' for Active; 'I' for Inactive)
REMARK    1  A    between atoms: N_3  and  C_13
REMARK    2  A    between atoms: N_4  and  C_18
REMARK    3  A    between atoms: N_6  and  C_24
REMARK    4  A    between atoms: C_12  and  C_17
REMARK    5  A    between atoms: C_13  and  C_15
REMARK    6  A    between atoms: C_15  and  C_19
REMARK    7  A    between atoms: C_15  and  C_20
REMARK    8  A    between atoms: C_15  and  C_21
REMARK    9  A    between atoms: C_17  and  C_22
REMARK   10  A    between atoms: C_22  and  C_23
REMARK   11  A    between atoms: C_24  and  C_25
REMARK                            x       y       z     vdW  Elec       q    Type
REMARK                         _______ _______ _______ _____ _____    ______ ____
ROOT
ATOM      1  O   UNL     1      16.319 -10.638   2.752  0.00  0.00    -0.274 OA
ATOM      3  N   UNL     1      17.329 -13.134   2.547  0.00  0.00    -0.290 NA
ATOM      4  N   UNL     1      18.502 -11.279  -0.381  0.00  0.00    -0.296 NA
ATOM      5  N   UNL     1      18.189  -9.597   1.941  0.00  0.00    -0.312 N 
ATOM      8  C   UNL     1      18.595 -12.358   0.627  0.00  0.00    +0.084 C 
ATOM      9  C   UNL     1      18.203 -12.034   2.099  0.00  0.00    +0.160 C 
ATOM     10  C   UNL     1      17.707 -13.578   0.321  0.00  0.00    +0.036 C 
ATOM     11  C   UNL     1      17.578 -14.267   1.663  0.00  0.00    +0.087 C 
ATOM     12  C   UNL     1      19.419 -10.131  -0.141  0.00  0.00    +0.074 C 
ATOM     14  C   UNL     1      17.458 -10.715   2.293  0.00  0.00    +0.232 C 
ATOM     16  C   UNL     1      19.499  -9.659   1.325  0.00  0.00    +0.123 C 
ATOM     18  C   UNL     1      18.699 -11.814  -1.740  0.00  0.00    +0.105 C 
ATOM     30  H   UNL     1      17.759  -8.686   2.068  0.00  0.00    +0.149 HD
ENDROOT
BRANCH   3  13
ATOM     13  C   UNL     1      17.513 -13.482   3.951  0.00  0.00    +0.091 C 
BRANCH  13  15
ATOM     15  C   UNL     1      16.190 -13.633   4.744  0.00  0.00    -0.025 C 
ATOM     19  C   UNL     1      16.071 -12.541   5.823  0.00  0.00    +0.012 C 
ATOM     20  C   UNL     1      14.969 -13.558   3.811  0.00  0.00    +0.012 C 
ATOM     21  C   UNL     1      16.194 -15.009   5.435  0.00  0.00    +0.012 C 
ENDBRANCH  13  15
ENDBRANCH   3  13
BRANCH  12  17
ATOM     17  C   UNL     1      18.999  -8.917  -0.997  0.00  0.00    +0.029 C 
BRANCH  17  22
ATOM     22  C   UNL     1      19.885  -7.720  -0.702  0.00  0.00    +0.097 C 
BRANCH  22  23
ATOM      2  O   UNL     1      19.420  -5.348  -0.579  0.00  0.00    -0.276 OA
ATOM      6  N   UNL     1      18.426  -6.607  -2.257  0.00  0.00    -0.311 N 
ATOM     23  C   UNL     1      19.237  -6.421  -1.147  0.00  0.00    +0.213 C 
ATOM     31  H   UNL     1      18.320  -7.538  -2.650  0.00  0.00    +0.149 HD
BRANCH   6  24
ATOM     24  C   UNL     1      17.698  -5.521  -2.870  0.00  0.00    +0.141 C 
BRANCH  24  25
ATOM      7  N   UNL     1      14.755  -7.715  -3.779  0.00  0.00    -0.263 NA
ATOM     25  C   UNL     1      16.318  -5.936  -3.288  0.00  0.00    -0.012 A 
ATOM     26  C   UNL     1      15.339  -4.989  -3.572  0.00  0.00    +0.008 A 
ATOM     27  C   UNL     1      15.978  -7.274  -3.406  0.00  0.00    +0.115 A 
ATOM     28  C   UNL     1      14.070  -5.403  -3.959  0.00  0.00    +0.020 A 
ATOM     29  C   UNL     1      13.831  -6.766  -4.047  0.00  0.00    +0.111 A 
ENDBRANCH  24  25
ENDBRANCH   6  24
ENDBRANCH  22  23
ENDBRANCH  17  22
ENDBRANCH  12  17
TORSDOF 7
ENDMDL
MODEL 6
REMARK VINA RESULT:      -5.8     27.917     30.677
REMARK  Name = 45361003
REMARK  11 active torsions:
REMARK  status: ('A' for Active; 'I' for Inactive)
REMARK    1  A    between atoms: N_3  and  C_13
REMARK    2  A    between atoms: N_4  and  C_18
REMARK    3  A    between atoms: N_6  and  C_24
REMARK    4  A    between atoms: C_12  and  C_17
REMARK    5  A    between atoms: C_13  and  C_15
REMARK    6  A    between atoms: C_15  and  C_19
REMARK    7  A    between atoms: C_15  and  C_20
REMARK    8  A    between atoms: C_15  and  C_21
REMARK    9  A    between atoms: C_17  and  C_22
REMARK   10  A    between atoms: C_22  and  C_23
REMARK   11  A    between atoms: C_24  and  C_25
REMARK                            x       y       z     vdW  Elec       q    Type
REMARK                         _______ _______ _______ _____ _____    ______ ____
ROOT
ATOM      1  O   UNL     1      20.379   6.236  24.093  0.00  0.00    -0.274 OA
ATOM      3  N   UNL     1      21.517   5.341  21.814  0.00  0.00    -0.290 NA
ATOM      4  N   UNL     1      18.364   6.936  20.861  0.00  0.00    -0.296 NA
ATOM      5  N   UNL     1      19.575   8.170  23.170  0.00  0.00    -0.312 N 
ATOM      8  C   UNL     1      19.745   6.472  20.600  0.00  0.00    +0.084 C 
ATOM      9  C   UNL     1      20.806   6.631  21.730  0.00  0.00    +0.160 C 
ATOM     10  C   UNL     1      19.849   4.972  20.272  0.00  0.00    +0.036 C 
ATOM     11  C   UNL     1      21.302   4.650  20.548  0.00  0.00    +0.087 C 
ATOM     12  C   UNL     1      18.240   8.401  21.097  0.00  0.00    +0.074 C 
ATOM     14  C   UNL     1      20.238   6.960  23.108  0.00  0.00    +0.232 C 
ATOM     16  C   UNL     1      19.322   9.005  22.013  0.00  0.00    +0.123 C 
ATOM     18  C   UNL     1      17.457   6.514  19.780  0.00  0.00    +0.105 C 
ATOM     30  H   UNL     1      19.192   8.460  24.066  0.00  0.00    +0.149 HD
ENDROOT
BRANCH   3  13
ATOM     13  C   UNL     1      22.933   5.483  22.128  0.00  0.00    +0.091 C 
BRANCH  13  15
ATOM     15  C   UNL     1      23.536   4.275  22.889  0.00  0.00    -0.025 C 
ATOM     19  C   UNL     1      22.428   3.313  23.355  0.00  0.00    +0.012 C 
ATOM     20  C   UNL     1      24.538   3.505  22.011  0.00  0.00    +0.012 C 
ATOM     21  C   UNL     1      24.279   4.806  24.129  0.00  0.00    +0.012 C 
ENDBRANCH  13  15
ENDBRANCH   3  13
BRANCH  12  17
ATOM     17  C   UNL     1      16.867   8.733  21.719  0.00  0.00    +0.029 C 
BRANCH  17  22
ATOM     22  C   UNL     1      16.554  10.210  21.571  0.00  0.00    +0.097 C 
BRANCH  22  23
ATOM      2  O   UNL     1      14.726  10.931  20.157  0.00  0.00    -0.276 OA
ATOM      6  N   UNL     1      14.253  10.036  22.246  0.00  0.00    -0.311 N 
ATOM     23  C   UNL     1      15.095  10.442  21.222  0.00  0.00    +0.213 C 
ATOM     31  H   UNL     1      14.650   9.658  23.102  0.00  0.00    +0.149 HD
BRANCH   6  24
ATOM     24  C   UNL     1      12.817  10.154  22.155  0.00  0.00    +0.141 C 
BRANCH  24  25
ATOM      7  N   UNL     1      10.208   7.418  22.239  0.00  0.00    -0.263 NA
ATOM     25  C   UNL     1      12.155   8.823  21.952  0.00  0.00    -0.012 A 
ATOM     26  C   UNL     1      12.822   7.779  21.318  0.00  0.00    +0.008 A 
ATOM     27  C   UNL     1      10.861   8.593  22.389  0.00  0.00    +0.115 A 
ATOM     28  C   UNL     1      12.184   6.557  21.145  0.00  0.00    +0.020 A 
ATOM     29  C   UNL     1      10.888   6.429  21.620  0.00  0.00    +0.111 A 
ENDBRANCH  24  25
ENDBRANCH   6  24
ENDBRANCH  22  23
ENDBRANCH  17  22
ENDBRANCH  12  17
TORSDOF 7
ENDMDL
MODEL 7
REMARK VINA RESULT:      -5.8      4.224      7.992
REMARK  Name = 45361003
REMARK  11 active torsions:
REMARK  status: ('A' for Active; 'I' for Inactive)
REMARK    1  A    between atoms: N_3  and  C_13
REMARK    2  A    between atoms: N_4  and  C_18
REMARK    3  A    between atoms: N_6  and  C_24
REMARK    4  A    between atoms: C_12  and  C_17
REMARK    5  A    between atoms: C_13  and  C_15
REMARK    6  A    between atoms: C_15  and  C_19
REMARK    7  A    between atoms: C_15  and  C_20
REMARK    8  A    between atoms: C_15  and  C_21
REMARK    9  A    between atoms: C_17  and  C_22
REMARK   10  A    between atoms: C_22  and  C_23
REMARK   11  A    between atoms: C_24  and  C_25
REMARK                            x       y       z     vdW  Elec       q    Type
REMARK                         _______ _______ _______ _____ _____    ______ ____
ROOT
ATOM      1  O   UNL     1      -6.394  -9.643  17.054  0.00  0.00    -0.274 OA
ATOM      3  N   UNL     1      -7.503 -12.070  17.466  0.00  0.00    -0.290 NA
ATOM      4  N   UNL     1     -10.186  -9.610  17.839  0.00  0.00    -0.296 NA
ATOM      5  N   UNL     1      -8.192  -8.790  15.922  0.00  0.00    -0.312 N 
ATOM      8  C   UNL     1      -9.661 -10.962  17.547  0.00  0.00    +0.084 C 
ATOM      9  C   UNL     1      -8.331 -11.085  16.746  0.00  0.00    +0.160 C 
ATOM     10  C   UNL     1      -9.356 -11.799  18.803  0.00  0.00    +0.036 C 
ATOM     11  C   UNL     1      -8.403 -12.861  18.297  0.00  0.00    +0.087 C 
ATOM     12  C   UNL     1     -10.564  -8.822  16.634  0.00  0.00    +0.074 C 
ATOM     14  C   UNL     1      -7.535  -9.789  16.615  0.00  0.00    +0.232 C 
ATOM     16  C   UNL     1      -9.562  -8.902  15.464  0.00  0.00    +0.123 C 
ATOM     18  C   UNL     1     -11.318  -9.679  18.779  0.00  0.00    +0.105 C 
ATOM     30  H   UNL     1      -7.707  -7.909  15.780  0.00  0.00    +0.149 HD
ENDROOT
BRANCH   3  13
ATOM     13  C   UNL     1      -6.699 -12.904  16.581  0.00  0.00    +0.091 C 
BRANCH  13  15
ATOM     15  C   UNL     1      -5.216 -13.034  17.009  0.00  0.00    -0.025 C 
ATOM     19  C   UNL     1      -4.295 -12.282  16.031  0.00  0.00    +0.012 C 
ATOM     20  C   UNL     1      -4.996 -12.489  18.431  0.00  0.00    +0.012 C 
ATOM     21  C   UNL     1      -4.836 -14.526  16.993  0.00  0.00    +0.012 C 
ENDBRANCH  13  15
ENDBRANCH   3  13
BRANCH  12  17
ATOM     17  C   UNL     1     -10.737  -7.331  16.995  0.00  0.00    +0.029 C 
BRANCH  17  22
ATOM     22  C   UNL     1     -10.481  -6.452  15.785  0.00  0.00    +0.097 C 
BRANCH  22  23
ATOM      2  O   UNL     1     -12.887  -6.284  15.581  0.00  0.00    -0.276 OA
ATOM      6  N   UNL     1     -11.543  -5.154  14.062  0.00  0.00    -0.311 N 
ATOM     23  C   UNL     1     -11.777  -5.973  15.157  0.00  0.00    +0.213 C 
ATOM     31  H   UNL     1     -10.588  -4.965  13.772  0.00  0.00    +0.149 HD
BRANCH   6  24
ATOM     24  C   UNL     1     -12.617  -4.571  13.292  0.00  0.00    +0.141 C 
BRANCH  24  25
ATOM      7  N   UNL     1     -12.093  -5.907   9.793  0.00  0.00    -0.263 NA
ATOM     25  C   UNL     1     -12.336  -4.608  11.818  0.00  0.00    -0.012 A 
ATOM     26  C   UNL     1     -12.062  -3.442  11.111  0.00  0.00    +0.008 A 
ATOM     27  C   UNL     1     -12.340  -5.804  11.120  0.00  0.00    +0.115 A 
ATOM     28  C   UNL     1     -11.804  -3.507   9.747  0.00  0.00    +0.020 A 
ATOM     29  C   UNL     1     -11.831  -4.753   9.141  0.00  0.00    +0.111 A 
ENDBRANCH  24  25
ENDBRANCH   6  24
ENDBRANCH  22  23
ENDBRANCH  17  22
ENDBRANCH  12  17
TORSDOF 7
ENDMDL
MODEL 8
REMARK VINA RESULT:      -5.8      3.197      8.209
REMARK  Name = 45361003
REMARK  11 active torsions:
REMARK  status: ('A' for Active; 'I' for Inactive)
REMARK    1  A    between atoms: N_3  and  C_13
REMARK    2  A    between atoms: N_4  and  C_18
REMARK    3  A    between atoms: N_6  and  C_24
REMARK    4  A    between atoms: C_12  and  C_17
REMARK    5  A    between atoms: C_13  and  C_15
REMARK    6  A    between atoms: C_15  and  C_19
REMARK    7  A    between atoms: C_15  and  C_20
REMARK    8  A    between atoms: C_15  and  C_21
REMARK    9  A    between atoms: C_17  and  C_22
REMARK   10  A    between atoms: C_22  and  C_23
REMARK   11  A    between atoms: C_24  and  C_25
REMARK                            x       y       z     vdW  Elec       q    Type
REMARK                         _______ _______ _______ _____ _____    ______ ____
ROOT
ATOM      1  O   UNL     1      -5.901 -12.556  14.787  0.00  0.00    -0.274 OA
ATOM      3  N   UNL     1      -3.959 -11.284  16.165  0.00  0.00    -0.290 NA
ATOM      4  N   UNL     1      -3.208 -10.820  12.613  0.00  0.00    -0.296 NA
ATOM      5  N   UNL     1      -6.041 -10.979  13.134  0.00  0.00    -0.312 N 
ATOM      8  C   UNL     1      -3.143 -10.437  14.041  0.00  0.00    +0.084 C 
ATOM      9  C   UNL     1      -4.413 -10.635  14.921  0.00  0.00    +0.160 C 
ATOM     10  C   UNL     1      -2.075 -11.201  14.845  0.00  0.00    +0.036 C 
ATOM     11  C   UNL     1      -2.526 -11.033  16.280  0.00  0.00    +0.087 C 
ATOM     12  C   UNL     1      -4.179 -10.029  11.807  0.00  0.00    +0.074 C 
ATOM     14  C   UNL     1      -5.504 -11.500  14.295  0.00  0.00    +0.232 C 
ATOM     16  C   UNL     1      -5.541  -9.783  12.487  0.00  0.00    +0.123 C 
ATOM     18  C   UNL     1      -1.872 -10.770  11.996  0.00  0.00    +0.105 C 
ATOM     30  H   UNL     1      -6.788 -11.496  12.679  0.00  0.00    +0.149 HD
ENDROOT
BRANCH   3  13
ATOM     13  C   UNL     1      -4.690 -10.842  17.346  0.00  0.00    +0.091 C 
BRANCH  13  15
ATOM     15  C   UNL     1      -4.870 -11.940  18.425  0.00  0.00    -0.025 C 
ATOM     19  C   UNL     1      -3.638 -12.013  19.344  0.00  0.00    +0.012 C 
ATOM     20  C   UNL     1      -6.124 -11.683  19.278  0.00  0.00    +0.012 C 
ATOM     21  C   UNL     1      -5.032 -13.296  17.712  0.00  0.00    +0.012 C 
ENDBRANCH  13  15
ENDBRANCH   3  13
BRANCH  12  17
ATOM     17  C   UNL     1      -4.453 -10.725  10.457  0.00  0.00    +0.029 C 
BRANCH  17  22
ATOM     22  C   UNL     1      -4.363  -9.732   9.313  0.00  0.00    +0.097 C 
BRANCH  22  23
ATOM      2  O   UNL     1      -5.621 -11.140   7.798  0.00  0.00    -0.276 OA
ATOM      6  N   UNL     1      -6.052  -8.859   7.840  0.00  0.00    -0.311 N 
ATOM     23  C   UNL     1      -5.401 -10.016   8.242  0.00  0.00    +0.213 C 
ATOM     31  H   UNL     1      -5.789  -7.968   8.251  0.00  0.00    +0.149 HD
BRANCH   6  24
ATOM     24  C   UNL     1      -7.082  -8.867   6.829  0.00  0.00    +0.141 C 
BRANCH  24  25
ATOM      7  N   UNL     1     -10.327  -6.942   6.571  0.00  0.00    -0.263 NA
ATOM     25  C   UNL     1      -8.156  -7.857   7.113  0.00  0.00    -0.012 A 
ATOM     26  C   UNL     1      -8.010  -6.923   8.134  0.00  0.00    +0.008 A 
ATOM     27  C   UNL     1      -9.322  -7.825   6.368  0.00  0.00    +0.115 A 
ATOM     28  C   UNL     1      -9.020  -5.999   8.373  0.00  0.00    +0.020 A 
ATOM     29  C   UNL     1     -10.149  -6.050   7.570  0.00  0.00    +0.111 A 
ENDBRANCH  24  25
ENDBRANCH   6  24
ENDBRANCH  22  23
ENDBRANCH  17  22
ENDBRANCH  12  17
TORSDOF 7
ENDMDL
MODEL 9
REMARK VINA RESULT:      -5.7      4.299      8.144
REMARK  Name = 45361003
REMARK  11 active torsions:
REMARK  status: ('A' for Active; 'I' for Inactive)
REMARK    1  A    between atoms: N_3  and  C_13
REMARK    2  A    between atoms: N_4  and  C_18
REMARK    3  A    between atoms: N_6  and  C_24
REMARK    4  A    between atoms: C_12  and  C_17
REMARK    5  A    between atoms: C_13  and  C_15
REMARK    6  A    between atoms: C_15  and  C_19
REMARK    7  A    between atoms: C_15  and  C_20
REMARK    8  A    between atoms: C_15  and  C_21
REMARK    9  A    between atoms: C_17  and  C_22
REMARK   10  A    between atoms: C_22  and  C_23
REMARK   11  A    between atoms: C_24  and  C_25
REMARK                            x       y       z     vdW  Elec       q    Type
REMARK                         _______ _______ _______ _____ _____    ______ ____
ROOT
ATOM      1  O   UNL     1      -8.885 -10.723  18.566  0.00  0.00    -0.274 OA
ATOM      3  N   UNL     1      -6.811 -10.698  16.837  0.00  0.00    -0.290 NA
ATOM      4  N   UNL     1      -9.709  -9.393  15.023  0.00  0.00    -0.296 NA
ATOM      5  N   UNL     1      -9.779  -8.747  17.834  0.00  0.00    -0.312 N 
ATOM      8  C   UNL     1      -8.257  -9.538  15.271  0.00  0.00    +0.084 C 
ATOM      9  C   UNL     1      -7.755  -9.569  16.745  0.00  0.00    +0.160 C 
ATOM     10  C   UNL     1      -7.652 -10.834  14.699  0.00  0.00    +0.036 C 
ATOM     11  C   UNL     1      -6.366 -10.997  15.481  0.00  0.00    +0.087 C 
ATOM     12  C   UNL     1     -10.289  -8.106  15.497  0.00  0.00    +0.074 C 
ATOM     14  C   UNL     1      -8.846  -9.764  17.795  0.00  0.00    +0.232 C 
ATOM     16  C   UNL     1      -9.808  -7.649  16.889  0.00  0.00    +0.123 C 
ATOM     18  C   UNL     1     -10.021  -9.601  13.599  0.00  0.00    +0.105 C 
ATOM     30  H   UNL     1     -10.520  -8.805  18.527  0.00  0.00    +0.149 HD
ENDROOT
BRANCH   3  13
ATOM     13  C   UNL     1      -5.693 -10.443  17.738  0.00  0.00    +0.091 C 
BRANCH  13  15
ATOM     15  C   UNL     1      -5.444 -11.570  18.771  0.00  0.00    -0.025 C 
ATOM     19  C   UNL     1      -6.212 -12.847  18.386  0.00  0.00    +0.012 C 
ATOM     20  C   UNL     1      -3.945 -11.898  18.889  0.00  0.00    +0.012 C 
ATOM     21  C   UNL     1      -5.949 -11.088  20.144  0.00  0.00    +0.012 C 
ENDBRANCH  13  15
ENDBRANCH   3  13
BRANCH  12  17
ATOM     17  C   UNL     1     -11.829  -8.193  15.544  0.00  0.00    +0.029 C 
BRANCH  17  22
ATOM     22  C   UNL     1     -12.429  -6.862  15.957  0.00  0.00    +0.097 C 
BRANCH  22  23
ATOM      2  O   UNL     1     -14.354  -6.750  14.492  0.00  0.00    -0.276 OA
ATOM      6  N   UNL     1     -12.705  -5.125  14.317  0.00  0.00    -0.311 N 
ATOM     23  C   UNL     1     -13.284  -6.266  14.853  0.00  0.00    +0.213 C 
ATOM     31  H   UNL     1     -11.806  -4.807  14.667  0.00  0.00    +0.149 HD
BRANCH   6  24
ATOM     24  C   UNL     1     -13.325  -4.375  13.250  0.00  0.00    +0.141 C 
BRANCH  24  25
ATOM      7  N   UNL     1     -11.463  -3.568  10.059  0.00  0.00    -0.263 NA
ATOM     25  C   UNL     1     -12.608  -4.559  11.944  0.00  0.00    -0.012 A 
ATOM     26  C   UNL     1     -12.420  -5.825  11.402  0.00  0.00    +0.008 A 
ATOM     27  C   UNL     1     -12.116  -3.473  11.241  0.00  0.00    +0.115 A 
ATOM     28  C   UNL     1     -11.754  -5.965  10.190  0.00  0.00    +0.020 A 
ATOM     29  C   UNL     1     -11.299  -4.814   9.564  0.00  0.00    +0.111 A 
ENDBRANCH  24  25
ENDBRANCH   6  24
ENDBRANCH  22  23
ENDBRANCH  17  22
ENDBRANCH  12  17
TORSDOF 7
ENDMDL
MODEL 10
REMARK VINA RESULT:      -5.7     28.186     30.993
REMARK  Name = 45361003
REMARK  11 active torsions:
REMARK  status: ('A' for Active; 'I' for Inactive)
REMARK    1  A    between atoms: N_3  and  C_13
REMARK    2  A    between atoms: N_4  and  C_18
REMARK    3  A    between atoms: N_6  and  C_24
REMARK    4  A    between atoms: C_12  and  C_17
REMARK    5  A    between atoms: C_13  and  C_15
REMARK    6  A    between atoms: C_15  and  C_19
REMARK    7  A    between atoms: C_15  and  C_20
REMARK    8  A    between atoms: C_15  and  C_21
REMARK    9  A    between atoms: C_17  and  C_22
REMARK   10  A    between atoms: C_22  and  C_23
REMARK   11  A    between atoms: C_24  and  C_25
REMARK                            x       y       z     vdW  Elec       q    Type
REMARK                         _______ _______ _______ _____ _____    ______ ____
ROOT
ATOM      1  O   UNL     1      22.373   5.370  20.053  0.00  0.00    -0.274 OA
ATOM      3  N   UNL     1      22.741   4.682  22.638  0.00  0.00    -0.290 NA
ATOM      4  N   UNL     1      20.371   7.470  22.617  0.00  0.00    -0.296 NA
ATOM      5  N   UNL     1      20.137   5.801  20.276  0.00  0.00    -0.312 N 
ATOM      8  C   UNL     1      20.986   6.260  23.206  0.00  0.00    +0.084 C 
ATOM      9  C   UNL     1      21.376   5.089  22.255  0.00  0.00    +0.160 C 
ATOM     10  C   UNL     1      22.311   6.528  23.944  0.00  0.00    +0.036 C 
ATOM     11  C   UNL     1      22.968   5.165  23.996  0.00  0.00    +0.087 C 
ATOM     12  C   UNL     1      19.048   7.239  21.974  0.00  0.00    +0.074 C 
ATOM     14  C   UNL     1      21.374   5.436  20.769  0.00  0.00    +0.232 C 
ATOM     16  C   UNL     1      18.961   5.967  21.107  0.00  0.00    +0.123 C 
ATOM     18  C   UNL     1      20.271   8.546  23.618  0.00  0.00    +0.105 C 
ATOM     30  H   UNL     1      20.062   6.023  19.287  0.00  0.00    +0.149 HD
ENDROOT
BRANCH   3  13
ATOM     13  C   UNL     1      22.969   3.247  22.521  0.00  0.00    +0.091 C 
BRANCH  13  15
ATOM     15  C   UNL     1      24.381   2.871  22.006  0.00  0.00    -0.025 C 
ATOM     19  C   UNL     1      25.264   2.352  23.155  0.00  0.00    +0.012 C 
ATOM     20  C   UNL     1      24.307   1.802  20.903  0.00  0.00    +0.012 C 
ATOM     21  C   UNL     1      25.034   4.136  21.418  0.00  0.00    +0.012 C 
ENDBRANCH  13  15
ENDBRANCH   3  13
BRANCH  12  17
ATOM     17  C   UNL     1      18.666   8.437  21.079  0.00  0.00    +0.029 C 
BRANCH  17  22
ATOM     22  C   UNL     1      17.307   8.987  21.471  0.00  0.00    +0.097 C 
BRANCH  22  23
ATOM      2  O   UNL     1      15.843   9.326  19.573  0.00  0.00    -0.276 OA
ATOM      6  N   UNL     1      15.761   7.308  20.716  0.00  0.00    -0.311 N 
ATOM     23  C   UNL     1      16.233   8.589  20.475  0.00  0.00    +0.213 C 
ATOM     31  H   UNL     1      16.131   6.776  21.499  0.00  0.00    +0.149 HD
BRANCH   6  24
ATOM     24  C   UNL     1      14.733   6.700  19.905  0.00  0.00    +0.141 C 
BRANCH  24  25
ATOM      7  N   UNL     1      11.277   8.163  19.444  0.00  0.00    -0.263 NA
ATOM     25  C   UNL     1      13.370   7.240  20.227  0.00  0.00    -0.012 A 
ATOM     26  C   UNL     1      12.926   7.331  21.542  0.00  0.00    +0.008 A 
ATOM     27  C   UNL     1      12.515   7.665  19.224  0.00  0.00    +0.115 A 
ATOM     28  C   UNL     1      11.660   7.838  21.809  0.00  0.00    +0.020 A 
ATOM     29  C   UNL     1      10.881   8.236  20.734  0.00  0.00    +0.111 A 
ENDBRANCH  24  25
ENDBRANCH   6  24
ENDBRANCH  22  23
ENDBRANCH  17  22
ENDBRANCH  12  17
TORSDOF 7
ENDMDL
