MODEL 1
REMARK VINA RESULT:      -6.1      0.000      0.000
REMARK  Name = 45783981
REMARK  14 active torsions:
REMARK  status: ('A' for Active; 'I' for Inactive)
REMARK    1  A    between atoms: N_2  and  C_13
REMARK    2  A    between atoms: N_2  and  C_19
REMARK    3  A    between atoms: N_5  and  C_28
REMARK    4  A    between atoms: N_5  and  C_29
REMARK    5  A    between atoms: N_5  and  C_30
REMARK    6  A    between atoms: C_6  and  C_10
REMARK    7  A    between atoms: C_7  and  C_13
REMARK    8  A    between atoms: C_9  and  C_14
REMARK    9  A    between atoms: C_10  and  C_15
REMARK   10  A    between atoms: C_10  and  C_16
REMARK   11  A    between atoms: C_11  and  C_17
REMARK   12  A    between atoms: C_14  and  C_18
REMARK   13  A    between atoms: C_19  and  C_21
REMARK   14  A    between atoms: C_20  and  C_22
REMARK                            x       y       z     vdW  Elec       q    Type
REMARK                         _______ _______ _______ _____ _____    ______ ____
ROOT
ATOM      6  C   UNL     1      -6.768 -11.178  16.829  0.00  0.00    +0.000 C 
ATOM      7  C   UNL     1      -7.063 -11.426  18.330  0.00  0.00    +0.029 C 
ATOM      8  C   UNL     1      -5.675 -12.135  16.332  0.00  0.00    +0.012 C 
ATOM      9  C   UNL     1      -4.361 -11.978  17.119  0.00  0.00    +0.024 C 
ATOM     11  C   UNL     1      -4.600 -11.943  18.615  0.00  0.00    -0.073 C 
ATOM     12  C   UNL     1      -5.817 -11.709  19.137  0.00  0.00    -0.023 C 
ATOM     17  C   UNL     1      -3.417 -12.231  19.498  0.00  0.00    +0.039 C 
ENDROOT
BRANCH   6  10
ATOM     10  C   UNL     1      -8.027 -11.336  15.969  0.00  0.00    -0.013 C 
ATOM     15  C   UNL     1      -8.730 -12.651  16.293  0.00  0.00    +0.007 C 
ATOM     16  C   UNL     1      -7.672 -11.263  14.488  0.00  0.00    +0.007 C 
ENDBRANCH   6  10
BRANCH   7  13
ATOM     13  C   UNL     1      -7.815 -10.243  18.949  0.00  0.00    +0.089 C 
BRANCH  13   2
ATOM      2  N   UNL     1      -8.737 -10.701  19.974  0.00  0.00    -0.305 NA
ATOM     31  H   UNL     1      -8.356 -11.519  20.448  0.00  0.00    +0.123 HD
BRANCH   2  19
ATOM     19  C   UNL     1     -10.033 -11.043  19.399  0.00  0.00    +0.170 C 
BRANCH  19  21
ATOM     21  C   UNL     1     -10.535  -9.953  18.557  0.00  0.00    -0.090 C 
ATOM     25  C   UNL     1     -10.953  -9.065  17.866  0.00  0.00    +0.005 C 
ENDBRANCH  19  21
ENDBRANCH   2  19
ENDBRANCH  13   2
ENDBRANCH   7  13
BRANCH   9  14
ATOM     14  C   UNL     1      -3.586 -10.737  16.659  0.00  0.00    +0.105 C 
BRANCH  14  18
ATOM      1  O   UNL     1      -4.070 -10.421  14.288  0.00  0.00    -0.420 OA
ATOM      3  N   UNL     1      -2.058 -11.310  14.702  0.00  0.00    -0.112 NA
ATOM      4  N   UNL     1      -2.198 -11.188  13.333  0.00  0.00    -0.107 NA
ATOM     18  C   UNL     1      -3.175 -10.850  15.219  0.00  0.00    +0.218 A 
ATOM     20  C   UNL     1      -3.385 -10.665  13.137  0.00  0.00    +0.248 A 
BRANCH  20  22
ATOM     22  C   UNL     1      -4.061 -10.317  11.920  0.00  0.00    +0.039 A 
ATOM     23  C   UNL     1      -3.369 -10.333  10.709  0.00  0.00    +0.015 A 
ATOM     24  C   UNL     1      -5.410  -9.964  11.948  0.00  0.00    +0.015 A 
ATOM     26  C   UNL     1      -4.026  -9.996   9.525  0.00  0.00    +0.024 A 
ATOM     27  C   UNL     1      -6.068  -9.627  10.765  0.00  0.00    +0.024 A 
ATOM     28  C   UNL     1      -5.375  -9.643   9.554  0.00  0.00    +0.029 A 
BRANCH  28   5
ATOM      5  N   UNL     1      -6.038  -9.299   8.358  0.00  0.00    -0.336 N 
ATOM     29  C   UNL     1      -5.627  -9.884   7.096  0.00  0.00    +0.129 C 
ATOM     30  C   UNL     1      -7.134  -8.351   8.372  0.00  0.00    +0.129 C 
ENDBRANCH  28   5
ENDBRANCH  20  22
ENDBRANCH  14  18
ENDBRANCH   9  14
TORSDOF 9
ENDMDL
MODEL 2
REMARK VINA RESULT:      -5.8      2.151      9.280
REMARK  Name = 45783981
REMARK  14 active torsions:
REMARK  status: ('A' for Active; 'I' for Inactive)
REMARK    1  A    between atoms: N_2  and  C_13
REMARK    2  A    between atoms: N_2  and  C_19
REMARK    3  A    between atoms: N_5  and  C_28
REMARK    4  A    between atoms: N_5  and  C_29
REMARK    5  A    between atoms: N_5  and  C_30
REMARK    6  A    between atoms: C_6  and  C_10
REMARK    7  A    between atoms: C_7  and  C_13
REMARK    8  A    between atoms: C_9  and  C_14
REMARK    9  A    between atoms: C_10  and  C_15
REMARK   10  A    between atoms: C_10  and  C_16
REMARK   11  A    between atoms: C_11  and  C_17
REMARK   12  A    between atoms: C_14  and  C_18
REMARK   13  A    between atoms: C_19  and  C_21
REMARK   14  A    between atoms: C_20  and  C_22
REMARK                            x       y       z     vdW  Elec       q    Type
REMARK                         _______ _______ _______ _____ _____    ______ ____
ROOT
ATOM      6  C   UNL     1      -5.363 -10.556   6.715  0.00  0.00    +0.000 C 
ATOM      7  C   UNL     1      -6.778  -9.938   6.581  0.00  0.00    +0.029 C 
ATOM      8  C   UNL     1      -5.223 -11.286   8.059  0.00  0.00    +0.012 C 
ATOM      9  C   UNL     1      -5.462 -10.351   9.259  0.00  0.00    +0.024 C 
ATOM     11  C   UNL     1      -6.706  -9.505   9.075  0.00  0.00    -0.073 C 
ATOM     12  C   UNL     1      -7.288  -9.343   7.873  0.00  0.00    -0.023 C 
ATOM     17  C   UNL     1      -7.295  -8.887  10.313  0.00  0.00    +0.039 C 
ENDROOT
BRANCH   6  10
ATOM     10  C   UNL     1      -5.053 -11.520   5.566  0.00  0.00    -0.013 C 
ATOM     15  C   UNL     1      -6.253 -12.421   5.290  0.00  0.00    +0.007 C 
ATOM     16  C   UNL     1      -3.815 -12.351   5.887  0.00  0.00    +0.007 C 
ENDBRANCH   6  10
BRANCH   7  13
ATOM     13  C   UNL     1      -6.814  -8.872   5.480  0.00  0.00    +0.089 C 
BRANCH  13   2
ATOM      2  N   UNL     1      -7.453  -7.659   5.960  0.00  0.00    -0.305 NA
ATOM     31  H   UNL     1      -7.585  -7.709   6.970  0.00  0.00    +0.123 HD
BRANCH   2  19
ATOM     19  C   UNL     1      -8.748  -7.459   5.319  0.00  0.00    +0.170 C 
BRANCH  19  21
ATOM     21  C   UNL     1      -9.738  -6.965   6.281  0.00  0.00    -0.090 C 
ATOM     25  C   UNL     1     -10.545  -6.565   7.074  0.00  0.00    +0.005 C 
ENDBRANCH  19  21
ENDBRANCH   2  19
ENDBRANCH  13   2
ENDBRANCH   7  13
BRANCH   9  14
ATOM     14  C   UNL     1      -4.235  -9.470   9.526  0.00  0.00    +0.105 C 
BRANCH  14  18
ATOM      1  O   UNL     1      -4.318  -9.965  11.913  0.00  0.00    -0.420 OA
ATOM      3  N   UNL     1      -2.275 -10.129  11.014  0.00  0.00    -0.112 NA
ATOM      4  N   UNL     1      -2.176 -10.433  12.358  0.00  0.00    -0.107 NA
ATOM     18  C   UNL     1      -3.544  -9.863  10.799  0.00  0.00    +0.218 A 
ATOM     20  C   UNL     1      -3.391 -10.325  12.843  0.00  0.00    +0.248 A 
BRANCH  20  22
ATOM     22  C   UNL     1      -3.883 -10.523  14.176  0.00  0.00    +0.039 A 
ATOM     23  C   UNL     1      -5.240 -10.348  14.450  0.00  0.00    +0.015 A 
ATOM     24  C   UNL     1      -3.007 -10.891  15.196  0.00  0.00    +0.015 A 
ATOM     26  C   UNL     1      -5.720 -10.542  15.746  0.00  0.00    +0.024 A 
ATOM     27  C   UNL     1      -3.486 -11.085  16.492  0.00  0.00    +0.024 A 
ATOM     28  C   UNL     1      -4.843 -10.910  16.766  0.00  0.00    +0.029 A 
BRANCH  28   5
ATOM      5  N   UNL     1      -5.328 -11.103  18.076  0.00  0.00    -0.336 N 
ATOM     29  C   UNL     1      -6.638 -10.609  18.455  0.00  0.00    +0.129 C 
ATOM     30  C   UNL     1      -4.521 -11.791  19.064  0.00  0.00    +0.129 C 
ENDBRANCH  28   5
ENDBRANCH  20  22
ENDBRANCH  14  18
ENDBRANCH   9  14
TORSDOF 9
ENDMDL
MODEL 3
REMARK VINA RESULT:      -5.7     24.503     26.997
REMARK  Name = 45783981
REMARK  14 active torsions:
REMARK  status: ('A' for Active; 'I' for Inactive)
REMARK    1  A    between atoms: N_2  and  C_13
REMARK    2  A    between atoms: N_2  and  C_19
REMARK    3  A    between atoms: N_5  and  C_28
REMARK    4  A    between atoms: N_5  and  C_29
REMARK    5  A    between atoms: N_5  and  C_30
REMARK    6  A    between atoms: C_6  and  C_10
REMARK    7  A    between atoms: C_7  and  C_13
REMARK    8  A    between atoms: C_9  and  C_14
REMARK    9  A    between atoms: C_10  and  C_15
REMARK   10  A    between atoms: C_10  and  C_16
REMARK   11  A    between atoms: C_11  and  C_17
REMARK   12  A    between atoms: C_14  and  C_18
REMARK   13  A    between atoms: C_19  and  C_21
REMARK   14  A    between atoms: C_20  and  C_22
REMARK                            x       y       z     vdW  Elec       q    Type
REMARK                         _______ _______ _______ _____ _____    ______ ____
ROOT
ATOM      6  C   UNL     1      10.563   6.173   5.411  0.00  0.00    +0.000 C 
ATOM      7  C   UNL     1       9.431   7.123   4.946  0.00  0.00    +0.029 C 
ATOM      8  C   UNL     1      11.768   6.272   4.465  0.00  0.00    +0.012 C 
ATOM      9  C   UNL     1      11.400   5.917   3.012  0.00  0.00    +0.024 C 
ATOM     11  C   UNL     1      10.131   6.614   2.566  0.00  0.00    -0.073 C 
ATOM     12  C   UNL     1       9.270   7.159   3.444  0.00  0.00    -0.023 C 
ATOM     17  C   UNL     1       9.897   6.712   1.084  0.00  0.00    +0.039 C 
ENDROOT
BRANCH   6  10
ATOM     10  C   UNL     1      11.004   6.475   6.847  0.00  0.00    -0.013 C 
ATOM     15  C   UNL     1      12.522   6.607   6.920  0.00  0.00    +0.007 C 
ATOM     16  C   UNL     1      10.509   5.387   7.795  0.00  0.00    +0.007 C 
ENDBRANCH   6  10
BRANCH   7  13
ATOM     13  C   UNL     1       8.092   6.748   5.594  0.00  0.00    +0.089 C 
BRANCH  13   2
ATOM      2  N   UNL     1       7.697   7.749   6.570  0.00  0.00    -0.305 NA
ATOM     31  H   UNL     1       6.686   7.879   6.548  0.00  0.00    +0.123 HD
BRANCH   2  19
ATOM     19  C   UNL     1       8.349   9.026   6.305  0.00  0.00    +0.170 C 
BRANCH  19  21
ATOM     21  C   UNL     1       9.170   9.441   7.447  0.00  0.00    -0.090 C 
ATOM     25  C   UNL     1       9.837   9.778   8.386  0.00  0.00    +0.005 C 
ENDBRANCH  19  21
ENDBRANCH   2  19
ENDBRANCH  13   2
ENDBRANCH   7  13
BRANCH   9  14
ATOM     14  C   UNL     1      11.287   4.399   2.827  0.00  0.00    +0.105 C 
BRANCH  14  18
ATOM      1  O   UNL     1      11.626   3.940   0.455  0.00  0.00    -0.420 OA
ATOM      3  N   UNL     1      13.392   3.460   1.743  0.00  0.00    -0.112 NA
ATOM      4  N   UNL     1      13.721   3.153   0.436  0.00  0.00    -0.107 NA
ATOM     18  C   UNL     1      12.161   3.916   1.706  0.00  0.00    +0.218 A 
ATOM     20  C   UNL     1      12.662   3.449  -0.280  0.00  0.00    +0.248 A 
BRANCH  20  22
ATOM     22  C   UNL     1      12.430   3.338  -1.692  0.00  0.00    +0.039 A 
ATOM     23  C   UNL     1      13.360   3.856  -2.593  0.00  0.00    +0.015 A 
ATOM     24  C   UNL     1      11.277   2.711  -2.163  0.00  0.00    +0.015 A 
ATOM     26  C   UNL     1      13.136   3.747  -3.966  0.00  0.00    +0.024 A 
ATOM     27  C   UNL     1      11.052   2.602  -3.535  0.00  0.00    +0.024 A 
ATOM     28  C   UNL     1      11.982   3.120  -4.437  0.00  0.00    +0.029 A 
BRANCH  28   5
ATOM      5  N   UNL     1      11.755   3.013  -5.824  0.00  0.00    -0.336 N 
ATOM     29  C   UNL     1      10.405   3.039  -6.351  0.00  0.00    +0.129 C 
ATOM     30  C   UNL     1      12.868   2.865  -6.741  0.00  0.00    +0.129 C 
ENDBRANCH  28   5
ENDBRANCH  20  22
ENDBRANCH  14  18
ENDBRANCH   9  14
TORSDOF 9
ENDMDL
MODEL 4
REMARK VINA RESULT:      -5.7     25.964     29.863
REMARK  Name = 45783981
REMARK  14 active torsions:
REMARK  status: ('A' for Active; 'I' for Inactive)
REMARK    1  A    between atoms: N_2  and  C_13
REMARK    2  A    between atoms: N_2  and  C_19
REMARK    3  A    between atoms: N_5  and  C_28
REMARK    4  A    between atoms: N_5  and  C_29
REMARK    5  A    between atoms: N_5  and  C_30
REMARK    6  A    between atoms: C_6  and  C_10
REMARK    7  A    between atoms: C_7  and  C_13
REMARK    8  A    between atoms: C_9  and  C_14
REMARK    9  A    between atoms: C_10  and  C_15
REMARK   10  A    between atoms: C_10  and  C_16
REMARK   11  A    between atoms: C_11  and  C_17
REMARK   12  A    between atoms: C_14  and  C_18
REMARK   13  A    between atoms: C_19  and  C_21
REMARK   14  A    between atoms: C_20  and  C_22
REMARK                            x       y       z     vdW  Elec       q    Type
REMARK                         _______ _______ _______ _____ _____    ______ ____
ROOT
ATOM      6  C   UNL     1      18.155  -3.539  23.808  0.00  0.00    +0.000 C 
ATOM      7  C   UNL     1      19.029  -4.555  23.030  0.00  0.00    +0.029 C 
ATOM      8  C   UNL     1      19.033  -2.447  24.437  0.00  0.00    +0.012 C 
ATOM      9  C   UNL     1      20.083  -3.027  25.402  0.00  0.00    +0.024 C 
ATOM     11  C   UNL     1      20.808  -4.214  24.800  0.00  0.00    -0.073 C 
ATOM     12  C   UNL     1      20.328  -4.876  23.732  0.00  0.00    -0.023 C 
ATOM     17  C   UNL     1      22.121  -4.595  25.426  0.00  0.00    +0.039 C 
ENDROOT
BRANCH   6  10
ATOM     10  C   UNL     1      17.092  -2.899  22.910  0.00  0.00    -0.013 C 
ATOM     15  C   UNL     1      17.491  -1.471  22.551  0.00  0.00    +0.007 C 
ATOM     16  C   UNL     1      15.730  -2.923  23.597  0.00  0.00    +0.007 C 
ENDBRANCH   6  10
BRANCH   7  13
ATOM     13  C   UNL     1      18.261  -5.854  22.759  0.00  0.00    +0.089 C 
BRANCH  13   2
ATOM      2  N   UNL     1      18.654  -6.888  23.702  0.00  0.00    -0.305 NA
ATOM     31  H   UNL     1      19.159  -7.629  23.218  0.00  0.00    +0.123 HD
BRANCH   2  19
ATOM     19  C   UNL     1      17.489  -7.460  24.368  0.00  0.00    +0.170 C 
BRANCH  19  21
ATOM     21  C   UNL     1      17.009  -6.574  25.434  0.00  0.00    -0.090 C 
ATOM     25  C   UNL     1      16.617  -5.844  26.302  0.00  0.00    +0.005 C 
ENDBRANCH  19  21
ENDBRANCH   2  19
ENDBRANCH  13   2
ENDBRANCH   7  13
BRANCH   9  14
ATOM     14  C   UNL     1      19.451  -3.396  26.749  0.00  0.00    +0.105 C 
BRANCH  14  18
ATOM      1  O   UNL     1      18.954  -2.121  28.770  0.00  0.00    -0.420 OA
ATOM      3  N   UNL     1      21.055  -1.890  28.034  0.00  0.00    -0.112 NA
ATOM      4  N   UNL     1      20.914  -1.120  29.173  0.00  0.00    -0.107 NA
ATOM     18  C   UNL     1      19.886  -2.457  27.836  0.00  0.00    +0.218 A 
ATOM     20  C   UNL     1      19.674  -1.285  29.568  0.00  0.00    +0.248 A 
BRANCH  20  22
ATOM     22  C   UNL     1      18.971  -0.732  30.690  0.00  0.00    +0.039 A 
ATOM     23  C   UNL     1      17.675  -1.159  30.980  0.00  0.00    +0.015 A 
ATOM     24  C   UNL     1      19.584   0.232  31.490  0.00  0.00    +0.015 A 
ATOM     26  C   UNL     1      16.992  -0.622  32.072  0.00  0.00    +0.024 A 
ATOM     27  C   UNL     1      18.902   0.770  32.581  0.00  0.00    +0.024 A 
ATOM     28  C   UNL     1      17.606   0.343  32.872  0.00  0.00    +0.029 A 
BRANCH  28   5
ATOM      5  N   UNL     1      16.914   0.887  33.973  0.00  0.00    -0.336 N 
ATOM     29  C   UNL     1      16.154   2.114  33.830  0.00  0.00    +0.129 C 
ATOM     30  C   UNL     1      16.962   0.234  35.266  0.00  0.00    +0.129 C 
ENDBRANCH  28   5
ENDBRANCH  20  22
ENDBRANCH  14  18
ENDBRANCH   9  14
TORSDOF 9
ENDMDL
MODEL 5
REMARK VINA RESULT:      -5.6     29.268     31.942
REMARK  Name = 45783981
REMARK  14 active torsions:
REMARK  status: ('A' for Active; 'I' for Inactive)
REMARK    1  A    between atoms: N_2  and  C_13
REMARK    2  A    between atoms: N_2  and  C_19
REMARK    3  A    between atoms: N_5  and  C_28
REMARK    4  A    between atoms: N_5  and  C_29
REMARK    5  A    between atoms: N_5  and  C_30
REMARK    6  A    between atoms: C_6  and  C_10
REMARK    7  A    between atoms: C_7  and  C_13
REMARK    8  A    between atoms: C_9  and  C_14
REMARK    9  A    between atoms: C_10  and  C_15
REMARK   10  A    between atoms: C_10  and  C_16
REMARK   11  A    between atoms: C_11  and  C_17
REMARK   12  A    between atoms: C_14  and  C_18
REMARK   13  A    between atoms: C_19  and  C_21
REMARK   14  A    between atoms: C_20  and  C_22
REMARK                            x       y       z     vdW  Elec       q    Type
REMARK                         _______ _______ _______ _____ _____    ______ ____
ROOT
ATOM      6  C   UNL     1      22.375   5.568  22.341  0.00  0.00    +0.000 C 
ATOM      7  C   UNL     1      22.162   4.406  21.339  0.00  0.00    +0.029 C 
ATOM      8  C   UNL     1      21.036   5.997  22.959  0.00  0.00    +0.012 C 
ATOM      9  C   UNL     1      20.021   6.451  21.894  0.00  0.00    +0.024 C 
ATOM     11  C   UNL     1      19.951   5.481  20.732  0.00  0.00    -0.073 C 
ATOM     12  C   UNL     1      20.910   4.565  20.508  0.00  0.00    -0.023 C 
ATOM     17  C   UNL     1      18.729   5.556  19.859  0.00  0.00    +0.039 C 
ENDROOT
BRANCH   6  10
ATOM     10  C   UNL     1      23.362   5.189  23.450  0.00  0.00    -0.013 C 
ATOM     15  C   UNL     1      22.973   3.850  24.071  0.00  0.00    +0.007 C 
ATOM     16  C   UNL     1      23.415   6.282  24.512  0.00  0.00    +0.007 C 
ENDBRANCH   6  10
BRANCH   7  13
ATOM     13  C   UNL     1      23.373   4.244  20.413  0.00  0.00    +0.089 C 
BRANCH  13   2
ATOM      2  N   UNL     1      23.574   2.846  20.071  0.00  0.00    -0.305 NA
ATOM     31  H   UNL     1      22.877   2.268  20.538  0.00  0.00    +0.123 HD
BRANCH   2  19
ATOM     19  C   UNL     1      24.906   2.398  20.462  0.00  0.00    +0.170 C 
BRANCH  19  21
ATOM     21  C   UNL     1      24.833   1.464  21.590  0.00  0.00    -0.090 C 
ATOM     25  C   UNL     1      24.769   0.704  22.517  0.00  0.00    +0.005 C 
ENDBRANCH  19  21
ENDBRANCH   2  19
ENDBRANCH  13   2
ENDBRANCH   7  13
BRANCH   9  14
ATOM     14  C   UNL     1      20.333   7.871  21.405  0.00  0.00    +0.105 C 
BRANCH  14  18
ATOM      1  O   UNL     1      17.924   8.257  21.442  0.00  0.00    -0.420 OA
ATOM      3  N   UNL     1      19.149  10.065  21.931  0.00  0.00    -0.112 NA
ATOM      4  N   UNL     1      17.817  10.424  21.988  0.00  0.00    -0.107 NA
ATOM     18  C   UNL     1      19.165   8.791  21.609  0.00  0.00    +0.218 A 
ATOM     20  C   UNL     1      17.138   9.339  21.696  0.00  0.00    +0.248 A 
BRANCH  20  22
ATOM     22  C   UNL     1      15.723   9.121  21.605  0.00  0.00    +0.039 A 
ATOM     23  C   UNL     1      14.838  10.047  22.159  0.00  0.00    +0.015 A 
ATOM     24  C   UNL     1      15.232   7.985  20.963  0.00  0.00    +0.015 A 
ATOM     26  C   UNL     1      13.462   9.836  22.070  0.00  0.00    +0.024 A 
ATOM     27  C   UNL     1      13.856   7.773  20.874  0.00  0.00    +0.024 A 
ATOM     28  C   UNL     1      12.972   8.699  21.427  0.00  0.00    +0.029 A 
BRANCH  28   5
ATOM      5  N   UNL     1      11.581   8.485  21.340  0.00  0.00    -0.336 N 
ATOM     29  C   UNL     1      10.803   8.213  22.533  0.00  0.00    +0.129 C 
ATOM     30  C   UNL     1      10.911   8.524  20.055  0.00  0.00    +0.129 C 
ENDBRANCH  28   5
ENDBRANCH  20  22
ENDBRANCH  14  18
ENDBRANCH   9  14
TORSDOF 9
ENDMDL
MODEL 6
REMARK VINA RESULT:      -5.6     26.424     29.686
REMARK  Name = 45783981
REMARK  14 active torsions:
REMARK  status: ('A' for Active; 'I' for Inactive)
REMARK    1  A    between atoms: N_2  and  C_13
REMARK    2  A    between atoms: N_2  and  C_19
REMARK    3  A    between atoms: N_5  and  C_28
REMARK    4  A    between atoms: N_5  and  C_29
REMARK    5  A    between atoms: N_5  and  C_30
REMARK    6  A    between atoms: C_6  and  C_10
REMARK    7  A    between atoms: C_7  and  C_13
REMARK    8  A    between atoms: C_9  and  C_14
REMARK    9  A    between atoms: C_10  and  C_15
REMARK   10  A    between atoms: C_10  and  C_16
REMARK   11  A    between atoms: C_11  and  C_17
REMARK   12  A    between atoms: C_14  and  C_18
REMARK   13  A    between atoms: C_19  and  C_21
REMARK   14  A    between atoms: C_20  and  C_22
REMARK                            x       y       z     vdW  Elec       q    Type
REMARK                         _______ _______ _______ _____ _____    ______ ____
ROOT
ATOM      6  C   UNL     1      10.589   6.496   6.437  0.00  0.00    +0.000 C 
ATOM      7  C   UNL     1      10.193   6.543   4.939  0.00  0.00    +0.029 C 
ATOM      8  C   UNL     1      11.105   7.866   6.898  0.00  0.00    +0.012 C 
ATOM      9  C   UNL     1      12.327   8.333   6.085  0.00  0.00    +0.024 C 
ATOM     11  C   UNL     1      12.113   8.157   4.595  0.00  0.00    -0.073 C 
ATOM     12  C   UNL     1      11.146   7.363   4.102  0.00  0.00    -0.023 C 
ATOM     17  C   UNL     1      13.008   8.951   3.684  0.00  0.00    +0.039 C 
ENDROOT
BRANCH   6  10
ATOM     10  C   UNL     1       9.417   6.057   7.321  0.00  0.00    -0.013 C 
ATOM     15  C   UNL     1       8.813   7.262   8.037  0.00  0.00    +0.007 C 
ATOM     16  C   UNL     1       9.873   5.004   8.325  0.00  0.00    +0.007 C 
ENDBRANCH   6  10
BRANCH   7  13
ATOM     13  C   UNL     1      10.083   5.131   4.351  0.00  0.00    +0.089 C 
BRANCH  13   2
ATOM      2  N   UNL     1      11.320   4.753   3.690  0.00  0.00    -0.305 NA
ATOM     31  H   UNL     1      11.821   5.585   3.382  0.00  0.00    +0.123 HD
BRANCH   2  19
ATOM     19  C   UNL     1      11.059   3.898   2.538  0.00  0.00    +0.170 C 
BRANCH  19  21
ATOM     21  C   UNL     1      12.311   3.510   1.880  0.00  0.00    -0.090 C 
ATOM     25  C   UNL     1      13.338   3.200   1.342  0.00  0.00    +0.005 C 
ENDBRANCH  19  21
ENDBRANCH   2  19
ENDBRANCH  13   2
ENDBRANCH   7  13
BRANCH   9  14
ATOM     14  C   UNL     1      13.603   7.616   6.545  0.00  0.00    +0.105 C 
BRANCH  14  18
ATOM      1  O   UNL     1      15.939   7.873   5.889  0.00  0.00    -0.420 OA
ATOM      3  N   UNL     1      14.970   9.766   6.586  0.00  0.00    -0.112 NA
ATOM      4  N   UNL     1      16.279  10.055   6.250  0.00  0.00    -0.107 NA
ATOM     18  C   UNL     1      14.816   8.481   6.359  0.00  0.00    +0.218 A 
ATOM     20  C   UNL     1      16.806   8.922   5.849  0.00  0.00    +0.248 A 
BRANCH  20  22
ATOM     22  C   UNL     1      18.129   8.623   5.383  0.00  0.00    +0.039 A 
ATOM     23  C   UNL     1      19.207   8.671   6.268  0.00  0.00    +0.015 A 
ATOM     24  C   UNL     1      18.339   8.285   4.047  0.00  0.00    +0.015 A 
ATOM     26  C   UNL     1      20.494   8.379   5.816  0.00  0.00    +0.024 A 
ATOM     27  C   UNL     1      19.626   7.993   3.594  0.00  0.00    +0.024 A 
ATOM     28  C   UNL     1      20.703   8.041   4.479  0.00  0.00    +0.029 A 
BRANCH  28   5
ATOM      5  N   UNL     1      22.005   7.749   4.022  0.00  0.00    -0.336 N 
ATOM     29  C   UNL     1      22.210   7.178   2.704  0.00  0.00    +0.129 C 
ATOM     30  C   UNL     1      23.155   8.006   4.866  0.00  0.00    +0.129 C 
ENDBRANCH  28   5
ENDBRANCH  20  22
ENDBRANCH  14  18
ENDBRANCH   9  14
TORSDOF 9
ENDMDL
MODEL 7
REMARK VINA RESULT:      -5.5     23.928     26.706
REMARK  Name = 45783981
REMARK  14 active torsions:
REMARK  status: ('A' for Active; 'I' for Inactive)
REMARK    1  A    between atoms: N_2  and  C_13
REMARK    2  A    between atoms: N_2  and  C_19
REMARK    3  A    between atoms: N_5  and  C_28
REMARK    4  A    between atoms: N_5  and  C_29
REMARK    5  A    between atoms: N_5  and  C_30
REMARK    6  A    between atoms: C_6  and  C_10
REMARK    7  A    between atoms: C_7  and  C_13
REMARK    8  A    between atoms: C_9  and  C_14
REMARK    9  A    between atoms: C_10  and  C_15
REMARK   10  A    between atoms: C_10  and  C_16
REMARK   11  A    between atoms: C_11  and  C_17
REMARK   12  A    between atoms: C_14  and  C_18
REMARK   13  A    between atoms: C_19  and  C_21
REMARK   14  A    between atoms: C_20  and  C_22
REMARK                            x       y       z     vdW  Elec       q    Type
REMARK                         _______ _______ _______ _____ _____    ______ ____
ROOT
ATOM      6  C   UNL     1      11.263   7.858   6.146  0.00  0.00    +0.000 C 
ATOM      7  C   UNL     1      10.207   8.979   6.323  0.00  0.00    +0.029 C 
ATOM      8  C   UNL     1      11.658   7.725   4.668  0.00  0.00    +0.012 C 
ATOM      9  C   UNL     1      10.451   7.405   3.767  0.00  0.00    +0.024 C 
ATOM     11  C   UNL     1       9.267   8.301   4.072  0.00  0.00    -0.073 C 
ATOM     12  C   UNL     1       9.182   9.007   5.214  0.00  0.00    -0.023 C 
ATOM     17  C   UNL     1       8.204   8.404   3.013  0.00  0.00    +0.039 C 
ENDROOT
BRANCH   6  10
ATOM     10  C   UNL     1      12.511   8.112   6.997  0.00  0.00    -0.013 C 
ATOM     15  C   UNL     1      13.224   9.378   6.529  0.00  0.00    +0.007 C 
ATOM     16  C   UNL     1      13.448   6.910   6.940  0.00  0.00    +0.007 C 
ENDBRANCH   6  10
BRANCH   7  13
ATOM     13  C   UNL     1       9.493   8.857   7.675  0.00  0.00    +0.089 C 
BRANCH  13   2
ATOM      2  N   UNL     1       8.566   7.739   7.666  0.00  0.00    -0.305 NA
ATOM     31  H   UNL     1       7.624   8.062   7.886  0.00  0.00    +0.123 HD
BRANCH   2  19
ATOM     19  C   UNL     1       8.961   6.723   8.635  0.00  0.00    +0.170 C 
BRANCH  19  21
ATOM     21  C   UNL     1       9.510   5.543   7.961  0.00  0.00    -0.090 C 
ATOM     25  C   UNL     1       9.967   4.580   7.409  0.00  0.00    +0.005 C 
ENDBRANCH  19  21
ENDBRANCH   2  19
ENDBRANCH  13   2
ENDBRANCH   7  13
BRANCH   9  14
ATOM     14  C   UNL     1      10.060   5.926   3.872  0.00  0.00    +0.105 C 
BRANCH  14  18
ATOM      1  O   UNL     1      10.171   5.324   1.510  0.00  0.00    -0.420 OA
ATOM      3  N   UNL     1      11.620   4.217   2.806  0.00  0.00    -0.112 NA
ATOM      4  N   UNL     1      11.791   3.781   1.506  0.00  0.00    -0.107 NA
ATOM     18  C   UNL     1      10.665   5.118   2.761  0.00  0.00    +0.218 A 
ATOM     20  C   UNL     1      10.926   4.454   0.785  0.00  0.00    +0.248 A 
BRANCH  20  22
ATOM     22  C   UNL     1      10.657   4.414  -0.624  0.00  0.00    +0.039 A 
ATOM     23  C   UNL     1       9.691   5.259  -1.173  0.00  0.00    +0.015 A 
ATOM     24  C   UNL     1      11.360   3.533  -1.445  0.00  0.00    +0.015 A 
ATOM     26  C   UNL     1       9.430   5.221  -2.543  0.00  0.00    +0.024 A 
ATOM     27  C   UNL     1      11.099   3.495  -2.814  0.00  0.00    +0.024 A 
ATOM     28  C   UNL     1      10.134   4.339  -3.363  0.00  0.00    +0.029 A 
BRANCH  28   5
ATOM      5  N   UNL     1       9.868   4.300  -4.747  0.00  0.00    -0.336 N 
ATOM     29  C   UNL     1       9.658   3.033  -5.419  0.00  0.00    +0.129 C 
ATOM     30  C   UNL     1       9.809   5.526  -5.519  0.00  0.00    +0.129 C 
ENDBRANCH  28   5
ENDBRANCH  20  22
ENDBRANCH  14  18
ENDBRANCH   9  14
TORSDOF 9
ENDMDL
MODEL 8
REMARK VINA RESULT:      -5.5     24.368     27.583
REMARK  Name = 45783981
REMARK  14 active torsions:
REMARK  status: ('A' for Active; 'I' for Inactive)
REMARK    1  A    between atoms: N_2  and  C_13
REMARK    2  A    between atoms: N_2  and  C_19
REMARK    3  A    between atoms: N_5  and  C_28
REMARK    4  A    between atoms: N_5  and  C_29
REMARK    5  A    between atoms: N_5  and  C_30
REMARK    6  A    between atoms: C_6  and  C_10
REMARK    7  A    between atoms: C_7  and  C_13
REMARK    8  A    between atoms: C_9  and  C_14
REMARK    9  A    between atoms: C_10  and  C_15
REMARK   10  A    between atoms: C_10  and  C_16
REMARK   11  A    between atoms: C_11  and  C_17
REMARK   12  A    between atoms: C_14  and  C_18
REMARK   13  A    between atoms: C_19  and  C_21
REMARK   14  A    between atoms: C_20  and  C_22
REMARK                            x       y       z     vdW  Elec       q    Type
REMARK                         _______ _______ _______ _____ _____    ______ ____
ROOT
ATOM      6  C   UNL     1      11.381   8.560   5.094  0.00  0.00    +0.000 C 
ATOM      7  C   UNL     1      12.045   8.022   6.387  0.00  0.00    +0.029 C 
ATOM      8  C   UNL     1      10.080   9.304   5.430  0.00  0.00    +0.012 C 
ATOM      9  C   UNL     1       9.066   8.404   6.161  0.00  0.00    +0.024 C 
ATOM     11  C   UNL     1       9.713   7.629   7.291  0.00  0.00    -0.073 C 
ATOM     12  C   UNL     1      11.046   7.480   7.383  0.00  0.00    -0.023 C 
ATOM     17  C   UNL     1       8.794   7.068   8.341  0.00  0.00    +0.039 C 
ENDROOT
BRANCH   6  10
ATOM     10  C   UNL     1      12.321   9.484   4.314  0.00  0.00    -0.013 C 
ATOM     15  C   UNL     1      12.671  10.713   5.148  0.00  0.00    +0.007 C 
ATOM     16  C   UNL     1      11.687   9.893   2.988  0.00  0.00    +0.007 C 
ENDBRANCH   6  10
BRANCH   7  13
ATOM     13  C   UNL     1      13.084   6.941   6.066  0.00  0.00    +0.089 C 
BRANCH  13   2
ATOM      2  N   UNL     1      14.260   7.094   6.906  0.00  0.00    -0.305 NA
ATOM     31  H   UNL     1      13.989   7.426   7.831  0.00  0.00    +0.123 HD
BRANCH   2  19
ATOM     19  C   UNL     1      15.205   8.037   6.318  0.00  0.00    +0.170 C 
BRANCH  19  21
ATOM     21  C   UNL     1      15.507   7.676   4.929  0.00  0.00    -0.090 C 
ATOM     25  C   UNL     1      15.759   7.386   3.792  0.00  0.00    +0.005 C 
ENDBRANCH  19  21
ENDBRANCH   2  19
ENDBRANCH  13   2
ENDBRANCH   7  13
BRANCH   9  14
ATOM     14  C   UNL     1       8.359   7.459   5.182  0.00  0.00    +0.105 C 
BRANCH  14  18
ATOM      1  O   UNL     1      10.054   6.347   3.824  0.00  0.00    -0.420 OA
ATOM      3  N   UNL     1       9.241   5.089   5.487  0.00  0.00    -0.112 NA
ATOM      4  N   UNL     1      10.182   4.341   4.806  0.00  0.00    -0.107 NA
ATOM     18  C   UNL     1       9.199   6.253   4.880  0.00  0.00    +0.218 A 
ATOM     20  C   UNL     1      10.630   5.114   3.845  0.00  0.00    +0.248 A 
BRANCH  20  22
ATOM     22  C   UNL     1      11.615   4.866   2.832  0.00  0.00    +0.039 A 
ATOM     23  C   UNL     1      12.449   5.898   2.403  0.00  0.00    +0.015 A 
ATOM     24  C   UNL     1      11.738   3.593   2.275  0.00  0.00    +0.015 A 
ATOM     26  C   UNL     1      13.408   5.657   1.418  0.00  0.00    +0.024 A 
ATOM     27  C   UNL     1      12.696   3.351   1.291  0.00  0.00    +0.024 A 
ATOM     28  C   UNL     1      13.531   4.383   0.863  0.00  0.00    +0.029 A 
BRANCH  28   5
ATOM      5  N   UNL     1      14.498   4.141  -0.134  0.00  0.00    -0.336 N 
ATOM     29  C   UNL     1      15.899   4.008   0.218  0.00  0.00    +0.129 C 
ATOM     30  C   UNL     1      14.107   4.030  -1.525  0.00  0.00    +0.129 C 
ENDBRANCH  28   5
ENDBRANCH  20  22
ENDBRANCH  14  18
ENDBRANCH   9  14
TORSDOF 9
ENDMDL
MODEL 9
REMARK VINA RESULT:      -5.4     24.088     28.783
REMARK  Name = 45783981
REMARK  14 active torsions:
REMARK  status: ('A' for Active; 'I' for Inactive)
REMARK    1  A    between atoms: N_2  and  C_13
REMARK    2  A    between atoms: N_2  and  C_19
REMARK    3  A    between atoms: N_5  and  C_28
REMARK    4  A    between atoms: N_5  and  C_29
REMARK    5  A    between atoms: N_5  and  C_30
REMARK    6  A    between atoms: C_6  and  C_10
REMARK    7  A    between atoms: C_7  and  C_13
REMARK    8  A    between atoms: C_9  and  C_14
REMARK    9  A    between atoms: C_10  and  C_15
REMARK   10  A    between atoms: C_10  and  C_16
REMARK   11  A    between atoms: C_11  and  C_17
REMARK   12  A    between atoms: C_14  and  C_18
REMARK   13  A    between atoms: C_19  and  C_21
REMARK   14  A    between atoms: C_20  and  C_22
REMARK                            x       y       z     vdW  Elec       q    Type
REMARK                         _______ _______ _______ _____ _____    ______ ____
ROOT
ATOM      6  C   UNL     1      12.746   5.739  -2.427  0.00  0.00    +0.000 C 
ATOM      7  C   UNL     1      14.063   5.668  -3.242  0.00  0.00    +0.029 C 
ATOM      8  C   UNL     1      13.045   6.029  -0.949  0.00  0.00    +0.012 C 
ATOM      9  C   UNL     1      13.952   4.956  -0.317  0.00  0.00    +0.024 C 
ATOM     11  C   UNL     1      15.143   4.635  -1.198  0.00  0.00    -0.073 C 
ATOM     12  C   UNL     1      15.180   4.972  -2.499  0.00  0.00    -0.023 C 
ATOM     17  C   UNL     1      16.311   3.956  -0.537  0.00  0.00    +0.039 C 
ENDROOT
BRANCH   6  10
ATOM     10  C   UNL     1      11.792   6.802  -2.982  0.00  0.00    -0.013 C 
ATOM     15  C   UNL     1      11.710   7.991  -2.029  0.00  0.00    +0.007 C 
ATOM     16  C   UNL     1      10.410   6.203  -3.221  0.00  0.00    +0.007 C 
ENDBRANCH   6  10
BRANCH   7  13
ATOM     13  C   UNL     1      13.842   4.978  -4.593  0.00  0.00    +0.089 C 
BRANCH  13   2
ATOM      2  N   UNL     1      13.662   3.547  -4.415  0.00  0.00    -0.305 NA
ATOM     31  H   UNL     1      14.362   3.037  -4.951  0.00  0.00    +0.123 HD
BRANCH   2  19
ATOM     19  C   UNL     1      12.332   3.128  -4.844  0.00  0.00    +0.170 C 
BRANCH  19  21
ATOM     21  C   UNL     1      11.554   2.619  -3.710  0.00  0.00    -0.090 C 
ATOM     25  C   UNL     1      10.916   2.195  -2.786  0.00  0.00    +0.005 C 
ENDBRANCH  19  21
ENDBRANCH   2  19
ENDBRANCH  13   2
ENDBRANCH   7  13
BRANCH   9  14
ATOM     14  C   UNL     1      13.158   3.688   0.016  0.00  0.00    +0.105 C 
BRANCH  14  18
ATOM      1  O   UNL     1      11.886   4.446   1.956  0.00  0.00    -0.420 OA
ATOM      3  N   UNL     1      10.629   3.953   0.172  0.00  0.00    -0.112 NA
ATOM      4  N   UNL     1       9.787   4.364   1.187  0.00  0.00    -0.107 NA
ATOM     18  C   UNL     1      11.844   4.017   0.665  0.00  0.00    +0.218 A 
ATOM     20  C   UNL     1      10.563   4.642   2.209  0.00  0.00    +0.248 A 
BRANCH  20  22
ATOM     22  C   UNL     1      10.239   5.111   3.525  0.00  0.00    +0.039 A 
ATOM     23  C   UNL     1       9.906   6.451   3.724  0.00  0.00    +0.015 A 
ATOM     24  C   UNL     1      10.256   4.228   4.605  0.00  0.00    +0.015 A 
ATOM     26  C   UNL     1       9.590   6.908   5.005  0.00  0.00    +0.024 A 
ATOM     27  C   UNL     1       9.940   4.684   5.884  0.00  0.00    +0.024 A 
ATOM     28  C   UNL     1       9.607   6.025   6.084  0.00  0.00    +0.029 A 
BRANCH  28   5
ATOM      5  N   UNL     1       9.290   6.487   7.377  0.00  0.00    -0.336 N 
ATOM     29  C   UNL     1       9.419   5.608   8.524  0.00  0.00    +0.129 C 
ATOM     30  C   UNL     1       8.822   7.844   7.578  0.00  0.00    +0.129 C 
ENDBRANCH  28   5
ENDBRANCH  20  22
ENDBRANCH  14  18
ENDBRANCH   9  14
TORSDOF 9
ENDMDL
MODEL 10
REMARK VINA RESULT:      -5.4     25.749     29.203
REMARK  Name = 45783981
REMARK  14 active torsions:
REMARK  status: ('A' for Active; 'I' for Inactive)
REMARK    1  A    between atoms: N_2  and  C_13
REMARK    2  A    between atoms: N_2  and  C_19
REMARK    3  A    between atoms: N_5  and  C_28
REMARK    4  A    between atoms: N_5  and  C_29
REMARK    5  A    between atoms: N_5  and  C_30
REMARK    6  A    between atoms: C_6  and  C_10
REMARK    7  A    between atoms: C_7  and  C_13
REMARK    8  A    between atoms: C_9  and  C_14
REMARK    9  A    between atoms: C_10  and  C_15
REMARK   10  A    between atoms: C_10  and  C_16
REMARK   11  A    between atoms: C_11  and  C_17
REMARK   12  A    between atoms: C_14  and  C_18
REMARK   13  A    between atoms: C_19  and  C_21
REMARK   14  A    between atoms: C_20  and  C_22
REMARK                            x       y       z     vdW  Elec       q    Type
REMARK                         _______ _______ _______ _____ _____    ______ ____
ROOT
ATOM      6  C   UNL     1      17.612  -5.751  25.167  0.00  0.00    +0.000 C 
ATOM      7  C   UNL     1      17.295  -5.820  23.652  0.00  0.00    +0.029 C 
ATOM      8  C   UNL     1      17.058  -4.453  25.772  0.00  0.00    +0.012 C 
ATOM      9  C   UNL     1      17.642  -3.199  25.095  0.00  0.00    +0.024 C 
ATOM     11  C   UNL     1      17.610  -3.308  23.584  0.00  0.00    -0.073 C 
ATOM     12  C   UNL     1      17.441  -4.486  22.957  0.00  0.00    -0.023 C 
ATOM     17  C   UNL     1      17.731  -2.025  22.809  0.00  0.00    +0.039 C 
ENDROOT
BRANCH   6  10
ATOM     10  C   UNL     1      17.046  -6.959  25.921  0.00  0.00    -0.013 C 
ATOM     15  C   UNL     1      15.808  -6.555  26.716  0.00  0.00    +0.007 C 
ATOM     16  C   UNL     1      18.107  -7.559  26.838  0.00  0.00    +0.007 C 
ENDBRANCH   6  10
BRANCH   7  13
ATOM     13  C   UNL     1      18.176  -6.860  22.949  0.00  0.00    +0.089 C 
BRANCH  13   2
ATOM      2  N   UNL     1      19.560  -6.729  23.370  0.00  0.00    -0.305 NA
ATOM     31  H   UNL     1      19.734  -5.784  23.712  0.00  0.00    +0.123 HD
BRANCH   2  19
ATOM     19  C   UNL     1      20.473  -7.014  22.268  0.00  0.00    +0.170 C 
BRANCH  19  21
ATOM     21  C   UNL     1      20.189  -6.150  21.118  0.00  0.00    -0.090 C 
ATOM     25  C   UNL     1      19.949  -5.445  20.176  0.00  0.00    +0.005 C 
ENDBRANCH  19  21
ENDBRANCH   2  19
ENDBRANCH  13   2
ENDBRANCH   7  13
BRANCH   9  14
ATOM     14  C   UNL     1      19.063  -2.912  25.595  0.00  0.00    +0.105 C 
BRANCH  14  18
ATOM      1  O   UNL     1      18.596  -2.100  27.848  0.00  0.00    -0.420 OA
ATOM      3  N   UNL     1      19.731  -4.027  27.786  0.00  0.00    -0.112 NA
ATOM      4  N   UNL     1      19.538  -3.687  29.111  0.00  0.00    -0.107 NA
ATOM     18  C   UNL     1      19.164  -3.072  27.084  0.00  0.00    +0.218 A 
ATOM     20  C   UNL     1      18.872  -2.557  29.100  0.00  0.00    +0.248 A 
BRANCH  20  22
ATOM     22  C   UNL     1      18.398  -1.744  30.183  0.00  0.00    +0.039 A 
ATOM     23  C   UNL     1      19.200  -0.720  30.688  0.00  0.00    +0.015 A 
ATOM     24  C   UNL     1      17.136  -1.976  30.730  0.00  0.00    +0.015 A 
ATOM     26  C   UNL     1      18.739   0.072  31.740  0.00  0.00    +0.024 A 
ATOM     27  C   UNL     1      16.675  -1.185  31.782  0.00  0.00    +0.024 A 
ATOM     28  C   UNL     1      17.477  -0.161  32.287  0.00  0.00    +0.029 A 
BRANCH  28   5
ATOM      5  N   UNL     1      17.013   0.638  33.352  0.00  0.00    -0.336 N 
ATOM     29  C   UNL     1      16.409   1.931  33.092  0.00  0.00    +0.129 C 
ATOM     30  C   UNL     1      17.140   0.182  34.722  0.00  0.00    +0.129 C 
ENDBRANCH  28   5
ENDBRANCH  20  22
ENDBRANCH  14  18
ENDBRANCH   9  14
TORSDOF 9
ENDMDL
