REMARK  Name = 45784235
REMARK  3 active torsions:
REMARK  status: ('A' for Active; 'I' for Inactive)
REMARK    1  A    between atoms: N_4  and  C_12
REMARK    2  A    between atoms: C_7  and  C_11
REMARK    3  A    between atoms: C_12  and  C_13
REMARK                            x       y       z     vdW  Elec       q    Type
REMARK                         _______ _______ _______ _____ _____    ______ ____
ROOT
ATOM      4  N   UNL     1      -1.062  -0.480  -0.169  0.00  0.00    -0.297 NA
ATOM      7  C   UNL     1       1.136  -0.792   0.586  0.00  0.00    +0.070 C 
ATOM      8  C   UNL     1       0.366   0.083   1.590  0.00  0.00    +0.028 C 
ATOM      9  C   UNL     1       0.276  -0.772  -0.685  0.00  0.00    +0.096 C 
ATOM     10  C   UNL     1      -0.861   0.570   0.830  0.00  0.00    +0.085 C 
ENDROOT
BRANCH   7  11
ATOM      1  F   UNL     1       8.355  -0.279  -0.041  0.00  0.00    -0.205 F 
ATOM      5  N   UNL     1       3.611  -1.209   0.598  0.00  0.00    -0.341 N 
ATOM      6  N   UNL     1       2.971   0.791  -0.131  0.00  0.00    -0.232 NA
ATOM     11  C   UNL     1       2.565  -0.368   0.338  0.00  0.00    +0.113 A 
ATOM     14  C   UNL     1       4.769  -0.549   0.276  0.00  0.00    +0.069 A 
ATOM     15  C   UNL     1       4.343   0.697  -0.176  0.00  0.00    +0.089 A 
ATOM     19  C   UNL     1       6.112  -0.923   0.339  0.00  0.00    +0.066 A 
ATOM     20  C   UNL     1       5.299   1.638  -0.594  0.00  0.00    +0.032 A 
ATOM     23  C   UNL     1       7.050   0.025  -0.081  0.00  0.00    +0.125 A 
ATOM     24  C   UNL     1       6.653   1.284  -0.539  0.00  0.00    +0.040 A 
ATOM     26  H   UNL     1       3.546  -2.150   0.963  0.00  0.00    +0.167 HD
ENDBRANCH   7  11
BRANCH   4  12
ATOM     12  C   UNL     1      -1.986  -0.076  -1.218  0.00  0.00    +0.119 C 
BRANCH  12  13
ATOM      2  O   UNL     1      -6.309   1.772   0.330  0.00  0.00    -0.453 OA
ATOM      3  O   UNL     1      -7.341  -0.404   0.423  0.00  0.00    -0.453 OA
ATOM     13  C   UNL     1      -3.421  -0.201  -0.781  0.00  0.00    -0.030 A 
ATOM     16  C   UNL     1      -4.143   0.944  -0.435  0.00  0.00    +0.054 A 
ATOM     17  C   UNL     1      -4.024  -1.471  -0.727  0.00  0.00    +0.009 A 
ATOM     18  C   UNL     1      -5.456   0.779  -0.042  0.00  0.00    +0.167 A 
ATOM     21  C   UNL     1      -5.355  -1.610  -0.326  0.00  0.00    +0.050 A 
ATOM     22  C   UNL     1      -6.045  -0.464   0.011  0.00  0.00    +0.166 A 
ATOM     25  C   UNL     1      -7.501   1.015   0.623  0.00  0.00    +0.466 C 
ENDBRANCH  12  13
ENDBRANCH   4  12
TORSDOF 3
