MODEL 1
REMARK VINA RESULT:      -6.3      0.000      0.000
REMARK  Name = 38026924
REMARK  10 active torsions:
REMARK  status: ('A' for Active; 'I' for Inactive)
REMARK    1  A    between atoms: N_5  and  C_15
REMARK    2  A    between atoms: C_7  and  C_11
REMARK    3  A    between atoms: C_8  and  C_15
REMARK    4  A    between atoms: C_10  and  C_14
REMARK    5  A    between atoms: C_11  and  C_16
REMARK    6  A    between atoms: C_11  and  C_17
REMARK    7  A    between atoms: C_12  and  C_18
REMARK    8  A    between atoms: C_14  and  C_19
REMARK    9  A    between atoms: C_24  and  C_26
REMARK   10  A    between atoms: C_25  and  C_27
REMARK                            x       y       z     vdW  Elec       q    Type
REMARK                         _______ _______ _______ _____ _____    ______ ____
ROOT
ATOM      7  C   UNL     1      11.587  12.571  22.892  0.00  0.00    +0.000 C 
ATOM      8  C   UNL     1      10.758  11.768  23.924  0.00  0.00    +0.032 C 
ATOM      9  C   UNL     1      11.306  12.067  21.468  0.00  0.00    +0.012 C 
ATOM     10  C   UNL     1      11.638  10.572  21.304  0.00  0.00    +0.023 C 
ATOM     12  C   UNL     1      11.076   9.742  22.439  0.00  0.00    -0.073 C 
ATOM     13  C   UNL     1      10.675  10.295  23.597  0.00  0.00    -0.022 C 
ATOM     18  C   UNL     1      10.941   8.264  22.195  0.00  0.00    +0.039 C 
ENDROOT
BRANCH   7  11
ATOM     11  C   UNL     1      11.300  14.074  22.977  0.00  0.00    -0.013 C 
ATOM     16  C   UNL     1      12.603  14.862  23.050  0.00  0.00    +0.007 C 
ATOM     17  C   UNL     1      10.462  14.523  21.784  0.00  0.00    +0.007 C 
ENDBRANCH   7  11
BRANCH  10  14
ATOM     14  C   UNL     1      13.149  10.354  21.160  0.00  0.00    +0.103 C 
BRANCH  14  19
ATOM      1  O   UNL     1      12.542   9.231  19.164  0.00  0.00    -0.276 OA
ATOM      3  O   UNL     1      18.911   6.609  21.075  0.00  0.00    -0.276 OA
ATOM      4  N   UNL     1      14.695   8.860  19.949  0.00  0.00    -0.298 N 
ATOM      6  N   UNL     1      16.736   6.930  20.327  0.00  0.00    -0.299 N 
ATOM     19  C   UNL     1      13.427   9.434  20.000  0.00  0.00    +0.216 C 
ATOM     20  C   UNL     1      15.045   7.951  18.854  0.00  0.00    +0.126 C 
ATOM     21  C   UNL     1      15.794   9.139  20.885  0.00  0.00    +0.126 C 
ATOM     22  C   UNL     1      15.638   6.651  19.392  0.00  0.00    +0.126 C 
ATOM     23  C   UNL     1      16.387   7.839  21.422  0.00  0.00    +0.126 C 
ATOM     25  C   UNL     1      18.005   6.358  20.276  0.00  0.00    +0.213 C 
ATOM     27  C   UNL     1      18.258   5.375  19.160  0.00  0.00    +0.109 C 
ENDBRANCH  14  19
ENDBRANCH  10  14
BRANCH   8  15
ATOM     15  C   UNL     1      11.316  11.945  25.341  0.00  0.00    +0.112 C 
BRANCH  15   5
ATOM      2  O   UNL     1      13.571  13.547  26.223  0.00  0.00    -0.276 OA
ATOM      5  N   UNL     1      12.689  11.554  25.400  0.00  0.00    -0.315 N 
ATOM     24  C   UNL     1      13.714  12.390  25.837  0.00  0.00    +0.210 C 
ATOM     26  C   UNL     1      15.061  11.719  25.821  0.00  0.00    +0.109 C 
ATOM     28  H   UNL     1      12.920  10.592  25.165  0.00  0.00    +0.149 HD
ENDBRANCH  15   5
ENDBRANCH   8  15
TORSDOF 5
ENDMDL
MODEL 2
REMARK VINA RESULT:      -6.2     16.298     18.991
REMARK  Name = 38026924
REMARK  10 active torsions:
REMARK  status: ('A' for Active; 'I' for Inactive)
REMARK    1  A    between atoms: N_5  and  C_15
REMARK    2  A    between atoms: C_7  and  C_11
REMARK    3  A    between atoms: C_8  and  C_15
REMARK    4  A    between atoms: C_10  and  C_14
REMARK    5  A    between atoms: C_11  and  C_16
REMARK    6  A    between atoms: C_11  and  C_17
REMARK    7  A    between atoms: C_12  and  C_18
REMARK    8  A    between atoms: C_14  and  C_19
REMARK    9  A    between atoms: C_24  and  C_26
REMARK   10  A    between atoms: C_25  and  C_27
REMARK                            x       y       z     vdW  Elec       q    Type
REMARK                         _______ _______ _______ _____ _____    ______ ____
ROOT
ATOM      7  C   UNL     1       9.634   7.003   5.838  0.00  0.00    +0.000 C 
ATOM      8  C   UNL     1       9.523   5.512   6.239  0.00  0.00    +0.032 C 
ATOM      9  C   UNL     1       9.364   7.176   4.335  0.00  0.00    +0.012 C 
ATOM     10  C   UNL     1      10.347   6.364   3.470  0.00  0.00    +0.023 C 
ATOM     12  C   UNL     1      10.495   4.943   3.972  0.00  0.00    -0.073 C 
ATOM     13  C   UNL     1      10.109   4.577   5.207  0.00  0.00    -0.022 C 
ATOM     18  C   UNL     1      11.056   3.938   3.003  0.00  0.00    +0.039 C 
ENDROOT
BRANCH   7  11
ATOM     11  C   UNL     1       8.670   7.882   6.642  0.00  0.00    -0.013 C 
ATOM     16  C   UNL     1       9.422   8.631   7.737  0.00  0.00    +0.007 C 
ATOM     17  C   UNL     1       7.944   8.856   5.720  0.00  0.00    +0.007 C 
ENDBRANCH   7  11
BRANCH  10  14
ATOM     14  C   UNL     1      11.709   7.060   3.380  0.00  0.00    +0.103 C 
BRANCH  14  19
ATOM      1  O   UNL     1      11.246   8.240   1.377  0.00  0.00    -0.276 OA
ATOM      3  O   UNL     1      16.539   3.690  -0.163  0.00  0.00    -0.276 OA
ATOM      4  N   UNL     1      13.114   6.860   1.360  0.00  0.00    -0.298 N 
ATOM      6  N   UNL     1      14.634   5.018  -0.165  0.00  0.00    -0.299 N 
ATOM     19  C   UNL     1      11.996   7.445   1.951  0.00  0.00    +0.216 C 
ATOM     20  C   UNL     1      13.460   7.179  -0.028  0.00  0.00    +0.126 C 
ATOM     21  C   UNL     1      14.067   5.970   2.037  0.00  0.00    +0.126 C 
ATOM     22  C   UNL     1      13.680   5.907  -0.842  0.00  0.00    +0.126 C 
ATOM     23  C   UNL     1      14.288   4.699   1.223  0.00  0.00    +0.126 C 
ATOM     25  C   UNL     1      15.753   4.434  -0.754  0.00  0.00    +0.213 C 
ATOM     27  C   UNL     1      15.995   4.756  -2.208  0.00  0.00    +0.109 C 
ENDBRANCH  14  19
ENDBRANCH  10  14
BRANCH   8  15
ATOM     15  C   UNL     1      10.186   5.253   7.597  0.00  0.00    +0.112 C 
BRANCH  15   5
ATOM      2  O   UNL     1      10.570   5.047  10.467  0.00  0.00    -0.276 OA
ATOM      5  N   UNL     1       9.211   4.903   8.580  0.00  0.00    -0.315 N 
ATOM     24  C   UNL     1       9.480   4.827   9.945  0.00  0.00    +0.210 C 
ATOM     26  C   UNL     1       8.269   4.462  10.759  0.00  0.00    +0.109 C 
ATOM     28  H   UNL     1       8.253   4.761   8.272  0.00  0.00    +0.149 HD
ENDBRANCH  15   5
ENDBRANCH   8  15
TORSDOF 5
ENDMDL
MODEL 3
REMARK VINA RESULT:      -6.2     27.546     30.455
REMARK  Name = 38026924
REMARK  10 active torsions:
REMARK  status: ('A' for Active; 'I' for Inactive)
REMARK    1  A    between atoms: N_5  and  C_15
REMARK    2  A    between atoms: C_7  and  C_11
REMARK    3  A    between atoms: C_8  and  C_15
REMARK    4  A    between atoms: C_10  and  C_14
REMARK    5  A    between atoms: C_11  and  C_16
REMARK    6  A    between atoms: C_11  and  C_17
REMARK    7  A    between atoms: C_12  and  C_18
REMARK    8  A    between atoms: C_14  and  C_19
REMARK    9  A    between atoms: C_24  and  C_26
REMARK   10  A    between atoms: C_25  and  C_27
REMARK                            x       y       z     vdW  Elec       q    Type
REMARK                         _______ _______ _______ _____ _____    ______ ____
ROOT
ATOM      7  C   UNL     1      -2.915 -12.537  13.229  0.00  0.00    +0.000 C 
ATOM      8  C   UNL     1      -1.895 -11.378  13.346  0.00  0.00    +0.032 C 
ATOM      9  C   UNL     1      -3.163 -12.888  11.754  0.00  0.00    +0.012 C 
ATOM     10  C   UNL     1      -3.696 -11.687  10.951  0.00  0.00    +0.023 C 
ATOM     12  C   UNL     1      -2.897 -10.429  11.223  0.00  0.00    -0.073 C 
ATOM     13  C   UNL     1      -2.087 -10.314  12.290  0.00  0.00    -0.022 C 
ATOM     18  C   UNL     1      -3.015  -9.321  10.212  0.00  0.00    +0.039 C 
ENDROOT
BRANCH   7  11
ATOM     11  C   UNL     1      -2.448 -13.784  13.988  0.00  0.00    -0.013 C 
ATOM     16  C   UNL     1      -3.617 -14.424  14.730  0.00  0.00    +0.007 C 
ATOM     17  C   UNL     1      -1.805 -14.780  13.029  0.00  0.00    +0.007 C 
ENDBRANCH   7  11
BRANCH  10  14
ATOM     14  C   UNL     1      -5.188 -11.459  11.223  0.00  0.00    +0.103 C 
BRANCH  14  19
ATOM      1  O   UNL     1      -5.942 -12.742   9.378  0.00  0.00    -0.276 OA
ATOM      3  O   UNL     1      -8.124  -6.042   8.179  0.00  0.00    -0.276 OA
ATOM      4  N   UNL     1      -6.705 -10.552   9.500  0.00  0.00    -0.298 N 
ATOM      6  N   UNL     1      -7.307  -8.210   8.023  0.00  0.00    -0.299 N 
ATOM     19  C   UNL     1      -5.976 -11.650   9.952  0.00  0.00    +0.216 C 
ATOM     20  C   UNL     1      -7.496 -10.654   8.271  0.00  0.00    +0.126 C 
ATOM     21  C   UNL     1      -6.826  -9.265  10.199  0.00  0.00    +0.126 C 
ATOM     22  C   UNL     1      -7.185  -9.497   7.325  0.00  0.00    +0.126 C 
ATOM     23  C   UNL     1      -6.517  -8.108   9.252  0.00  0.00    +0.126 C 
ATOM     25  C   UNL     1      -8.038  -7.113   7.573  0.00  0.00    +0.213 C 
ATOM     27  C   UNL     1      -8.762  -7.277   6.260  0.00  0.00    +0.109 C 
ENDBRANCH  14  19
ENDBRANCH  10  14
BRANCH   8  15
ATOM     15  C   UNL     1      -1.947 -10.732  14.735  0.00  0.00    +0.112 C 
BRANCH  15   5
ATOM      2  O   UNL     1      -3.514 -11.342  17.102  0.00  0.00    -0.276 OA
ATOM      5  N   UNL     1      -3.269 -10.286  15.040  0.00  0.00    -0.315 N 
ATOM     24  C   UNL     1      -3.953 -10.627  16.205  0.00  0.00    +0.210 C 
ATOM     26  C   UNL     1      -5.319 -10.001  16.284  0.00  0.00    +0.109 C 
ATOM     28  H   UNL     1      -3.711  -9.633  14.397  0.00  0.00    +0.149 HD
ENDBRANCH  15   5
ENDBRANCH   8  15
TORSDOF 5
ENDMDL
MODEL 4
REMARK VINA RESULT:      -6.1      4.075      6.467
REMARK  Name = 38026924
REMARK  10 active torsions:
REMARK  status: ('A' for Active; 'I' for Inactive)
REMARK    1  A    between atoms: N_5  and  C_15
REMARK    2  A    between atoms: C_7  and  C_11
REMARK    3  A    between atoms: C_8  and  C_15
REMARK    4  A    between atoms: C_10  and  C_14
REMARK    5  A    between atoms: C_11  and  C_16
REMARK    6  A    between atoms: C_11  and  C_17
REMARK    7  A    between atoms: C_12  and  C_18
REMARK    8  A    between atoms: C_14  and  C_19
REMARK    9  A    between atoms: C_24  and  C_26
REMARK   10  A    between atoms: C_25  and  C_27
REMARK                            x       y       z     vdW  Elec       q    Type
REMARK                         _______ _______ _______ _____ _____    ______ ____
ROOT
ATOM      7  C   UNL     1      13.286   8.548  19.848  0.00  0.00    +0.000 C 
ATOM      8  C   UNL     1      12.956   9.842  19.064  0.00  0.00    +0.032 C 
ATOM      9  C   UNL     1      13.985   8.888  21.173  0.00  0.00    +0.012 C 
ATOM     10  C   UNL     1      15.291   9.674  20.958  0.00  0.00    +0.023 C 
ATOM     12  C   UNL     1      15.106  10.815  19.979  0.00  0.00    -0.073 C 
ATOM     13  C   UNL     1      14.050  10.880  19.149  0.00  0.00    -0.022 C 
ATOM     18  C   UNL     1      16.142  11.905  20.007  0.00  0.00    +0.039 C 
ENDROOT
BRANCH   7  11
ATOM     11  C   UNL     1      12.031   7.713  20.122  0.00  0.00    -0.013 C 
ATOM     16  C   UNL     1      12.343   6.589  21.105  0.00  0.00    +0.007 C 
ATOM     17  C   UNL     1      10.909   8.600  20.653  0.00  0.00    +0.007 C 
ENDBRANCH   7  11
BRANCH  10  14
ATOM     14  C   UNL     1      16.428   8.746  20.513  0.00  0.00    +0.103 C 
BRANCH  14  19
ATOM      1  O   UNL     1      17.779   9.915  22.069  0.00  0.00    -0.276 OA
ATOM      3  O   UNL     1      21.082   3.699  20.829  0.00  0.00    -0.276 OA
ATOM      4  N   UNL     1      18.372   7.714  21.629  0.00  0.00    -0.298 N 
ATOM      6  N   UNL     1      20.527   5.921  21.218  0.00  0.00    -0.299 N 
ATOM     19  C   UNL     1      17.583   8.852  21.475  0.00  0.00    +0.216 C 
ATOM     20  C   UNL     1      19.517   7.735  22.543  0.00  0.00    +0.126 C 
ATOM     21  C   UNL     1      18.122   6.412  20.995  0.00  0.00    +0.126 C 
ATOM     22  C   UNL     1      20.777   7.222  21.852  0.00  0.00    +0.126 C 
ATOM     23  C   UNL     1      19.383   5.900  20.304  0.00  0.00    +0.126 C 
ATOM     25  C   UNL     1      21.314   4.782  21.373  0.00  0.00    +0.213 C 
ATOM     27  C   UNL     1      22.517   4.911  22.274  0.00  0.00    +0.109 C 
ENDBRANCH  14  19
ENDBRANCH  10  14
BRANCH   8  15
ATOM     15  C   UNL     1      12.658   9.535  17.591  0.00  0.00    +0.112 C 
BRANCH  15   5
ATOM      2  O   UNL     1      13.949   8.477  15.216  0.00  0.00    -0.276 OA
ATOM      5  N   UNL     1      13.585  10.206  16.735  0.00  0.00    -0.315 N 
ATOM     24  C   UNL     1      14.161   9.621  15.609  0.00  0.00    +0.210 C 
ATOM     26  C   UNL     1      15.082  10.556  14.873  0.00  0.00    +0.109 C 
ATOM     28  H   UNL     1      13.787  11.184  16.925  0.00  0.00    +0.149 HD
ENDBRANCH  15   5
ENDBRANCH   8  15
TORSDOF 5
ENDMDL
MODEL 5
REMARK VINA RESULT:      -6.0     15.587     18.006
REMARK  Name = 38026924
REMARK  10 active torsions:
REMARK  status: ('A' for Active; 'I' for Inactive)
REMARK    1  A    between atoms: N_5  and  C_15
REMARK    2  A    between atoms: C_7  and  C_11
REMARK    3  A    between atoms: C_8  and  C_15
REMARK    4  A    between atoms: C_10  and  C_14
REMARK    5  A    between atoms: C_11  and  C_16
REMARK    6  A    between atoms: C_11  and  C_17
REMARK    7  A    between atoms: C_12  and  C_18
REMARK    8  A    between atoms: C_14  and  C_19
REMARK    9  A    between atoms: C_24  and  C_26
REMARK   10  A    between atoms: C_25  and  C_27
REMARK                            x       y       z     vdW  Elec       q    Type
REMARK                         _______ _______ _______ _____ _____    ______ ____
ROOT
ATOM      7  C   UNL     1       8.977   8.714   5.256  0.00  0.00    +0.000 C 
ATOM      8  C   UNL     1       8.691   9.177   6.706  0.00  0.00    +0.032 C 
ATOM      9  C   UNL     1       8.481   7.276   5.045  0.00  0.00    +0.012 C 
ATOM     10  C   UNL     1       9.147   6.281   6.014  0.00  0.00    +0.023 C 
ATOM     12  C   UNL     1       9.143   6.796   7.439  0.00  0.00    -0.073 C 
ATOM     13  C   UNL     1       8.924   8.090   7.730  0.00  0.00    -0.022 C 
ATOM     18  C   UNL     1       9.350   5.778   8.527  0.00  0.00    +0.039 C 
ENDROOT
BRANCH   7  11
ATOM     11  C   UNL     1       8.330   9.644   4.225  0.00  0.00    -0.013 C 
ATOM     16  C   UNL     1       8.377   9.013   2.837  0.00  0.00    +0.007 C 
ATOM     17  C   UNL     1       6.893   9.963   4.625  0.00  0.00    +0.007 C 
ENDBRANCH   7  11
BRANCH  10  14
ATOM     14  C   UNL     1      10.570   5.935   5.560  0.00  0.00    +0.103 C 
BRANCH  14  19
ATOM      1  O   UNL     1      10.039   3.681   5.055  0.00  0.00    -0.276 OA
ATOM      3  O   UNL     1      14.039   6.054  -0.372  0.00  0.00    -0.276 OA
ATOM      4  N   UNL     1      11.095   4.897   3.383  0.00  0.00    -0.298 N 
ATOM      6  N   UNL     1      13.041   4.821   1.324  0.00  0.00    -0.299 N 
ATOM     19  C   UNL     1      10.540   4.734   4.650  0.00  0.00    +0.216 C 
ATOM     20  C   UNL     1      11.108   3.777   2.439  0.00  0.00    +0.126 C 
ATOM     21  C   UNL     1      11.631   6.155   2.844  0.00  0.00    +0.126 C 
ATOM     22  C   UNL     1      12.506   3.564   1.863  0.00  0.00    +0.126 C 
ATOM     23  C   UNL     1      13.029   5.942   2.268  0.00  0.00    +0.126 C 
ATOM     25  C   UNL     1      13.596   4.986   0.057  0.00  0.00    +0.213 C 
ATOM     27  C   UNL     1      13.639   3.763  -0.825  0.00  0.00    +0.109 C 
ENDBRANCH  14  19
ENDBRANCH  10  14
BRANCH   8  15
ATOM     15  C   UNL     1       9.530  10.408   7.070  0.00  0.00    +0.112 C 
BRANCH  15   5
ATOM      2  O   UNL     1       8.497  12.651   8.597  0.00  0.00    -0.276 OA
ATOM      5  N   UNL     1       9.577  10.590   8.487  0.00  0.00    -0.315 N 
ATOM     24  C   UNL     1       9.055  11.703   9.142  0.00  0.00    +0.210 C 
ATOM     26  C   UNL     1       9.218  11.629  10.636  0.00  0.00    +0.109 C 
ATOM     28  H   UNL     1       9.960   9.836   9.051  0.00  0.00    +0.149 HD
ENDBRANCH  15   5
ENDBRANCH   8  15
TORSDOF 5
ENDMDL
MODEL 6
REMARK VINA RESULT:      -6.0      3.289      6.441
REMARK  Name = 38026924
REMARK  10 active torsions:
REMARK  status: ('A' for Active; 'I' for Inactive)
REMARK    1  A    between atoms: N_5  and  C_15
REMARK    2  A    between atoms: C_7  and  C_11
REMARK    3  A    between atoms: C_8  and  C_15
REMARK    4  A    between atoms: C_10  and  C_14
REMARK    5  A    between atoms: C_11  and  C_16
REMARK    6  A    between atoms: C_11  and  C_17
REMARK    7  A    between atoms: C_12  and  C_18
REMARK    8  A    between atoms: C_14  and  C_19
REMARK    9  A    between atoms: C_24  and  C_26
REMARK   10  A    between atoms: C_25  and  C_27
REMARK                            x       y       z     vdW  Elec       q    Type
REMARK                         _______ _______ _______ _____ _____    ______ ____
ROOT
ATOM      7  C   UNL     1      14.065   7.886  20.747  0.00  0.00    +0.000 C 
ATOM      8  C   UNL     1      12.790   7.188  21.280  0.00  0.00    +0.032 C 
ATOM      9  C   UNL     1      14.557   8.943  21.748  0.00  0.00    +0.012 C 
ATOM     10  C   UNL     1      13.492  10.020  22.028  0.00  0.00    +0.023 C 
ATOM     12  C   UNL     1      12.133   9.409  22.302  0.00  0.00    -0.073 C 
ATOM     13  C   UNL     1      11.841   8.138  21.973  0.00  0.00    -0.022 C 
ATOM     18  C   UNL     1      11.129  10.281  23.005  0.00  0.00    +0.039 C 
ENDROOT
BRANCH   7  11
ATOM     11  C   UNL     1      15.186   6.882  20.460  0.00  0.00    -0.013 C 
ATOM     16  C   UNL     1      15.612   6.963  18.998  0.00  0.00    +0.007 C 
ATOM     17  C   UNL     1      16.372   7.131  21.384  0.00  0.00    +0.007 C 
ENDBRANCH   7  11
BRANCH  10  14
ATOM     14  C   UNL     1      13.417  11.035  20.882  0.00  0.00    +0.103 C 
BRANCH  14  19
ATOM      1  O   UNL     1      15.275  12.308  21.618  0.00  0.00    -0.276 OA
ATOM      3  O   UNL     1      16.176  11.340  14.594  0.00  0.00    -0.276 OA
ATOM      4  N   UNL     1      15.349  11.537  19.429  0.00  0.00    -0.298 N 
ATOM      6  N   UNL     1      16.071  12.166  16.762  0.00  0.00    -0.299 N 
ATOM     19  C   UNL     1      14.763  11.685  20.684  0.00  0.00    +0.216 C 
ATOM     20  C   UNL     1      16.655  12.142  19.155  0.00  0.00    +0.126 C 
ATOM     21  C   UNL     1      14.801  10.741  18.322  0.00  0.00    +0.126 C 
ATOM     22  C   UNL     1      16.617  12.962  17.868  0.00  0.00    +0.126 C 
ATOM     23  C   UNL     1      14.764  11.561  17.036  0.00  0.00    +0.126 C 
ATOM     25  C   UNL     1      16.657  12.015  15.507  0.00  0.00    +0.213 C 
ATOM     27  C   UNL     1      17.965  12.733  15.283  0.00  0.00    +0.109 C 
ENDBRANCH  14  19
ENDBRANCH  10  14
BRANCH   8  15
ATOM     15  C   UNL     1      12.048   6.456  20.156  0.00  0.00    +0.112 C 
BRANCH  15   5
ATOM      2  O   UNL     1      10.453   8.605  19.030  0.00  0.00    -0.276 OA
ATOM      5  N   UNL     1      12.242   7.117  18.904  0.00  0.00    -0.315 N 
ATOM     24  C   UNL     1      11.425   8.144  18.437  0.00  0.00    +0.210 C 
ATOM     26  C   UNL     1      11.868   8.680  17.102  0.00  0.00    +0.109 C 
ATOM     28  H   UNL     1      13.057   6.863  18.353  0.00  0.00    +0.149 HD
ENDBRANCH  15   5
ENDBRANCH   8  15
TORSDOF 5
ENDMDL
MODEL 7
REMARK VINA RESULT:      -5.9      4.055      7.227
REMARK  Name = 38026924
REMARK  10 active torsions:
REMARK  status: ('A' for Active; 'I' for Inactive)
REMARK    1  A    between atoms: N_5  and  C_15
REMARK    2  A    between atoms: C_7  and  C_11
REMARK    3  A    between atoms: C_8  and  C_15
REMARK    4  A    between atoms: C_10  and  C_14
REMARK    5  A    between atoms: C_11  and  C_16
REMARK    6  A    between atoms: C_11  and  C_17
REMARK    7  A    between atoms: C_12  and  C_18
REMARK    8  A    between atoms: C_14  and  C_19
REMARK    9  A    between atoms: C_24  and  C_26
REMARK   10  A    between atoms: C_25  and  C_27
REMARK                            x       y       z     vdW  Elec       q    Type
REMARK                         _______ _______ _______ _____ _____    ______ ____
ROOT
ATOM      7  C   UNL     1      16.284   8.789  21.537  0.00  0.00    +0.000 C 
ATOM      8  C   UNL     1      15.390   7.847  20.693  0.00  0.00    +0.032 C 
ATOM      9  C   UNL     1      17.648   8.983  20.859  0.00  0.00    +0.012 C 
ATOM     10  C   UNL     1      18.395   7.651  20.660  0.00  0.00    +0.023 C 
ATOM     12  C   UNL     1      17.495   6.583  20.074  0.00  0.00    -0.073 C 
ATOM     13  C   UNL     1      16.155   6.694  20.086  0.00  0.00    -0.022 C 
ATOM     18  C   UNL     1      18.173   5.404  19.432  0.00  0.00    +0.039 C 
ENDROOT
BRANCH   7  11
ATOM     11  C   UNL     1      15.619  10.150  21.765  0.00  0.00    -0.013 C 
ATOM     16  C   UNL     1      16.586  11.105  22.458  0.00  0.00    +0.007 C 
ATOM     17  C   UNL     1      15.136  10.734  20.442  0.00  0.00    +0.007 C 
ENDBRANCH   7  11
BRANCH  10  14
ATOM     14  C   UNL     1      19.033   7.174  21.970  0.00  0.00    +0.103 C 
BRANCH  14  19
ATOM      1  O   UNL     1      20.826   8.719  22.090  0.00  0.00    -0.276 OA
ATOM      3  O   UNL     1      23.748   2.383  20.541  0.00  0.00    -0.276 OA
ATOM      4  N   UNL     1      21.400   6.478  21.888  0.00  0.00    -0.298 N 
ATOM      6  N   UNL     1      23.173   4.629  20.677  0.00  0.00    -0.299 N 
ATOM     19  C   UNL     1      20.497   7.534  21.989  0.00  0.00    +0.216 C 
ATOM     20  C   UNL     1      22.841   6.744  21.896  0.00  0.00    +0.126 C 
ATOM     21  C   UNL     1      21.042   5.053  21.842  0.00  0.00    +0.126 C 
ATOM     22  C   UNL     1      23.530   6.052  20.722  0.00  0.00    +0.126 C 
ATOM     23  C   UNL     1      21.732   4.363  20.669  0.00  0.00    +0.126 C 
ATOM     25  C   UNL     1      24.075   3.571  20.578  0.00  0.00    +0.213 C 
ATOM     27  C   UNL     1      25.537   3.937  20.516  0.00  0.00    +0.109 C 
ENDBRANCH  14  19
ENDBRANCH  10  14
BRANCH   8  15
ATOM     15  C   UNL     1      14.221   7.302  21.523  0.00  0.00    +0.112 C 
BRANCH  15   5
ATOM      2  O   UNL     1      12.285   6.584  19.483  0.00  0.00    -0.276 OA
ATOM      5  N   UNL     1      13.008   7.984  21.199  0.00  0.00    -0.315 N 
ATOM     24  C   UNL     1      12.131   7.570  20.200  0.00  0.00    +0.210 C 
ATOM     26  C   UNL     1      10.918   8.453  20.085  0.00  0.00    +0.109 C 
ATOM     28  H   UNL     1      12.741   8.780  21.772  0.00  0.00    +0.149 HD
ENDBRANCH  15   5
ENDBRANCH   8  15
TORSDOF 5
ENDMDL
MODEL 8
REMARK VINA RESULT:      -5.9     27.805     30.479
REMARK  Name = 38026924
REMARK  10 active torsions:
REMARK  status: ('A' for Active; 'I' for Inactive)
REMARK    1  A    between atoms: N_5  and  C_15
REMARK    2  A    between atoms: C_7  and  C_11
REMARK    3  A    between atoms: C_8  and  C_15
REMARK    4  A    between atoms: C_10  and  C_14
REMARK    5  A    between atoms: C_11  and  C_16
REMARK    6  A    between atoms: C_11  and  C_17
REMARK    7  A    between atoms: C_12  and  C_18
REMARK    8  A    between atoms: C_14  and  C_19
REMARK    9  A    between atoms: C_24  and  C_26
REMARK   10  A    between atoms: C_25  and  C_27
REMARK                            x       y       z     vdW  Elec       q    Type
REMARK                         _______ _______ _______ _____ _____    ______ ____
ROOT
ATOM      7  C   UNL     1      -6.313  -9.791  10.005  0.00  0.00    +0.000 C 
ATOM      8  C   UNL     1      -5.432  -9.289   8.834  0.00  0.00    +0.032 C 
ATOM      9  C   UNL     1      -5.843  -9.176  11.332  0.00  0.00    +0.012 C 
ATOM     10  C   UNL     1      -4.374  -9.518  11.645  0.00  0.00    +0.023 C 
ATOM     12  C   UNL     1      -3.478  -9.301  10.444  0.00  0.00    -0.073 C 
ATOM     13  C   UNL     1      -3.969  -9.187   9.197  0.00  0.00    -0.022 C 
ATOM     18  C   UNL     1      -2.004  -9.172  10.714  0.00  0.00    +0.039 C 
ENDROOT
BRANCH   7  11
ATOM     11  C   UNL     1      -7.794  -9.470   9.780  0.00  0.00    -0.013 C 
ATOM     16  C   UNL     1      -8.584  -9.672  11.070  0.00  0.00    +0.007 C 
ATOM     17  C   UNL     1      -7.957  -8.045   9.263  0.00  0.00    +0.007 C 
ENDBRANCH   7  11
BRANCH  10  14
ATOM     14  C   UNL     1      -4.242 -10.950  12.177  0.00  0.00    +0.103 C 
BRANCH  14  19
ATOM      1  O   UNL     1      -2.245 -11.174  13.433  0.00  0.00    -0.276 OA
ATOM      3  O   UNL     1      -7.551 -10.659  18.194  0.00  0.00    -0.276 OA
ATOM      4  N   UNL     1      -4.174 -10.688  14.631  0.00  0.00    -0.298 N 
ATOM      6  N   UNL     1      -5.635 -11.209  17.002  0.00  0.00    -0.299 N 
ATOM     19  C   UNL     1      -3.458 -10.948  13.465  0.00  0.00    +0.216 C 
ATOM     20  C   UNL     1      -3.486 -10.672  15.924  0.00  0.00    +0.126 C 
ATOM     21  C   UNL     1      -5.601 -10.343  14.694  0.00  0.00    +0.126 C 
ATOM     22  C   UNL     1      -4.209 -11.554  16.939  0.00  0.00    +0.126 C 
ATOM     23  C   UNL     1      -6.323 -11.226  15.709  0.00  0.00    +0.126 C 
ATOM     25  C   UNL     1      -6.352 -10.947  18.168  0.00  0.00    +0.213 C 
ATOM     27  C   UNL     1      -5.584 -11.024  19.464  0.00  0.00    +0.109 C 
ENDBRANCH  14  19
ENDBRANCH  10  14
BRANCH   8  15
ATOM     15  C   UNL     1      -5.591 -10.183   7.599  0.00  0.00    +0.112 C 
BRANCH  15   5
ATOM      2  O   UNL     1      -8.190 -10.059   6.312  0.00  0.00    -0.276 OA
ATOM      5  N   UNL     1      -5.957  -9.409   6.455  0.00  0.00    -0.315 N 
ATOM     24  C   UNL     1      -7.234  -9.408   5.898  0.00  0.00    +0.210 C 
ATOM     26  C   UNL     1      -7.354  -8.486   4.715  0.00  0.00    +0.109 C 
ATOM     28  H   UNL     1      -5.262  -8.779   6.064  0.00  0.00    +0.149 HD
ENDBRANCH  15   5
ENDBRANCH   8  15
TORSDOF 5
ENDMDL
MODEL 9
REMARK VINA RESULT:      -5.8     27.040     29.901
REMARK  Name = 38026924
REMARK  10 active torsions:
REMARK  status: ('A' for Active; 'I' for Inactive)
REMARK    1  A    between atoms: N_5  and  C_15
REMARK    2  A    between atoms: C_7  and  C_11
REMARK    3  A    between atoms: C_8  and  C_15
REMARK    4  A    between atoms: C_10  and  C_14
REMARK    5  A    between atoms: C_11  and  C_16
REMARK    6  A    between atoms: C_11  and  C_17
REMARK    7  A    between atoms: C_12  and  C_18
REMARK    8  A    between atoms: C_14  and  C_19
REMARK    9  A    between atoms: C_24  and  C_26
REMARK   10  A    between atoms: C_25  and  C_27
REMARK                            x       y       z     vdW  Elec       q    Type
REMARK                         _______ _______ _______ _____ _____    ______ ____
ROOT
ATOM      7  C   UNL     1      -4.964 -12.257  16.146  0.00  0.00    +0.000 C 
ATOM      8  C   UNL     1      -4.177 -11.710  17.363  0.00  0.00    +0.032 C 
ATOM      9  C   UNL     1      -3.997 -12.732  15.051  0.00  0.00    +0.012 C 
ATOM     10  C   UNL     1      -3.069 -11.604  14.564  0.00  0.00    +0.023 C 
ATOM     12  C   UNL     1      -2.458 -10.839  15.720  0.00  0.00    -0.073 C 
ATOM     13  C   UNL     1      -2.959 -10.909  16.966  0.00  0.00    -0.022 C 
ATOM     18  C   UNL     1      -1.229 -10.026  15.420  0.00  0.00    +0.039 C 
ENDROOT
BRANCH   7  11
ATOM     11  C   UNL     1      -5.901 -13.402  16.544  0.00  0.00    -0.013 C 
ATOM     16  C   UNL     1      -7.235 -13.275  15.815  0.00  0.00    +0.007 C 
ATOM     17  C   UNL     1      -5.250 -14.749  16.249  0.00  0.00    +0.007 C 
ENDBRANCH   7  11
BRANCH  10  14
ATOM     14  C   UNL     1      -3.804 -10.659  13.607  0.00  0.00    +0.103 C 
BRANCH  14  19
ATOM      1  O   UNL     1      -2.152 -11.175  11.988  0.00  0.00    -0.276 OA
ATOM      3  O   UNL     1      -7.983  -9.228   8.342  0.00  0.00    -0.276 OA
ATOM      4  N   UNL     1      -4.295 -10.773  11.191  0.00  0.00    -0.298 N 
ATOM      6  N   UNL     1      -5.826  -9.565   9.134  0.00  0.00    -0.299 N 
ATOM     19  C   UNL     1      -3.336 -10.894  12.193  0.00  0.00    +0.216 C 
ATOM     20  C   UNL     1      -3.921 -10.983   9.790  0.00  0.00    +0.126 C 
ATOM     21  C   UNL     1      -5.726 -10.514  11.408  0.00  0.00    +0.126 C 
ATOM     22  C   UNL     1      -4.397  -9.824   8.918  0.00  0.00    +0.126 C 
ATOM     23  C   UNL     1      -6.200  -9.355  10.535  0.00  0.00    +0.126 C 
ATOM     25  C   UNL     1      -6.787  -9.446   8.133  0.00  0.00    +0.213 C 
ATOM     27  C   UNL     1      -6.304  -9.602   6.712  0.00  0.00    +0.109 C 
ENDBRANCH  14  19
ENDBRANCH  10  14
BRANCH   8  15
ATOM     15  C   UNL     1      -5.076 -10.858  18.266  0.00  0.00    +0.112 C 
BRANCH  15   5
ATOM      2  O   UNL     1      -7.933 -10.595  18.706  0.00  0.00    -0.276 OA
ATOM      5  N   UNL     1      -6.008 -10.103  17.490  0.00  0.00    -0.315 N 
ATOM     24  C   UNL     1      -7.370 -10.031  17.771  0.00  0.00    +0.210 C 
ATOM     26  C   UNL     1      -8.118  -9.148  16.810  0.00  0.00    +0.109 C 
ATOM     28  H   UNL     1      -5.645  -9.540  16.725  0.00  0.00    +0.149 HD
ENDBRANCH  15   5
ENDBRANCH   8  15
TORSDOF 5
ENDMDL
MODEL 10
REMARK VINA RESULT:      -5.8     15.900     18.622
REMARK  Name = 38026924
REMARK  10 active torsions:
REMARK  status: ('A' for Active; 'I' for Inactive)
REMARK    1  A    between atoms: N_5  and  C_15
REMARK    2  A    between atoms: C_7  and  C_11
REMARK    3  A    between atoms: C_8  and  C_15
REMARK    4  A    between atoms: C_10  and  C_14
REMARK    5  A    between atoms: C_11  and  C_16
REMARK    6  A    between atoms: C_11  and  C_17
REMARK    7  A    between atoms: C_12  and  C_18
REMARK    8  A    between atoms: C_14  and  C_19
REMARK    9  A    between atoms: C_24  and  C_26
REMARK   10  A    between atoms: C_25  and  C_27
REMARK                            x       y       z     vdW  Elec       q    Type
REMARK                         _______ _______ _______ _____ _____    ______ ____
ROOT
ATOM      7  C   UNL     1      10.668   8.131   6.126  0.00  0.00    +0.000 C 
ATOM      8  C   UNL     1       9.438   8.621   6.928  0.00  0.00    +0.032 C 
ATOM      9  C   UNL     1      10.805   8.921   4.816  0.00  0.00    +0.012 C 
ATOM     10  C   UNL     1       9.556   8.790   3.923  0.00  0.00    +0.023 C 
ATOM     12  C   UNL     1       8.278   8.998   4.709  0.00  0.00    -0.073 C 
ATOM     13  C   UNL     1       8.247   8.932   6.052  0.00  0.00    -0.022 C 
ATOM     18  C   UNL     1       7.043   9.330   3.917  0.00  0.00    +0.039 C 
ENDROOT
BRANCH   7  11
ATOM     11  C   UNL     1      11.961   8.247   6.940  0.00  0.00    -0.013 C 
ATOM     16  C   UNL     1      12.839   7.019   6.723  0.00  0.00    +0.007 C 
ATOM     17  C   UNL     1      12.711   9.521   6.566  0.00  0.00    +0.007 C 
ENDBRANCH   7  11
BRANCH  10  14
ATOM     14  C   UNL     1       9.539   7.442   3.193  0.00  0.00    +0.103 C 
BRANCH  14  19
ATOM      1  O   UNL     1       9.816   8.297   1.001  0.00  0.00    -0.276 OA
ATOM      3  O   UNL     1      14.759   3.196   1.793  0.00  0.00    -0.276 OA
ATOM      4  N   UNL     1      11.434   6.808   1.745  0.00  0.00    -0.298 N 
ATOM      6  N   UNL     1      13.104   4.634   1.027  0.00  0.00    -0.299 N 
ATOM     19  C   UNL     1      10.269   7.560   1.880  0.00  0.00    +0.216 C 
ATOM     20  C   UNL     1      12.202   6.865   0.498  0.00  0.00    +0.126 C 
ATOM     21  C   UNL     1      12.040   5.980   2.797  0.00  0.00    +0.126 C 
ATOM     22  C   UNL     1      12.498   5.461  -0.025  0.00  0.00    +0.126 C 
ATOM     23  C   UNL     1      12.337   4.577   2.273  0.00  0.00    +0.126 C 
ATOM     25  C   UNL     1      14.270   3.883   0.893  0.00  0.00    +0.213 C 
ATOM     27  C   UNL     1      14.958   3.938  -0.448  0.00  0.00    +0.109 C 
ENDBRANCH  14  19
ENDBRANCH  10  14
BRANCH   8  15
ATOM     15  C   UNL     1       9.031   7.601   7.998  0.00  0.00    +0.112 C 
BRANCH  15   5
ATOM      2  O   UNL     1      10.505   5.395   9.177  0.00  0.00    -0.276 OA
ATOM      5  N   UNL     1       9.145   6.268   7.498  0.00  0.00    -0.315 N 
ATOM     24  C   UNL     1       9.877   5.264   8.129  0.00  0.00    +0.210 C 
ATOM     26  C   UNL     1       9.809   3.948   7.403  0.00  0.00    +0.109 C 
ATOM     28  H   UNL     1       8.613   6.023   6.667  0.00  0.00    +0.149 HD
ENDBRANCH  15   5
ENDBRANCH   8  15
TORSDOF 5
ENDMDL
