MODEL 1
REMARK VINA RESULT:      -7.8      0.000      0.000
REMARK  Name = 25389794
REMARK  7 active torsions:
REMARK  status: ('A' for Active; 'I' for Inactive)
REMARK    1  A    between atoms: O_3  and  C_20
REMARK    2  A    between atoms: O_3  and  C_35
REMARK    3  A    between atoms: N_6  and  C_11
REMARK    4  A    between atoms: N_6  and  C_21
REMARK    5  A    between atoms: C_9  and  C_17
REMARK    6  A    between atoms: C_13  and  C_20
REMARK    7  A    between atoms: C_21  and  C_22
REMARK                            x       y       z     vdW  Elec       q    Type
REMARK                         _______ _______ _______ _____ _____    ______ ____
ROOT
ATOM      5  N   UNL     1      14.441   9.021  19.697  0.00  0.00    -0.274 NA
ATOM      7  N   UNL     1      17.469   8.902  21.916  0.00  0.00    -0.356 N 
ATOM      8  C   UNL     1      15.143   9.390  20.965  0.00  0.00    +0.106 C 
ATOM      9  C   UNL     1      13.134   9.713  19.564  0.00  0.00    +0.093 C 
ATOM     10  C   UNL     1      15.367  10.908  21.040  0.00  0.00    +0.044 C 
ATOM     11  C   UNL     1      14.033  11.651  20.955  0.00  0.00    +0.057 C 
ATOM     12  C   UNL     1      13.303  11.247  19.674  0.00  0.00    +0.042 C 
ATOM     13  C   UNL     1      14.395   7.551  19.467  0.00  0.00    +0.172 C 
ATOM     14  C   UNL     1      16.434   8.635  21.064  0.00  0.00    +0.038 A 
ATOM     15  C   UNL     1      15.807   6.923  19.351  0.00  0.00    +0.068 C 
ATOM     16  C   UNL     1      16.749   7.498  20.352  0.00  0.00    -0.016 A 
ATOM     18  C   UNL     1      18.043   7.074  20.759  0.00  0.00    +0.003 A 
ATOM     19  C   UNL     1      18.472   7.973  21.739  0.00  0.00    +0.047 A 
ATOM     25  C   UNL     1      18.893   6.012  20.394  0.00  0.00    +0.010 A 
ATOM     27  C   UNL     1      19.715   7.859  22.373  0.00  0.00    +0.026 A 
ATOM     30  C   UNL     1      20.139   5.888  21.019  0.00  0.00    +0.001 A 
ATOM     33  C   UNL     1      20.542   6.799  21.993  0.00  0.00    +0.002 A 
ATOM     37  H   UNL     1      17.503   9.667  22.577  0.00  0.00    +0.166 HD
ENDROOT
BRANCH   9  17
ATOM      1  F   UNL     1      10.513   8.616  19.443  0.00  0.00    -0.205 F 
ATOM     17  C   UNL     1      12.404   9.422  18.255  0.00  0.00    +0.005 A 
ATOM     23  C   UNL     1      11.118   8.882  18.276  0.00  0.00    +0.128 A 
ATOM     24  C   UNL     1      13.025   9.695  17.036  0.00  0.00    +0.008 A 
ATOM     31  C   UNL     1      10.453   8.616  17.080  0.00  0.00    +0.038 A 
ATOM     32  C   UNL     1      12.360   9.429  15.840  0.00  0.00    +0.000 A 
ATOM     34  C   UNL     1      11.074   8.889  15.861  0.00  0.00    +0.003 A 
ENDBRANCH   9  17
BRANCH  13  20
ATOM      4  O   UNL     1      13.922   6.841  21.722  0.00  0.00    -0.249 OA
ATOM     20  C   UNL     1      13.594   6.874  20.544  0.00  0.00    +0.325 C 
BRANCH  20   3
ATOM      3  O   UNL     1      12.473   6.323  19.999  0.00  0.00    -0.467 OA
ATOM     35  C   UNL     1      11.452   5.959  20.933  0.00  0.00    +0.280 C 
ENDBRANCH  20   3
ENDBRANCH  13  20
BRANCH  11   6
ATOM      6  N   UNL     1      14.258  13.095  20.994  0.00  0.00    -0.311 NA
ATOM     36  H   UNL     1      15.259  13.286  21.021  0.00  0.00    +0.122 HD
BRANCH   6  21
ATOM     21  C   UNL     1      13.636  13.682  22.171  0.00  0.00    +0.112 C 
BRANCH  21  22
ATOM      2  O   UNL     1      11.360  13.106  22.748  0.00  0.00    -0.375 OA
ATOM     22  C   UNL     1      12.730  12.685  22.866  0.00  0.00    +0.132 C 
ATOM     26  C   UNL     1      13.005  12.553  24.354  0.00  0.00    +0.035 C 
ATOM     28  C   UNL     1      11.666  12.086  24.867  0.00  0.00    +0.031 C 
ATOM     29  C   UNL     1      10.707  12.883  24.007  0.00  0.00    +0.160 C 
ENDBRANCH  21  22
ENDBRANCH   6  21
ENDBRANCH  11   6
TORSDOF 6
ENDMDL
MODEL 2
REMARK VINA RESULT:      -7.8      2.157      3.176
REMARK  Name = 25389794
REMARK  7 active torsions:
REMARK  status: ('A' for Active; 'I' for Inactive)
REMARK    1  A    between atoms: O_3  and  C_20
REMARK    2  A    between atoms: O_3  and  C_35
REMARK    3  A    between atoms: N_6  and  C_11
REMARK    4  A    between atoms: N_6  and  C_21
REMARK    5  A    between atoms: C_9  and  C_17
REMARK    6  A    between atoms: C_13  and  C_20
REMARK    7  A    between atoms: C_21  and  C_22
REMARK                            x       y       z     vdW  Elec       q    Type
REMARK                         _______ _______ _______ _____ _____    ______ ____
ROOT
ATOM      5  N   UNL     1      14.777   8.894  19.316  0.00  0.00    -0.274 NA
ATOM      7  N   UNL     1      17.994   8.569  21.227  0.00  0.00    -0.356 N 
ATOM      8  C   UNL     1      15.669   9.300  20.447  0.00  0.00    +0.106 C 
ATOM      9  C   UNL     1      13.578   9.763  19.214  0.00  0.00    +0.093 C 
ATOM     10  C   UNL     1      16.117  10.761  20.287  0.00  0.00    +0.044 C 
ATOM     11  C   UNL     1      14.905  11.690  20.227  0.00  0.00    +0.057 C 
ATOM     12  C   UNL     1      13.979  11.253  19.092  0.00  0.00    +0.042 C 
ATOM     13  C   UNL     1      14.492   7.432  19.300  0.00  0.00    +0.172 C 
ATOM     14  C   UNL     1      16.839   8.367  20.525  0.00  0.00    +0.038 A 
ATOM     15  C   UNL     1      15.775   6.579  19.137  0.00  0.00    +0.068 C 
ATOM     16  C   UNL     1      16.900   7.116  19.952  0.00  0.00    -0.016 A 
ATOM     18  C   UNL     1      18.158   6.544  20.287  0.00  0.00    +0.003 A 
ATOM     19  C   UNL     1      18.825   7.477  21.086  0.00  0.00    +0.047 A 
ATOM     25  C   UNL     1      18.797   5.323  19.994  0.00  0.00    +0.010 A 
ATOM     27  C   UNL     1      20.103   7.246  21.607  0.00  0.00    +0.026 A 
ATOM     30  C   UNL     1      20.076   5.080  20.507  0.00  0.00    +0.001 A 
ATOM     33  C   UNL     1      20.718   6.029  21.300  0.00  0.00    +0.002 A 
ATOM     37  H   UNL     1      18.216   9.394  21.768  0.00  0.00    +0.166 HD
ENDROOT
BRANCH   9  17
ATOM      1  F   UNL     1      10.923   8.788  19.515  0.00  0.00    -0.205 F 
ATOM     17  C   UNL     1      12.666   9.433  18.036  0.00  0.00    +0.005 A 
ATOM     23  C   UNL     1      11.374   8.957  18.263  0.00  0.00    +0.128 A 
ATOM     24  C   UNL     1      13.125   9.605  16.730  0.00  0.00    +0.008 A 
ATOM     31  C   UNL     1      10.542   8.655  17.186  0.00  0.00    +0.038 A 
ATOM     32  C   UNL     1      12.293   9.303  15.653  0.00  0.00    +0.000 A 
ATOM     34  C   UNL     1      11.002   8.828  15.880  0.00  0.00    +0.003 A 
ENDBRANCH   9  17
BRANCH  13  20
ATOM      4  O   UNL     1      14.102   7.273  21.674  0.00  0.00    -0.249 OA
ATOM     20  C   UNL     1      13.733   7.030  20.533  0.00  0.00    +0.325 C 
BRANCH  20   3
ATOM      3  O   UNL     1      12.596   6.371  20.173  0.00  0.00    -0.467 OA
ATOM     35  C   UNL     1      11.628   6.202  21.213  0.00  0.00    +0.280 C 
ENDBRANCH  20   3
ENDBRANCH  13  20
BRANCH  11   6
ATOM      6  N   UNL     1      15.340  13.073  20.042  0.00  0.00    -0.311 NA
ATOM     36  H   UNL     1      14.649  13.580  19.489  0.00  0.00    +0.122 HD
BRANCH   6  21
ATOM     21  C   UNL     1      16.619  13.123  19.354  0.00  0.00    +0.112 C 
BRANCH  21  22
ATOM      2  O   UNL     1      15.174  14.275  17.795  0.00  0.00    -0.375 OA
ATOM     22  C   UNL     1      16.463  13.656  17.943  0.00  0.00    +0.132 C 
ATOM     26  C   UNL     1      16.538  12.577  16.877  0.00  0.00    +0.035 C 
ATOM     28  C   UNL     1      15.744  13.203  15.758  0.00  0.00    +0.031 C 
ATOM     29  C   UNL     1      14.636  13.905  16.517  0.00  0.00    +0.160 C 
ENDBRANCH  21  22
ENDBRANCH   6  21
ENDBRANCH  11   6
TORSDOF 6
ENDMDL
MODEL 3
REMARK VINA RESULT:      -7.4      3.036      7.256
REMARK  Name = 25389794
REMARK  7 active torsions:
REMARK  status: ('A' for Active; 'I' for Inactive)
REMARK    1  A    between atoms: O_3  and  C_20
REMARK    2  A    between atoms: O_3  and  C_35
REMARK    3  A    between atoms: N_6  and  C_11
REMARK    4  A    between atoms: N_6  and  C_21
REMARK    5  A    between atoms: C_9  and  C_17
REMARK    6  A    between atoms: C_13  and  C_20
REMARK    7  A    between atoms: C_21  and  C_22
REMARK                            x       y       z     vdW  Elec       q    Type
REMARK                         _______ _______ _______ _____ _____    ______ ____
ROOT
ATOM      5  N   UNL     1      13.633  10.190  20.596  0.00  0.00    -0.274 NA
ATOM      7  N   UNL     1      11.224  12.990  21.278  0.00  0.00    -0.356 N 
ATOM      8  C   UNL     1      12.560  11.127  20.139  0.00  0.00    +0.106 C 
ATOM      9  C   UNL     1      14.196   9.400  19.472  0.00  0.00    +0.093 C 
ATOM     10  C   UNL     1      13.098  12.087  19.068  0.00  0.00    +0.044 C 
ATOM     11  C   UNL     1      13.643  11.305  17.872  0.00  0.00    +0.057 C 
ATOM     12  C   UNL     1      14.716  10.326  18.347  0.00  0.00    +0.042 C 
ATOM     13  C   UNL     1      13.233   9.387  21.785  0.00  0.00    +0.172 C 
ATOM     14  C   UNL     1      12.003  11.868  21.317  0.00  0.00    +0.038 A 
ATOM     15  C   UNL     1      12.908  10.270  23.016  0.00  0.00    +0.068 C 
ATOM     16  C   UNL     1      12.134  11.484  22.634  0.00  0.00    -0.016 A 
ATOM     18  C   UNL     1      11.437  12.429  23.434  0.00  0.00    +0.003 A 
ATOM     19  C   UNL     1      10.876  13.364  22.558  0.00  0.00    +0.047 A 
ATOM     25  C   UNL     1      11.222  12.583  24.818  0.00  0.00    +0.010 A 
ATOM     27  C   UNL     1      10.110  14.447  23.003  0.00  0.00    +0.026 A 
ATOM     30  C   UNL     1      10.459  13.664  25.275  0.00  0.00    +0.001 A 
ATOM     33  C   UNL     1       9.913  14.581  24.380  0.00  0.00    +0.002 A 
ATOM     37  H   UNL     1      10.942  13.480  20.439  0.00  0.00    +0.166 HD
ENDROOT
BRANCH   9  17
ATOM      1  F   UNL     1      14.178   6.595  19.005  0.00  0.00    -0.205 F 
ATOM     17  C   UNL     1      15.341   8.473  19.873  0.00  0.00    +0.005 A 
ATOM     23  C   UNL     1      15.259   7.105  19.611  0.00  0.00    +0.128 A 
ATOM     24  C   UNL     1      16.470   8.995  20.504  0.00  0.00    +0.008 A 
ATOM     31  C   UNL     1      16.305   6.260  19.978  0.00  0.00    +0.038 A 
ATOM     32  C   UNL     1      17.517   8.150  20.872  0.00  0.00    +0.000 A 
ATOM     34  C   UNL     1      17.435   6.783  20.609  0.00  0.00    +0.003 A 
ENDBRANCH   9  17
BRANCH  13  20
ATOM      4  O   UNL     1      10.976   8.893  21.097  0.00  0.00    -0.249 OA
ATOM     20  C   UNL     1      12.076   8.489  21.448  0.00  0.00    +0.325 C 
BRANCH  20   3
ATOM      3  O   UNL     1      12.452   7.187  21.595  0.00  0.00    -0.467 OA
ATOM     35  C   UNL     1      11.388   6.232  21.552  0.00  0.00    +0.280 C 
ENDBRANCH  20   3
ENDBRANCH  13  20
BRANCH  11   6
ATOM      6  N   UNL     1      14.182  12.226  16.873  0.00  0.00    -0.311 NA
ATOM     36  H   UNL     1      13.418  12.713  16.406  0.00  0.00    +0.122 HD
BRANCH   6  21
ATOM     21  C   UNL     1      14.959  11.507  15.875  0.00  0.00    +0.112 C 
BRANCH  21  22
ATOM      2  O   UNL     1      16.894  11.588  14.429  0.00  0.00    -0.375 OA
ATOM     22  C   UNL     1      16.125  12.340  15.382  0.00  0.00    +0.132 C 
ATOM     26  C   UNL     1      17.091  12.741  16.484  0.00  0.00    +0.035 C 
ATOM     28  C   UNL     1      18.369  12.936  15.707  0.00  0.00    +0.031 C 
ATOM     29  C   UNL     1      18.288  11.819  14.686  0.00  0.00    +0.160 C 
ENDBRANCH  21  22
ENDBRANCH   6  21
ENDBRANCH  11   6
TORSDOF 6
ENDMDL
MODEL 4
REMARK VINA RESULT:      -7.4     13.692     17.216
REMARK  Name = 25389794
REMARK  7 active torsions:
REMARK  status: ('A' for Active; 'I' for Inactive)
REMARK    1  A    between atoms: O_3  and  C_20
REMARK    2  A    between atoms: O_3  and  C_35
REMARK    3  A    between atoms: N_6  and  C_11
REMARK    4  A    between atoms: N_6  and  C_21
REMARK    5  A    between atoms: C_9  and  C_17
REMARK    6  A    between atoms: C_13  and  C_20
REMARK    7  A    between atoms: C_21  and  C_22
REMARK                            x       y       z     vdW  Elec       q    Type
REMARK                         _______ _______ _______ _____ _____    ______ ____
ROOT
ATOM      5  N   UNL     1      12.164   6.833   5.477  0.00  0.00    -0.274 NA
ATOM      7  N   UNL     1      15.056   7.728   3.254  0.00  0.00    -0.356 N 
ATOM      8  C   UNL     1      12.707   7.228   4.141  0.00  0.00    +0.106 C 
ATOM      9  C   UNL     1      10.719   6.498   5.413  0.00  0.00    +0.093 C 
ATOM     10  C   UNL     1      12.495   6.104   3.115  0.00  0.00    +0.044 C 
ATOM     11  C   UNL     1      11.010   5.768   2.988  0.00  0.00    +0.057 C 
ATOM     12  C   UNL     1      10.450   5.396   4.361  0.00  0.00    +0.042 C 
ATOM     13  C   UNL     1      12.537   7.786   6.559  0.00  0.00    +0.172 C 
ATOM     14  C   UNL     1      14.156   7.591   4.273  0.00  0.00    +0.038 A 
ATOM     15  C   UNL     1      14.070   7.893   6.755  0.00  0.00    +0.068 C 
ATOM     16  C   UNL     1      14.791   7.915   5.452  0.00  0.00    -0.016 A 
ATOM     18  C   UNL     1      16.143   8.228   5.145  0.00  0.00    +0.003 A 
ATOM     19  C   UNL     1      16.283   8.102   3.760  0.00  0.00    +0.047 A 
ATOM     25  C   UNL     1      17.265   8.612   5.908  0.00  0.00    +0.010 A 
ATOM     27  C   UNL     1      17.494   8.340   3.100  0.00  0.00    +0.026 A 
ATOM     30  C   UNL     1      18.482   8.851   5.260  0.00  0.00    +0.001 A 
ATOM     33  C   UNL     1      18.593   8.716   3.878  0.00  0.00    +0.002 A 
ATOM     37  H   UNL     1      14.861   7.576   2.274  0.00  0.00    +0.166 HD
ENDROOT
BRANCH   9  17
ATOM      1  F   UNL     1       9.028   8.108   7.037  0.00  0.00    -0.205 F 
ATOM     17  C   UNL     1      10.128   6.026   6.738  0.00  0.00    +0.005 A 
ATOM     23  C   UNL     1       9.306   6.874   7.481  0.00  0.00    +0.128 A 
ATOM     24  C   UNL     1      10.412   4.744   7.209  0.00  0.00    +0.008 A 
ATOM     31  C   UNL     1       8.768   6.441   8.692  0.00  0.00    +0.038 A 
ATOM     32  C   UNL     1       9.873   4.310   8.420  0.00  0.00    +0.000 A 
ATOM     34  C   UNL     1       9.052   5.159   9.162  0.00  0.00    +0.003 A 
ENDBRANCH   9  17
BRANCH  13  20
ATOM      4  O   UNL     1      11.250   9.407   5.321  0.00  0.00    -0.249 OA
ATOM     20  C   UNL     1      11.934   9.138   6.299  0.00  0.00    +0.325 C 
BRANCH  20   3
ATOM      3  O   UNL     1      12.269   9.988   7.311  0.00  0.00    -0.467 OA
ATOM     35  C   UNL     1      11.204  10.331   8.203  0.00  0.00    +0.280 C 
ENDBRANCH  20   3
ENDBRANCH  13  20
BRANCH  11   6
ATOM      6  N   UNL     1      10.820   4.677   2.034  0.00  0.00    -0.311 NA
ATOM     36  H   UNL     1       9.835   4.417   1.999  0.00  0.00    +0.122 HD
BRANCH   6  21
ATOM     21  C   UNL     1      11.598   3.511   2.424  0.00  0.00    +0.112 C 
BRANCH  21  22
ATOM      2  O   UNL     1      13.910   3.127   1.830  0.00  0.00    -0.375 OA
ATOM     22  C   UNL     1      12.563   3.105   1.328  0.00  0.00    +0.132 C 
ATOM     26  C   UNL     1      12.543   4.035   0.128  0.00  0.00    +0.035 C 
ATOM     28  C   UNL     1      13.928   3.830  -0.435  0.00  0.00    +0.031 C 
ATOM     29  C   UNL     1      14.760   3.699   0.824  0.00  0.00    +0.160 C 
ENDBRANCH  21  22
ENDBRANCH   6  21
ENDBRANCH  11   6
TORSDOF 6
ENDMDL
MODEL 5
REMARK VINA RESULT:      -6.8     32.774     35.064
REMARK  Name = 25389794
REMARK  7 active torsions:
REMARK  status: ('A' for Active; 'I' for Inactive)
REMARK    1  A    between atoms: O_3  and  C_20
REMARK    2  A    between atoms: O_3  and  C_35
REMARK    3  A    between atoms: N_6  and  C_11
REMARK    4  A    between atoms: N_6  and  C_21
REMARK    5  A    between atoms: C_9  and  C_17
REMARK    6  A    between atoms: C_13  and  C_20
REMARK    7  A    between atoms: C_21  and  C_22
REMARK                            x       y       z     vdW  Elec       q    Type
REMARK                         _______ _______ _______ _____ _____    ______ ____
ROOT
ATOM      5  N   UNL     1      -0.068 -14.342   0.352  0.00  0.00    -0.274 NA
ATOM      7  N   UNL     1      -3.464 -13.232   1.512  0.00  0.00    -0.356 N 
ATOM      8  C   UNL     1      -1.546 -14.236   0.146  0.00  0.00    +0.106 C 
ATOM      9  C   UNL     1       0.623 -14.882  -0.846  0.00  0.00    +0.093 C 
ATOM     10  C   UNL     1      -1.862 -13.342  -1.064  0.00  0.00    +0.044 C 
ATOM     11  C   UNL     1      -1.204 -13.898  -2.327  0.00  0.00    +0.057 C 
ATOM     12  C   UNL     1       0.302 -14.037  -2.101  0.00  0.00    +0.042 C 
ATOM     13  C   UNL     1       0.290 -15.010   1.634  0.00  0.00    +0.172 C 
ATOM     14  C   UNL     1      -2.194 -13.723   1.397  0.00  0.00    +0.038 A 
ATOM     15  C   UNL     1      -0.243 -14.246   2.872  0.00  0.00    +0.068 C 
ATOM     16  C   UNL     1      -1.625 -13.736   2.651  0.00  0.00    -0.016 A 
ATOM     18  C   UNL     1      -2.572 -13.198   3.564  0.00  0.00    +0.003 A 
ATOM     19  C   UNL     1      -3.716 -12.889   2.823  0.00  0.00    +0.047 A 
ATOM     25  C   UNL     1      -2.573 -12.946   4.951  0.00  0.00    +0.010 A 
ATOM     27  C   UNL     1      -4.864 -12.337   3.404  0.00  0.00    +0.026 A 
ATOM     30  C   UNL     1      -3.714 -12.392   5.543  0.00  0.00    +0.001 A 
ATOM     33  C   UNL     1      -4.840 -12.093   4.780  0.00  0.00    +0.002 A 
ATOM     37  H   UNL     1      -4.125 -13.129   0.753  0.00  0.00    +0.166 HD
ENDROOT
BRANCH   9  17
ATOM      1  F   UNL     1       2.115 -17.282  -1.163  0.00  0.00    -0.205 F 
ATOM     17  C   UNL     1       2.141 -14.951  -0.712  0.00  0.00    +0.005 A 
ATOM     23  C   UNL     1       2.804 -16.167  -0.880  0.00  0.00    +0.128 A 
ATOM     24  C   UNL     1       2.868 -13.797  -0.418  0.00  0.00    +0.008 A 
ATOM     31  C   UNL     1       4.192 -16.229  -0.757  0.00  0.00    +0.038 A 
ATOM     32  C   UNL     1       4.255 -13.858  -0.295  0.00  0.00    +0.000 A 
ATOM     34  C   UNL     1       4.918 -15.074  -0.464  0.00  0.00    +0.003 A 
ENDBRANCH   9  17
BRANCH  13  20
ATOM      4  O   UNL     1      -1.364 -16.762   1.561  0.00  0.00    -0.249 OA
ATOM     20  C   UNL     1      -0.188 -16.435   1.637  0.00  0.00    +0.325 C 
BRANCH  20   3
ATOM      3  O   UNL     1       0.882 -17.274   1.733  0.00  0.00    -0.467 OA
ATOM     35  C   UNL     1       1.947 -16.818   2.573  0.00  0.00    +0.280 C 
ENDBRANCH  20   3
ENDBRANCH  13  20
BRANCH  11   6
ATOM      6  N   UNL     1      -1.482 -13.024  -3.465  0.00  0.00    -0.311 NA
ATOM     36  H   UNL     1      -2.459 -13.121  -3.742  0.00  0.00    +0.122 HD
BRANCH   6  21
ATOM     21  C   UNL     1      -0.638 -13.368  -4.598  0.00  0.00    +0.112 C 
BRANCH  21  22
ATOM      2  O   UNL     1       0.185 -12.318  -6.614  0.00  0.00    -0.375 OA
ATOM     22  C   UNL     1       0.002 -12.133  -5.200  0.00  0.00    +0.132 C 
ATOM     26  C   UNL     1       1.376 -11.824  -4.632  0.00  0.00    +0.035 C 
ATOM     28  C   UNL     1       2.004 -11.055  -5.767  0.00  0.00    +0.031 C 
ATOM     29  C   UNL     1       1.470 -11.792  -6.978  0.00  0.00    +0.160 C 
ENDBRANCH  21  22
ENDBRANCH   6  21
ENDBRANCH  11   6
TORSDOF 6
ENDMDL
MODEL 6
REMARK VINA RESULT:      -6.7      5.828     10.607
REMARK  Name = 25389794
REMARK  7 active torsions:
REMARK  status: ('A' for Active; 'I' for Inactive)
REMARK    1  A    between atoms: O_3  and  C_20
REMARK    2  A    between atoms: O_3  and  C_35
REMARK    3  A    between atoms: N_6  and  C_11
REMARK    4  A    between atoms: N_6  and  C_21
REMARK    5  A    between atoms: C_9  and  C_17
REMARK    6  A    between atoms: C_13  and  C_20
REMARK    7  A    between atoms: C_21  and  C_22
REMARK                            x       y       z     vdW  Elec       q    Type
REMARK                         _______ _______ _______ _____ _____    ______ ____
ROOT
ATOM      5  N   UNL     1      21.590   5.311  22.691  0.00  0.00    -0.274 NA
ATOM      7  N   UNL     1      18.731   7.653  22.018  0.00  0.00    -0.356 N 
ATOM      8  C   UNL     1      20.952   6.659  22.813  0.00  0.00    +0.106 C 
ATOM      9  C   UNL     1      22.838   5.213  23.489  0.00  0.00    +0.093 C 
ATOM     10  C   UNL     1      20.637   6.979  24.282  0.00  0.00    +0.044 C 
ATOM     11  C   UNL     1      21.911   6.934  25.125  0.00  0.00    +0.057 C 
ATOM     12  C   UNL     1      22.578   5.567  24.973  0.00  0.00    +0.042 C 
ATOM     13  C   UNL     1      21.715   4.855  21.279  0.00  0.00    +0.172 C 
ATOM     14  C   UNL     1      19.721   6.713  21.958  0.00  0.00    +0.038 A 
ATOM     15  C   UNL     1      20.341   4.724  20.573  0.00  0.00    +0.068 C 
ATOM     16  C   UNL     1      19.434   5.853  20.921  0.00  0.00    -0.016 A 
ATOM     18  C   UNL     1      18.200   6.262  20.347  0.00  0.00    +0.003 A 
ATOM     19  C   UNL     1      17.780   7.392  21.054  0.00  0.00    +0.047 A 
ATOM     25  C   UNL     1      17.397   5.786  19.291  0.00  0.00    +0.010 A 
ATOM     27  C   UNL     1      16.592   8.070  20.755  0.00  0.00    +0.026 A 
ATOM     30  C   UNL     1      16.206   6.454  18.983  0.00  0.00    +0.001 A 
ATOM     33  C   UNL     1      15.812   7.578  19.706  0.00  0.00    +0.002 A 
ATOM     37  H   UNL     1      18.692   8.424  22.670  0.00  0.00    +0.166 HD
ENDROOT
BRANCH   9  17
ATOM      1  F   UNL     1      25.617   4.817  23.032  0.00  0.00    -0.205 F 
ATOM     17  C   UNL     1      23.496   3.836  23.452  0.00  0.00    +0.005 A 
ATOM     23  C   UNL     1      24.867   3.722  23.221  0.00  0.00    +0.128 A 
ATOM     24  C   UNL     1      22.724   2.690  23.647  0.00  0.00    +0.008 A 
ATOM     31  C   UNL     1      25.466   2.463  23.187  0.00  0.00    +0.038 A 
ATOM     32  C   UNL     1      23.323   1.432  23.612  0.00  0.00    +0.000 A 
ATOM     34  C   UNL     1      24.694   1.318  23.382  0.00  0.00    +0.003 A 
ENDBRANCH   9  17
BRANCH  13  20
ATOM      4  O   UNL     1      22.355   6.926  20.223  0.00  0.00    -0.249 OA
ATOM     20  C   UNL     1      22.628   5.769  20.510  0.00  0.00    +0.325 C 
BRANCH  20   3
ATOM      3  O   UNL     1      23.778   5.106  20.199  0.00  0.00    -0.467 OA
ATOM     35  C   UNL     1      24.959   5.913  20.154  0.00  0.00    +0.280 C 
ENDBRANCH  20   3
ENDBRANCH  13  20
BRANCH  11   6
ATOM      6  N   UNL     1      21.597   7.208  26.527  0.00  0.00    -0.311 NA
ATOM     36  H   UNL     1      22.323   6.814  27.125  0.00  0.00    +0.122 HD
BRANCH   6  21
ATOM     21  C   UNL     1      20.318   6.620  26.893  0.00  0.00    +0.112 C 
BRANCH  21  22
ATOM      2  O   UNL     1      19.523   5.970  29.082  0.00  0.00    -0.375 OA
ATOM     22  C   UNL     1      20.471   5.651  28.048  0.00  0.00    +0.132 C 
ATOM     26  C   UNL     1      21.841   5.698  28.701  0.00  0.00    +0.035 C 
ATOM     28  C   UNL     1      21.528   5.208  30.093  0.00  0.00    +0.031 C 
ATOM     29  C   UNL     1      20.179   5.845  30.353  0.00  0.00    +0.160 C 
ENDBRANCH  21  22
ENDBRANCH   6  21
ENDBRANCH  11   6
TORSDOF 6
ENDMDL
MODEL 7
REMARK VINA RESULT:      -6.6     26.641     29.876
REMARK  Name = 25389794
REMARK  7 active torsions:
REMARK  status: ('A' for Active; 'I' for Inactive)
REMARK    1  A    between atoms: O_3  and  C_20
REMARK    2  A    between atoms: O_3  and  C_35
REMARK    3  A    between atoms: N_6  and  C_11
REMARK    4  A    between atoms: N_6  and  C_21
REMARK    5  A    between atoms: C_9  and  C_17
REMARK    6  A    between atoms: C_13  and  C_20
REMARK    7  A    between atoms: C_21  and  C_22
REMARK                            x       y       z     vdW  Elec       q    Type
REMARK                         _______ _______ _______ _____ _____    ______ ____
ROOT
ATOM      5  N   UNL     1     -15.004   7.114  22.149  0.00  0.00    -0.274 NA
ATOM      7  N   UNL     1     -17.141   6.249  25.115  0.00  0.00    -0.356 N 
ATOM      8  C   UNL     1     -16.180   7.387  23.033  0.00  0.00    +0.106 C 
ATOM      9  C   UNL     1     -14.793   8.196  21.155  0.00  0.00    +0.093 C 
ATOM     10  C   UNL     1     -16.004   8.722  23.772  0.00  0.00    +0.044 C 
ATOM     11  C   UNL     1     -15.832   9.868  22.775  0.00  0.00    +0.057 C 
ATOM     12  C   UNL     1     -14.651   9.571  21.852  0.00  0.00    +0.042 C 
ATOM     13  C   UNL     1     -15.016   5.737  21.580  0.00  0.00    +0.172 C 
ATOM     14  C   UNL     1     -16.368   6.246  23.988  0.00  0.00    +0.038 A 
ATOM     15  C   UNL     1     -14.969   4.642  22.674  0.00  0.00    +0.068 C 
ATOM     16  C   UNL     1     -15.841   4.983  23.833  0.00  0.00    -0.016 A 
ATOM     18  C   UNL     1     -16.280   4.191  24.928  0.00  0.00    +0.003 A 
ATOM     19  C   UNL     1     -17.093   5.010  25.718  0.00  0.00    +0.047 A 
ATOM     25  C   UNL     1     -16.070   2.856  25.328  0.00  0.00    +0.010 A 
ATOM     27  C   UNL     1     -17.707   4.555  26.891  0.00  0.00    +0.026 A 
ATOM     30  C   UNL     1     -16.677   2.390  26.500  0.00  0.00    +0.001 A 
ATOM     33  C   UNL     1     -17.482   3.229  27.268  0.00  0.00    +0.002 A 
ATOM     37  H   UNL     1     -17.669   7.037  25.463  0.00  0.00    +0.166 HD
ENDROOT
BRANCH   9  17
ATOM      1  F   UNL     1     -14.861   8.399  18.319  0.00  0.00    -0.205 F 
ATOM     17  C   UNL     1     -13.567   7.999  20.269  0.00  0.00    +0.005 A 
ATOM     23  C   UNL     1     -13.678   8.114  18.883  0.00  0.00    +0.128 A 
ATOM     24  C   UNL     1     -12.332   7.701  20.845  0.00  0.00    +0.008 A 
ATOM     31  C   UNL     1     -12.557   7.933  18.075  0.00  0.00    +0.038 A 
ATOM     32  C   UNL     1     -11.210   7.520  20.037  0.00  0.00    +0.000 A 
ATOM     34  C   UNL     1     -11.322   7.635  18.652  0.00  0.00    +0.003 A 
ENDBRANCH   9  17
BRANCH  13  20
ATOM      4  O   UNL     1     -16.543   6.343  19.816  0.00  0.00    -0.249 OA
ATOM     20  C   UNL     1     -16.206   5.548  20.683  0.00  0.00    +0.325 C 
BRANCH  20   3
ATOM      3  O   UNL     1     -16.826   4.374  20.990  0.00  0.00    -0.467 OA
ATOM     35  C   UNL     1     -18.207   4.293  20.623  0.00  0.00    +0.280 C 
ENDBRANCH  20   3
ENDBRANCH  13  20
BRANCH  11   6
ATOM      6  N   UNL     1     -15.633  11.129  23.487  0.00  0.00    -0.311 NA
ATOM     36  H   UNL     1     -14.869  11.649  23.058  0.00  0.00    +0.122 HD
BRANCH   6  21
ATOM     21  C   UNL     1     -15.310  10.887  24.884  0.00  0.00    +0.112 C 
BRANCH  21  22
ATOM      2  O   UNL     1     -13.310  11.961  24.052  0.00  0.00    -0.375 OA
ATOM     22  C   UNL     1     -13.934  11.421  25.230  0.00  0.00    +0.132 C 
ATOM     26  C   UNL     1     -12.988  10.360  25.762  0.00  0.00    +0.035 C 
ATOM     28  C   UNL     1     -11.646  10.945  25.402  0.00  0.00    +0.031 C 
ATOM     29  C   UNL     1     -11.929  11.569  24.050  0.00  0.00    +0.160 C 
ENDBRANCH  21  22
ENDBRANCH   6  21
ENDBRANCH  11   6
TORSDOF 6
ENDMDL
MODEL 8
REMARK VINA RESULT:      -6.4     14.918     17.920
REMARK  Name = 25389794
REMARK  7 active torsions:
REMARK  status: ('A' for Active; 'I' for Inactive)
REMARK    1  A    between atoms: O_3  and  C_20
REMARK    2  A    between atoms: O_3  and  C_35
REMARK    3  A    between atoms: N_6  and  C_11
REMARK    4  A    between atoms: N_6  and  C_21
REMARK    5  A    between atoms: C_9  and  C_17
REMARK    6  A    between atoms: C_13  and  C_20
REMARK    7  A    between atoms: C_21  and  C_22
REMARK                            x       y       z     vdW  Elec       q    Type
REMARK                         _______ _______ _______ _____ _____    ______ ____
ROOT
ATOM      5  N   UNL     1      17.040  -7.436  25.837  0.00  0.00    -0.274 NA
ATOM      7  N   UNL     1      17.521  -3.731  26.219  0.00  0.00    -0.356 N 
ATOM      8  C   UNL     1      17.488  -6.256  26.639  0.00  0.00    +0.106 C 
ATOM      9  C   UNL     1      17.087  -8.694  26.625  0.00  0.00    +0.093 C 
ATOM     10  C   UNL     1      16.622  -6.094  27.898  0.00  0.00    +0.044 C 
ATOM     11  C   UNL     1      16.687  -7.356  28.758  0.00  0.00    +0.057 C 
ATOM     12  C   UNL     1      16.260  -8.565  27.926  0.00  0.00    +0.042 C 
ATOM     13  C   UNL     1      17.695  -7.511  24.501  0.00  0.00    +0.172 C 
ATOM     14  C   UNL     1      17.457  -5.024  25.784  0.00  0.00    +0.038 A 
ATOM     15  C   UNL     1      17.388  -6.275  23.619  0.00  0.00    +0.068 C 
ATOM     16  C   UNL     1      17.430  -5.012  24.407  0.00  0.00    -0.016 A 
ATOM     18  C   UNL     1      17.443  -3.655  23.984  0.00  0.00    +0.003 A 
ATOM     19  C   UNL     1      17.498  -2.872  25.141  0.00  0.00    +0.047 A 
ATOM     25  C   UNL     1      17.416  -3.011  22.731  0.00  0.00    +0.010 A 
ATOM     27  C   UNL     1      17.528  -1.473  25.103  0.00  0.00    +0.026 A 
ATOM     30  C   UNL     1      17.443  -1.613  22.679  0.00  0.00    +0.001 A 
ATOM     33  C   UNL     1      17.498  -0.858  23.849  0.00  0.00    +0.002 A 
ATOM     37  H   UNL     1      17.574  -3.438  27.186  0.00  0.00    +0.166 HD
ENDROOT
BRANCH   9  17
ATOM      1  F   UNL     1      14.557  -8.799  25.330  0.00  0.00    -0.205 F 
ATOM     17  C   UNL     1      16.578  -9.920  25.873  0.00  0.00    +0.005 A 
ATOM     23  C   UNL     1      15.324  -9.897  25.263  0.00  0.00    +0.128 A 
ATOM     24  C   UNL     1      17.368 -11.068  25.797  0.00  0.00    +0.008 A 
ATOM     31  C   UNL     1      14.860 -11.019  24.577  0.00  0.00    +0.038 A 
ATOM     32  C   UNL     1      16.905 -12.189  25.111  0.00  0.00    +0.000 A 
ATOM     34  C   UNL     1      15.651 -12.166  24.501  0.00  0.00    +0.003 A 
ENDBRANCH   9  17
BRANCH  13  20
ATOM      4  O   UNL     1      19.700  -8.272  25.603  0.00  0.00    -0.249 OA
ATOM     20  C   UNL     1      19.177  -7.707  24.653  0.00  0.00    +0.325 C 
BRANCH  20   3
ATOM      3  O   UNL     1      19.820  -7.165  23.580  0.00  0.00    -0.467 OA
ATOM     35  C   UNL     1      21.127  -7.684  23.320  0.00  0.00    +0.280 C 
ENDBRANCH  20   3
ENDBRANCH  13  20
BRANCH  11   6
ATOM      6  N   UNL     1      15.835  -7.206  29.936  0.00  0.00    -0.311 NA
ATOM     36  H   UNL     1      14.943  -7.674  29.778  0.00  0.00    +0.122 HD
BRANCH   6  21
ATOM     21  C   UNL     1      15.584  -5.801  30.216  0.00  0.00    +0.112 C 
BRANCH  21  22
ATOM      2  O   UNL     1      14.018  -5.411  32.016  0.00  0.00    -0.375 OA
ATOM     22  C   UNL     1      14.135  -5.567  30.592  0.00  0.00    +0.132 C 
ATOM     26  C   UNL     1      13.218  -6.719  30.216  0.00  0.00    +0.035 C 
ATOM     28  C   UNL     1      12.100  -6.551  31.214  0.00  0.00    +0.031 C 
ATOM     29  C   UNL     1      12.852  -6.123  32.457  0.00  0.00    +0.160 C 
ENDBRANCH  21  22
ENDBRANCH   6  21
ENDBRANCH  11   6
TORSDOF 6
ENDMDL
MODEL 9
REMARK VINA RESULT:      -6.3     25.519     27.902
REMARK  Name = 25389794
REMARK  7 active torsions:
REMARK  status: ('A' for Active; 'I' for Inactive)
REMARK    1  A    between atoms: O_3  and  C_20
REMARK    2  A    between atoms: O_3  and  C_35
REMARK    3  A    between atoms: N_6  and  C_11
REMARK    4  A    between atoms: N_6  and  C_21
REMARK    5  A    between atoms: C_9  and  C_17
REMARK    6  A    between atoms: C_13  and  C_20
REMARK    7  A    between atoms: C_21  and  C_22
REMARK                            x       y       z     vdW  Elec       q    Type
REMARK                         _______ _______ _______ _____ _____    ______ ____
ROOT
ATOM      5  N   UNL     1     -13.257   9.332  19.846  0.00  0.00    -0.274 NA
ATOM      7  N   UNL     1     -12.458  12.474  17.949  0.00  0.00    -0.356 N 
ATOM      8  C   UNL     1     -12.404  10.542  19.627  0.00  0.00    +0.106 C 
ATOM      9  C   UNL     1     -12.881   8.605  21.085  0.00  0.00    +0.093 C 
ATOM     10  C   UNL     1     -12.503  11.500  20.823  0.00  0.00    +0.044 C 
ATOM     11  C   UNL     1     -12.076  10.796  22.111  0.00  0.00    +0.057 C 
ATOM     12  C   UNL     1     -12.927   9.543  22.316  0.00  0.00    +0.042 C 
ATOM     13  C   UNL     1     -13.373   8.478  18.632  0.00  0.00    +0.172 C 
ATOM     14  C   UNL     1     -12.800  11.212  18.346  0.00  0.00    +0.038 A 
ATOM     15  C   UNL     1     -14.021   9.226  17.439  0.00  0.00    +0.068 C 
ATOM     16  C   UNL     1     -13.521  10.624  17.329  0.00  0.00    -0.016 A 
ATOM     18  C   UNL     1     -13.654  11.577  16.283  0.00  0.00    +0.003 A 
ATOM     19  C   UNL     1     -12.980  12.729  16.699  0.00  0.00    +0.047 A 
ATOM     25  C   UNL     1     -14.279  11.576  15.020  0.00  0.00    +0.010 A 
ATOM     27  C   UNL     1     -12.901  13.882  15.908  0.00  0.00    +0.026 A 
ATOM     30  C   UNL     1     -14.210  12.723  14.222  0.00  0.00    +0.001 A 
ATOM     33  C   UNL     1     -13.531  13.858  14.661  0.00  0.00    +0.002 A 
ATOM     37  H   UNL     1     -11.908  13.130  18.487  0.00  0.00    +0.166 HD
ENDROOT
BRANCH   9  17
ATOM      1  F   UNL     1     -11.851   6.010  21.626  0.00  0.00    -0.205 F 
ATOM     17  C   UNL     1     -13.763   7.398  21.391  0.00  0.00    +0.005 A 
ATOM     23  C   UNL     1     -13.184   6.155  21.646  0.00  0.00    +0.128 A 
ATOM     24  C   UNL     1     -15.151   7.537  21.415  0.00  0.00    +0.008 A 
ATOM     31  C   UNL     1     -13.991   5.052  21.925  0.00  0.00    +0.038 A 
ATOM     32  C   UNL     1     -15.958   6.435  21.694  0.00  0.00    +0.000 A 
ATOM     34  C   UNL     1     -15.379   5.193  21.949  0.00  0.00    +0.003 A 
ENDBRANCH   9  17
BRANCH  13  20
ATOM      4  O   UNL     1     -11.296   7.316  19.019  0.00  0.00    -0.249 OA
ATOM     20  C   UNL     1     -12.031   7.921  18.250  0.00  0.00    +0.325 C 
BRANCH  20   3
ATOM      3  O   UNL     1     -11.781   8.195  16.938  0.00  0.00    -0.467 OA
ATOM     35  C   UNL     1     -10.452   8.636  16.645  0.00  0.00    +0.280 C 
ENDBRANCH  20   3
ENDBRANCH  13  20
BRANCH  11   6
ATOM      6  N   UNL     1     -12.205  11.705  23.248  0.00  0.00    -0.311 NA
ATOM     36  H   UNL     1     -11.280  11.950  23.600  0.00  0.00    +0.122 HD
BRANCH   6  21
ATOM     21  C   UNL     1     -12.965  11.084  24.321  0.00  0.00    +0.112 C 
BRANCH  21  22
ATOM      2  O   UNL     1     -10.905  10.768  25.547  0.00  0.00    -0.375 OA
ATOM     22  C   UNL     1     -12.259  11.238  25.654  0.00  0.00    +0.132 C 
ATOM     26  C   UNL     1     -12.898  10.437  26.774  0.00  0.00    +0.035 C 
ATOM     28  C   UNL     1     -11.729  10.236  27.706  0.00  0.00    +0.031 C 
ATOM     29  C   UNL     1     -10.587  10.024  26.733  0.00  0.00    +0.160 C 
ENDBRANCH  21  22
ENDBRANCH   6  21
ENDBRANCH  11   6
TORSDOF 6
ENDMDL
MODEL 10
REMARK VINA RESULT:      -6.3     28.328     31.363
REMARK  Name = 25389794
REMARK  7 active torsions:
REMARK  status: ('A' for Active; 'I' for Inactive)
REMARK    1  A    between atoms: O_3  and  C_20
REMARK    2  A    between atoms: O_3  and  C_35
REMARK    3  A    between atoms: N_6  and  C_11
REMARK    4  A    between atoms: N_6  and  C_21
REMARK    5  A    between atoms: C_9  and  C_17
REMARK    6  A    between atoms: C_13  and  C_20
REMARK    7  A    between atoms: C_21  and  C_22
REMARK                            x       y       z     vdW  Elec       q    Type
REMARK                         _______ _______ _______ _____ _____    ______ ____
ROOT
ATOM      5  N   UNL     1     -10.049 -10.177  17.527  0.00  0.00    -0.274 NA
ATOM      7  N   UNL     1      -6.531  -9.491  16.404  0.00  0.00    -0.356 N 
ATOM      8  C   UNL     1      -8.872  -9.260  17.413  0.00  0.00    +0.106 C 
ATOM      9  C   UNL     1     -11.245  -9.481  18.068  0.00  0.00    +0.093 C 
ATOM     10  C   UNL     1      -9.205  -8.059  16.516  0.00  0.00    +0.044 C 
ATOM     11  C   UNL     1     -10.404  -7.291  17.072  0.00  0.00    +0.057 C 
ATOM     12  C   UNL     1     -11.595  -8.237  17.217  0.00  0.00    +0.042 C 
ATOM     13  C   UNL     1      -9.719 -11.464  18.200  0.00  0.00    +0.172 C 
ATOM     14  C   UNL     1      -7.688 -10.023  16.901  0.00  0.00    +0.038 A 
ATOM     15  C   UNL     1      -8.641 -12.273  17.436  0.00  0.00    +0.068 C 
ATOM     16  C   UNL     1      -7.555 -11.395  16.920  0.00  0.00    -0.016 A 
ATOM     18  C   UNL     1      -6.280 -11.715  16.379  0.00  0.00    +0.003 A 
ATOM     19  C   UNL     1      -5.659 -10.503  16.063  0.00  0.00    +0.047 A 
ATOM     25  C   UNL     1      -5.588 -12.917  16.130  0.00  0.00    +0.010 A 
ATOM     27  C   UNL     1      -4.376 -10.437  15.507  0.00  0.00    +0.026 A 
ATOM     30  C   UNL     1      -4.305 -12.864  15.573  0.00  0.00    +0.001 A 
ATOM     33  C   UNL     1      -3.711 -11.642  15.267  0.00  0.00    +0.002 A 
ATOM     37  H   UNL     1      -6.337  -8.505  16.296  0.00  0.00    +0.166 HD
ENDROOT
BRANCH   9  17
ATOM      1  F   UNL     1     -13.023  -9.482  20.287  0.00  0.00    -0.205 F 
ATOM     17  C   UNL     1     -12.494 -10.355  18.144  0.00  0.00    +0.005 A 
ATOM     23  C   UNL     1     -13.318 -10.301  19.268  0.00  0.00    +0.128 A 
ATOM     24  C   UNL     1     -12.810 -11.211  17.089  0.00  0.00    +0.008 A 
ATOM     31  C   UNL     1     -14.459 -11.100  19.336  0.00  0.00    +0.038 A 
ATOM     32  C   UNL     1     -13.951 -12.010  17.157  0.00  0.00    +0.000 A 
ATOM     34  C   UNL     1     -14.775 -11.956  18.280  0.00  0.00    +0.003 A 
ENDBRANCH   9  17
BRANCH  13  20
ATOM      4  O   UNL     1      -8.180 -10.851  19.953  0.00  0.00    -0.249 OA
ATOM     20  C   UNL     1      -9.299 -11.221  19.623  0.00  0.00    +0.325 C 
BRANCH  20   3
ATOM      3  O   UNL     1     -10.347 -11.473  20.456  0.00  0.00    -0.467 OA
ATOM     35  C   UNL     1     -10.816 -12.825  20.461  0.00  0.00    +0.280 C 
ENDBRANCH  20   3
ENDBRANCH  13  20
BRANCH  11   6
ATOM      6  N   UNL     1     -10.733  -6.169  16.194  0.00  0.00    -0.311 NA
ATOM     36  H   UNL     1     -11.216  -5.446  16.726  0.00  0.00    +0.122 HD
BRANCH   6  21
ATOM     21  C   UNL     1     -11.593  -6.602  15.104  0.00  0.00    +0.112 C 
BRANCH  21  22
ATOM      2  O   UNL     1     -13.898  -6.062  14.614  0.00  0.00    -0.375 OA
ATOM     22  C   UNL     1     -12.572  -5.514  14.712  0.00  0.00    +0.132 C 
ATOM     26  C   UNL     1     -12.273  -4.887  13.362  0.00  0.00    +0.035 C 
ATOM     28  C   UNL     1     -13.637  -4.393  12.950  0.00  0.00    +0.031 C 
ATOM     29  C   UNL     1     -14.537  -5.501  13.458  0.00  0.00    +0.160 C 
ENDBRANCH  21  22
ENDBRANCH   6  21
ENDBRANCH  11   6
TORSDOF 6
ENDMDL
