MODEL 1
REMARK VINA RESULT:      -5.9      0.000      0.000
REMARK  Name = 51137074
REMARK  2 active torsions:
REMARK  status: ('A' for Active; 'I' for Inactive)
REMARK    1  A    between atoms: N_2  and  C_4
REMARK    2  A    between atoms: C_9  and  C_12
REMARK                            x       y       z     vdW  Elec       q    Type
REMARK                         _______ _______ _______ _____ _____    ______ ____
ROOT
ATOM      2  N   UNL     1      11.569   9.872  20.768  0.00  0.00    -0.299 NA
ATOM      7  C   UNL     1      12.974   9.816  20.359  0.00  0.00    +0.095 C 
ATOM      9  C   UNL     1      13.090   8.420  19.732  0.00  0.00    +0.060 C 
ATOM     10  C   UNL     1      11.300   8.564  21.368  0.00  0.00    +0.085 C 
ATOM     11  C   UNL     1      11.967   7.602  20.394  0.00  0.00    +0.027 C 
ENDROOT
BRANCH   9  12
ATOM      1  S   UNL     1      15.455   8.298  21.188  0.00  0.00    -0.072 S 
ATOM      3  N   UNL     1      14.991   6.955  19.035  0.00  0.00    -0.244 NA
ATOM     12  C   UNL     1      14.473   7.826  19.869  0.00  0.00    +0.084 A 
ATOM     13  C   UNL     1      16.704   7.254  20.618  0.00  0.00    +0.039 A 
ATOM     14  C   UNL     1      16.271   6.617  19.451  0.00  0.00    +0.078 A 
ATOM     15  C   UNL     1      17.975   7.015  21.165  0.00  0.00    +0.017 A 
ATOM     16  C   UNL     1      17.143   5.710  18.810  0.00  0.00    +0.029 A 
ATOM     17  C   UNL     1      18.818   6.114  20.511  0.00  0.00    +0.001 A 
ATOM     18  C   UNL     1      18.410   5.468  19.349  0.00  0.00    +0.002 A 
ENDBRANCH   9  12
BRANCH   2   4
ATOM      4  C   UNL     1      11.352  10.946  21.745  0.00  0.00    +0.057 C 
ATOM      5  C   UNL     1      10.855  10.341  23.076  0.00  0.00    +0.019 C 
ATOM      6  C   UNL     1      12.677  11.260  22.472  0.00  0.00    +0.019 C 
ATOM      8  C   UNL     1      11.866  11.266  23.784  0.00  0.00    +0.003 C 
ENDBRANCH   2   4
TORSDOF 2
ENDMDL
MODEL 2
REMARK VINA RESULT:      -5.8      1.479      2.210
REMARK  Name = 51137074
REMARK  2 active torsions:
REMARK  status: ('A' for Active; 'I' for Inactive)
REMARK    1  A    between atoms: N_2  and  C_4
REMARK    2  A    between atoms: C_9  and  C_12
REMARK                            x       y       z     vdW  Elec       q    Type
REMARK                         _______ _______ _______ _____ _____    ______ ____
ROOT
ATOM      2  N   UNL     1      11.337  11.519  22.634  0.00  0.00    -0.299 NA
ATOM      7  C   UNL     1      12.571  11.240  21.896  0.00  0.00    +0.095 C 
ATOM      9  C   UNL     1      12.236   9.941  21.151  0.00  0.00    +0.060 C 
ATOM     10  C   UNL     1      10.923  10.223  23.176  0.00  0.00    +0.085 C 
ATOM     11  C   UNL     1      11.132   9.281  21.997  0.00  0.00    +0.027 C 
ENDROOT
BRANCH   9  12
ATOM      1  S   UNL     1      14.679   9.006  22.091  0.00  0.00    -0.072 S 
ATOM      3  N   UNL     1      13.636   8.353  19.824  0.00  0.00    -0.244 NA
ATOM     12  C   UNL     1      13.449   9.074  20.904  0.00  0.00    +0.084 A 
ATOM     13  C   UNL     1      15.565   7.913  21.094  0.00  0.00    +0.039 A 
ATOM     14  C   UNL     1      14.846   7.680  19.918  0.00  0.00    +0.078 A 
ATOM     15  C   UNL     1      16.807   7.304  21.336  0.00  0.00    +0.017 A 
ATOM     16  C   UNL     1      15.392   6.808  18.950  0.00  0.00    +0.029 A 
ATOM     17  C   UNL     1      17.324   6.445  20.363  0.00  0.00    +0.001 A 
ATOM     18  C   UNL     1      16.628   6.198  19.186  0.00  0.00    +0.002 A 
ENDBRANCH   9  12
BRANCH   2   4
ATOM      4  C   UNL     1      11.582  12.479  23.717  0.00  0.00    +0.057 C 
ATOM      5  C   UNL     1      10.288  13.268  24.011  0.00  0.00    +0.019 C 
ATOM      6  C   UNL     1      11.379  11.786  25.081  0.00  0.00    +0.019 C 
ATOM      8  C   UNL     1      10.578  13.033  25.508  0.00  0.00    +0.003 C 
ENDBRANCH   2   4
TORSDOF 2
ENDMDL
MODEL 3
REMARK VINA RESULT:      -5.7     26.542     27.726
REMARK  Name = 51137074
REMARK  2 active torsions:
REMARK  status: ('A' for Active; 'I' for Inactive)
REMARK    1  A    between atoms: N_2  and  C_4
REMARK    2  A    between atoms: C_9  and  C_12
REMARK                            x       y       z     vdW  Elec       q    Type
REMARK                         _______ _______ _______ _____ _____    ______ ____
ROOT
ATOM      2  N   UNL     1      -2.156 -11.035  12.571  0.00  0.00    -0.299 NA
ATOM      7  C   UNL     1      -2.889 -10.301  13.605  0.00  0.00    +0.095 C 
ATOM      9  C   UNL     1      -2.459 -11.011  14.896  0.00  0.00    +0.060 C 
ATOM     10  C   UNL     1      -2.295 -12.445  12.941  0.00  0.00    +0.085 C 
ATOM     11  C   UNL     1      -2.051 -12.426  14.445  0.00  0.00    +0.027 C 
ENDROOT
BRANCH   9  12
ATOM      1  S   UNL     1      -5.048 -10.294  15.610  0.00  0.00    -0.072 S 
ATOM      3  N   UNL     1      -3.352 -11.422  17.193  0.00  0.00    -0.244 NA
ATOM     12  C   UNL     1      -3.518 -10.970  15.973  0.00  0.00    +0.084 A 
ATOM     13  C   UNL     1      -5.563 -10.623  17.223  0.00  0.00    +0.039 A 
ATOM     14  C   UNL     1      -4.517 -11.230  17.923  0.00  0.00    +0.078 A 
ATOM     15  C   UNL     1      -6.805 -10.363  17.824  0.00  0.00    +0.017 A 
ATOM     16  C   UNL     1      -4.722 -11.587  19.274  0.00  0.00    +0.029 A 
ATOM     17  C   UNL     1      -6.982 -10.726  19.161  0.00  0.00    +0.001 A 
ATOM     18  C   UNL     1      -5.956 -11.331  19.879  0.00  0.00    +0.002 A 
ENDBRANCH   9  12
BRANCH   2   4
ATOM      4  C   UNL     1      -2.735 -10.787  11.246  0.00  0.00    +0.057 C 
ATOM      5  C   UNL     1      -4.128 -10.139  11.403  0.00  0.00    +0.019 C 
ATOM      6  C   UNL     1      -2.246  -9.423  10.713  0.00  0.00    +0.019 C 
ATOM      8  C   UNL     1      -3.706  -9.149  10.298  0.00  0.00    +0.003 C 
ENDBRANCH   2   4
TORSDOF 2
ENDMDL
MODEL 4
REMARK VINA RESULT:      -5.6     26.692     27.862
REMARK  Name = 51137074
REMARK  2 active torsions:
REMARK  status: ('A' for Active; 'I' for Inactive)
REMARK    1  A    between atoms: N_2  and  C_4
REMARK    2  A    between atoms: C_9  and  C_12
REMARK                            x       y       z     vdW  Elec       q    Type
REMARK                         _______ _______ _______ _____ _____    ______ ____
ROOT
ATOM      2  N   UNL     1      -4.543 -12.011  16.945  0.00  0.00    -0.299 NA
ATOM      7  C   UNL     1      -5.041 -11.988  15.568  0.00  0.00    +0.095 C 
ATOM      9  C   UNL     1      -3.787 -11.635  14.758  0.00  0.00    +0.060 C 
ATOM     10  C   UNL     1      -3.676 -10.835  17.049  0.00  0.00    +0.085 C 
ATOM     11  C   UNL     1      -2.880 -10.886  15.751  0.00  0.00    +0.027 C 
ENDROOT
BRANCH   9  12
ATOM      1  S   UNL     1      -5.642 -10.162  13.304  0.00  0.00    -0.072 S 
ATOM      3  N   UNL     1      -3.259 -10.722  12.493  0.00  0.00    -0.244 NA
ATOM     12  C   UNL     1      -4.099 -10.877  13.488  0.00  0.00    +0.084 A 
ATOM     13  C   UNL     1      -5.175  -9.579  11.750  0.00  0.00    +0.039 A 
ATOM     14  C   UNL     1      -3.861  -9.978  11.487  0.00  0.00    +0.078 A 
ATOM     15  C   UNL     1      -5.917  -8.821  10.830  0.00  0.00    +0.017 A 
ATOM     16  C   UNL     1      -3.272  -9.607  10.259  0.00  0.00    +0.029 A 
ATOM     17  C   UNL     1      -5.310  -8.466   9.623  0.00  0.00    +0.001 A 
ATOM     18  C   UNL     1      -4.005  -8.852   9.339  0.00  0.00    +0.002 A 
ENDBRANCH   9  12
BRANCH   2   4
ATOM      4  C   UNL     1      -5.652 -11.924  17.903  0.00  0.00    +0.057 C 
ATOM      5  C   UNL     1      -5.092 -11.689  19.322  0.00  0.00    +0.019 C 
ATOM      6  C   UNL     1      -6.180 -10.475  17.954  0.00  0.00    +0.019 C 
ATOM      8  C   UNL     1      -6.185 -10.613  19.491  0.00  0.00    +0.003 C 
ENDBRANCH   2   4
TORSDOF 2
ENDMDL
MODEL 5
REMARK VINA RESULT:      -5.6     15.760     17.834
REMARK  Name = 51137074
REMARK  2 active torsions:
REMARK  status: ('A' for Active; 'I' for Inactive)
REMARK    1  A    between atoms: N_2  and  C_4
REMARK    2  A    between atoms: C_9  and  C_12
REMARK                            x       y       z     vdW  Elec       q    Type
REMARK                         _______ _______ _______ _____ _____    ______ ____
ROOT
ATOM      2  N   UNL     1      11.596   5.756   1.490  0.00  0.00    -0.299 NA
ATOM      7  C   UNL     1      10.777   5.163   2.550  0.00  0.00    +0.095 C 
ATOM      9  C   UNL     1      10.241   6.392   3.294  0.00  0.00    +0.060 C 
ATOM     10  C   UNL     1      12.337   6.834   2.148  0.00  0.00    +0.085 C 
ATOM     11  C   UNL     1      11.272   7.500   3.009  0.00  0.00    +0.027 C 
ENDROOT
BRANCH   9  12
ATOM      1  S   UNL     1       9.454   7.416   5.756  0.00  0.00    -0.072 S 
ATOM      3  N   UNL     1      10.135   4.962   5.341  0.00  0.00    -0.244 NA
ATOM     12  C   UNL     1       9.982   6.128   4.759  0.00  0.00    +0.084 A 
ATOM     13  C   UNL     1       9.417   6.342   7.104  0.00  0.00    +0.039 A 
ATOM     14  C   UNL     1       9.814   5.068   6.687  0.00  0.00    +0.078 A 
ATOM     15  C   UNL     1       9.060   6.607   8.436  0.00  0.00    +0.017 A 
ATOM     16  C   UNL     1       9.857   4.025   7.638  0.00  0.00    +0.029 A 
ATOM     17  C   UNL     1       9.110   5.558   9.357  0.00  0.00    +0.001 A 
ATOM     18  C   UNL     1       9.503   4.283   8.965  0.00  0.00    +0.002 A 
ENDBRANCH   9  12
BRANCH   2   4
ATOM      4  C   UNL     1      12.518   4.763   0.925  0.00  0.00    +0.057 C 
ATOM      5  C   UNL     1      13.935   4.992   1.493  0.00  0.00    +0.019 C 
ATOM      6  C   UNL     1      12.471   3.473   1.770  0.00  0.00    +0.019 C 
ATOM      8  C   UNL     1      14.012   3.465   1.705  0.00  0.00    +0.003 C 
ENDBRANCH   2   4
TORSDOF 2
ENDMDL
MODEL 6
REMARK VINA RESULT:      -5.6     27.366     28.086
REMARK  Name = 51137074
REMARK  2 active torsions:
REMARK  status: ('A' for Active; 'I' for Inactive)
REMARK    1  A    between atoms: N_2  and  C_4
REMARK    2  A    between atoms: C_9  and  C_12
REMARK                            x       y       z     vdW  Elec       q    Type
REMARK                         _______ _______ _______ _____ _____    ______ ____
ROOT
ATOM      2  N   UNL     1      -6.170 -10.665  17.219  0.00  0.00    -0.299 NA
ATOM      7  C   UNL     1      -5.752  -9.743  16.160  0.00  0.00    +0.095 C 
ATOM      9  C   UNL     1      -6.581 -10.208  14.956  0.00  0.00    +0.060 C 
ATOM     10  C   UNL     1      -6.210 -11.980  16.576  0.00  0.00    +0.085 C 
ATOM     11  C   UNL     1      -6.895 -11.688  15.248  0.00  0.00    +0.027 C 
ENDROOT
BRANCH   9  12
ATOM      1  S   UNL     1      -4.338 -10.610  13.365  0.00  0.00    -0.072 S 
ATOM      3  N   UNL     1      -6.413  -9.254  12.653  0.00  0.00    -0.244 NA
ATOM     12  C   UNL     1      -5.895  -9.955  13.634  0.00  0.00    +0.084 A 
ATOM     13  C   UNL     1      -4.325  -9.907  11.791  0.00  0.00    +0.039 A 
ATOM     14  C   UNL     1      -5.524  -9.217  11.588  0.00  0.00    +0.078 A 
ATOM     15  C   UNL     1      -3.326  -9.962  10.806  0.00  0.00    +0.017 A 
ATOM     16  C   UNL     1      -5.728  -8.559  10.355  0.00  0.00    +0.029 A 
ATOM     17  C   UNL     1      -3.552  -9.303   9.595  0.00  0.00    +0.001 A 
ATOM     18  C   UNL     1      -4.737  -8.610   9.370  0.00  0.00    +0.002 A 
ENDBRANCH   9  12
BRANCH   2   4
ATOM      4  C   UNL     1      -5.208 -10.658  18.327  0.00  0.00    +0.057 C 
ATOM      5  C   UNL     1      -5.492 -11.850  19.266  0.00  0.00    +0.019 C 
ATOM      6  C   UNL     1      -3.922 -11.398  17.902  0.00  0.00    +0.019 C 
ATOM      8  C   UNL     1      -3.971 -12.108  19.270  0.00  0.00    +0.003 C 
ENDBRANCH   2   4
TORSDOF 2
ENDMDL
MODEL 7
REMARK VINA RESULT:      -5.5     16.042     17.245
REMARK  Name = 51137074
REMARK  2 active torsions:
REMARK  status: ('A' for Active; 'I' for Inactive)
REMARK    1  A    between atoms: N_2  and  C_4
REMARK    2  A    between atoms: C_9  and  C_12
REMARK                            x       y       z     vdW  Elec       q    Type
REMARK                         _______ _______ _______ _____ _____    ______ ____
ROOT
ATOM      2  N   UNL     1       8.491   6.492   6.030  0.00  0.00    -0.299 NA
ATOM      7  C   UNL     1       9.067   6.523   4.684  0.00  0.00    +0.095 C 
ATOM      9  C   UNL     1       9.569   5.086   4.494  0.00  0.00    +0.060 C 
ATOM     10  C   UNL     1       9.455   5.736   6.833  0.00  0.00    +0.085 C 
ATOM     11  C   UNL     1       9.808   4.566   5.924  0.00  0.00    +0.027 C 
ENDROOT
BRANCH   9  12
ATOM      1  S   UNL     1      11.706   6.398   3.295  0.00  0.00    -0.072 S 
ATOM      3  N   UNL     1      11.153   3.900   2.969  0.00  0.00    -0.244 NA
ATOM     12  C   UNL     1      10.767   4.995   3.578  0.00  0.00    +0.084 A 
ATOM     13  C   UNL     1      12.738   5.485   2.259  0.00  0.00    +0.039 A 
ATOM     14  C   UNL     1      12.283   4.164   2.208  0.00  0.00    +0.078 A 
ATOM     15  C   UNL     1      13.870   5.907   1.543  0.00  0.00    +0.017 A 
ATOM     16  C   UNL     1      12.987   3.235   1.410  0.00  0.00    +0.029 A 
ATOM     17  C   UNL     1      14.548   4.968   0.762  0.00  0.00    +0.001 A 
ATOM     18  C   UNL     1      14.115   3.649   0.696  0.00  0.00    +0.002 A 
ENDBRANCH   9  12
BRANCH   2   4
ATOM      4  C   UNL     1       8.327   7.851   6.559  0.00  0.00    +0.057 C 
ATOM      5  C   UNL     1       9.015   7.955   7.938  0.00  0.00    +0.019 C 
ATOM      6  C   UNL     1       9.451   8.758   6.016  0.00  0.00    +0.019 C 
ATOM      8  C   UNL     1       9.608   9.294   7.453  0.00  0.00    +0.003 C 
ENDBRANCH   2   4
TORSDOF 2
ENDMDL
MODEL 8
REMARK VINA RESULT:      -5.4     26.623     29.068
REMARK  Name = 51137074
REMARK  2 active torsions:
REMARK  status: ('A' for Active; 'I' for Inactive)
REMARK    1  A    between atoms: N_2  and  C_4
REMARK    2  A    between atoms: C_9  and  C_12
REMARK                            x       y       z     vdW  Elec       q    Type
REMARK                         _______ _______ _______ _____ _____    ______ ____
ROOT
ATOM      2  N   UNL     1      -3.870 -11.419  16.937  0.00  0.00    -0.299 NA
ATOM      7  C   UNL     1      -4.863 -10.346  16.838  0.00  0.00    +0.095 C 
ATOM      9  C   UNL     1      -5.701 -10.539  18.108  0.00  0.00    +0.060 C 
ATOM     10  C   UNL     1      -4.629 -12.592  17.375  0.00  0.00    +0.085 C 
ATOM     11  C   UNL     1      -5.527 -12.026  18.467  0.00  0.00    +0.027 C 
ENDROOT
BRANCH   9  12
ATOM      1  S   UNL     1      -8.366 -10.903  18.810  0.00  0.00    -0.072 S 
ATOM      3  N   UNL     1      -7.517  -9.103  17.168  0.00  0.00    -0.244 NA
ATOM     12  C   UNL     1      -7.135 -10.090  17.943  0.00  0.00    +0.084 A 
ATOM     13  C   UNL     1      -9.540  -9.856  18.102  0.00  0.00    +0.039 A 
ATOM     14  C   UNL     1      -8.895  -8.956  17.249  0.00  0.00    +0.078 A 
ATOM     15  C   UNL     1     -10.931  -9.833  18.290  0.00  0.00    +0.017 A 
ATOM     16  C   UNL     1      -9.673  -8.000  16.558  0.00  0.00    +0.029 A 
ATOM     17  C   UNL     1     -11.677  -8.878  17.595  0.00  0.00    +0.001 A 
ATOM     18  C   UNL     1     -11.058  -7.972  16.741  0.00  0.00    +0.002 A 
ENDBRANCH   9  12
BRANCH   2   4
ATOM      4  C   UNL     1      -3.237 -11.666  15.637  0.00  0.00    +0.057 C 
ATOM      5  C   UNL     1      -3.810 -10.688  14.589  0.00  0.00    +0.019 C 
ATOM      6  C   UNL     1      -1.917 -10.872  15.543  0.00  0.00    +0.019 C 
ATOM      8  C   UNL     1      -2.357 -10.456  14.124  0.00  0.00    +0.003 C 
ENDBRANCH   2   4
TORSDOF 2
ENDMDL
MODEL 9
REMARK VINA RESULT:      -5.4     25.261     26.647
REMARK  Name = 51137074
REMARK  2 active torsions:
REMARK  status: ('A' for Active; 'I' for Inactive)
REMARK    1  A    between atoms: N_2  and  C_4
REMARK    2  A    between atoms: C_9  and  C_12
REMARK                            x       y       z     vdW  Elec       q    Type
REMARK                         _______ _______ _______ _____ _____    ______ ____
ROOT
ATOM      2  N   UNL     1     -12.836  11.480  25.210  0.00  0.00    -0.299 NA
ATOM      7  C   UNL     1     -12.024  11.437  23.991  0.00  0.00    +0.095 C 
ATOM      9  C   UNL     1     -13.065  11.158  22.899  0.00  0.00    +0.060 C 
ATOM     10  C   UNL     1     -13.763  10.354  25.083  0.00  0.00    +0.085 C 
ATOM     11  C   UNL     1     -14.221  10.455  23.634  0.00  0.00    +0.027 C 
ENDROOT
BRANCH   9  12
ATOM      1  S   UNL     1     -12.984   8.768  21.483  0.00  0.00    -0.072 S 
ATOM      3  N   UNL     1     -11.645  10.883  20.861  0.00  0.00    -0.244 NA
ATOM     12  C   UNL     1     -12.499  10.391  21.726  0.00  0.00    +0.084 A 
ATOM     13  C   UNL     1     -11.970   8.685  20.091  0.00  0.00    +0.039 A 
ATOM     14  C   UNL     1     -11.331   9.917  19.916  0.00  0.00    +0.078 A 
ATOM     15  C   UNL     1     -11.755   7.608  19.216  0.00  0.00    +0.017 A 
ATOM     16  C   UNL     1     -10.446  10.073  18.827  0.00  0.00    +0.029 A 
ATOM     17  C   UNL     1     -10.875   7.789  18.146  0.00  0.00    +0.001 A 
ATOM     18  C   UNL     1     -10.228   9.004  17.952  0.00  0.00    +0.002 A 
ENDBRANCH   9  12
BRANCH   2   4
ATOM      4  C   UNL     1     -11.994  11.327  26.402  0.00  0.00    +0.057 C 
ATOM      5  C   UNL     1     -12.329   9.994  27.104  0.00  0.00    +0.019 C 
ATOM      6  C   UNL     1     -10.644  10.692  26.006  0.00  0.00    +0.019 C 
ATOM      8  C   UNL     1     -10.808   9.769  27.231  0.00  0.00    +0.003 C 
ENDBRANCH   2   4
TORSDOF 2
ENDMDL
MODEL 10
REMARK VINA RESULT:      -5.4     24.462     26.578
REMARK  Name = 51137074
REMARK  2 active torsions:
REMARK  status: ('A' for Active; 'I' for Inactive)
REMARK    1  A    between atoms: N_2  and  C_4
REMARK    2  A    between atoms: C_9  and  C_12
REMARK                            x       y       z     vdW  Elec       q    Type
REMARK                         _______ _______ _______ _____ _____    ______ ____
ROOT
ATOM      2  N   UNL     1      -9.823  10.722  16.873  0.00  0.00    -0.299 NA
ATOM      7  C   UNL     1     -10.356  10.330  18.179  0.00  0.00    +0.095 C 
ATOM      9  C   UNL     1     -10.391   8.799  18.087  0.00  0.00    +0.060 C 
ATOM     10  C   UNL     1     -10.524   9.871  15.911  0.00  0.00    +0.085 C 
ATOM     11  C   UNL     1     -10.486   8.502  16.579  0.00  0.00    +0.027 C 
ENDROOT
BRANCH   9  12
ATOM      1  S   UNL     1     -13.115   8.612  18.613  0.00  0.00    -0.072 S 
ATOM      3  N   UNL     1     -11.285   7.323  19.895  0.00  0.00    -0.244 NA
ATOM     12  C   UNL     1     -11.488   8.182  18.924  0.00  0.00    +0.084 A 
ATOM     13  C   UNL     1     -13.624   7.565  19.883  0.00  0.00    +0.039 A 
ATOM     14  C   UNL     1     -12.501   6.959  20.455  0.00  0.00    +0.078 A 
ATOM     15  C   UNL     1     -14.924   7.296  20.341  0.00  0.00    +0.017 A 
ATOM     16  C   UNL     1     -12.689   6.055  21.524  0.00  0.00    +0.029 A 
ATOM     17  C   UNL     1     -15.082   6.398  21.398  0.00  0.00    +0.001 A 
ATOM     18  C   UNL     1     -13.981   5.784  21.984  0.00  0.00    +0.002 A 
ENDBRANCH   9  12
BRANCH   2   4
ATOM      4  C   UNL     1     -10.092  12.140  16.604  0.00  0.00    +0.057 C 
ATOM      5  C   UNL     1     -10.594  12.824  17.893  0.00  0.00    +0.019 C 
ATOM      6  C   UNL     1      -8.791  12.955  16.769  0.00  0.00    +0.019 C 
ATOM      8  C   UNL     1      -9.626  13.980  17.564  0.00  0.00    +0.003 C 
ENDBRANCH   2   4
TORSDOF 2
ENDMDL
