MODEL 1
REMARK VINA RESULT:      -6.5      0.000      0.000
REMARK  Name = 45783368
REMARK  7 active torsions:
REMARK  status: ('A' for Active; 'I' for Inactive)
REMARK    1  A    between atoms: O_2  and  C_17
REMARK    2  A    between atoms: O_2  and  C_19
REMARK    3  A    between atoms: O_3  and  C_20
REMARK    4  A    between atoms: O_3  and  C_21
REMARK    5  A    between atoms: C_8  and  C_12
REMARK    6  A    between atoms: C_13  and  C_14
REMARK    7  A    between atoms: C_19  and  C_20
REMARK                            x       y       z     vdW  Elec       q    Type
REMARK                         _______ _______ _______ _____ _____    ______ ____
ROOT
ATOM      1  O   UNL     1      18.079   5.867  19.394  0.00  0.00    -0.336 OA
ATOM      5  N   UNL     1      16.819   7.444  20.364  0.00  0.00    -0.190 NA
ATOM      6  N   UNL     1      16.810   5.764  18.811  0.00  0.00    -0.056 NA
ATOM     12  C   UNL     1      17.998   6.878  20.297  0.00  0.00    +0.245 A 
ATOM     13  C   UNL     1      16.124   6.726  19.434  0.00  0.00    +0.202 A 
ENDROOT
BRANCH  12   8
ATOM      4  N   UNL     1      19.073   7.002  22.519  0.00  0.00    -0.305 NA
ATOM      8  C   UNL     1      19.257   7.192  21.071  0.00  0.00    +0.143 C 
ATOM      9  C   UNL     1      20.457   6.310  20.693  0.00  0.00    +0.029 C 
ATOM     10  C   UNL     1      20.921   5.695  22.004  0.00  0.00    +0.017 C 
ATOM     11  C   UNL     1      20.382   6.644  23.055  0.00  0.00    +0.081 C 
ATOM     22  H   UNL     1      18.445   6.210  22.670  0.00  0.00    +0.123 HD
ENDBRANCH  12   8
BRANCH  13  14
ATOM      7  N   UNL     1      12.053   7.523  18.608  0.00  0.00    -0.221 NA
ATOM     14  C   UNL     1      14.743   6.997  19.153  0.00  0.00    +0.029 A 
ATOM     15  C   UNL     1      13.771   6.730  20.111  0.00  0.00    +0.079 A 
ATOM     16  C   UNL     1      14.371   7.526  17.923  0.00  0.00    +0.031 A 
ATOM     17  C   UNL     1      12.452   7.009  19.792  0.00  0.00    +0.215 A 
ATOM     18  C   UNL     1      13.025   7.769  17.701  0.00  0.00    +0.115 A 
BRANCH  17   2
ATOM      2  O   UNL     1      11.476   6.755  20.720  0.00  0.00    -0.474 OA
BRANCH   2  19
ATOM     19  C   UNL     1      10.610   7.835  21.049  0.00  0.00    +0.258 C 
BRANCH  19  20
ATOM     20  C   UNL     1      10.964   8.351  22.430  0.00  0.00    +0.200 C 
BRANCH  20   3
ATOM      3  O   UNL     1      12.127   9.164  22.338  0.00  0.00    -0.380 OA
ATOM     21  C   UNL     1      11.867  10.367  21.628  0.00  0.00    +0.194 C 
ENDBRANCH  20   3
ENDBRANCH  19  20
ENDBRANCH   2  19
ENDBRANCH  17   2
ENDBRANCH  13  14
TORSDOF 6
ENDMDL
MODEL 2
REMARK VINA RESULT:      -6.0      2.284      3.190
REMARK  Name = 45783368
REMARK  7 active torsions:
REMARK  status: ('A' for Active; 'I' for Inactive)
REMARK    1  A    between atoms: O_2  and  C_17
REMARK    2  A    between atoms: O_2  and  C_19
REMARK    3  A    between atoms: O_3  and  C_20
REMARK    4  A    between atoms: O_3  and  C_21
REMARK    5  A    between atoms: C_8  and  C_12
REMARK    6  A    between atoms: C_13  and  C_14
REMARK    7  A    between atoms: C_19  and  C_20
REMARK                            x       y       z     vdW  Elec       q    Type
REMARK                         _______ _______ _______ _____ _____    ______ ____
ROOT
ATOM      1  O   UNL     1      15.793   7.088  19.446  0.00  0.00    -0.336 OA
ATOM      5  N   UNL     1      15.239   7.882  21.466  0.00  0.00    -0.190 NA
ATOM      6  N   UNL     1      14.400   6.985  19.536  0.00  0.00    -0.056 NA
ATOM     12  C   UNL     1      16.208   7.625  20.622  0.00  0.00    +0.245 A 
ATOM     13  C   UNL     1      14.149   7.472  20.754  0.00  0.00    +0.202 A 
ENDROOT
BRANCH  12   8
ATOM      4  N   UNL     1      18.029   8.447  22.076  0.00  0.00    -0.305 NA
ATOM      8  C   UNL     1      17.695   7.842  20.777  0.00  0.00    +0.143 C 
ATOM      9  C   UNL     1      18.523   6.549  20.705  0.00  0.00    +0.029 C 
ATOM     10  C   UNL     1      19.337   6.532  21.990  0.00  0.00    +0.017 C 
ATOM     11  C   UNL     1      19.373   7.987  22.410  0.00  0.00    +0.081 C 
ATOM     22  H   UNL     1      17.388   8.085  22.784  0.00  0.00    +0.123 HD
ENDBRANCH  12   8
BRANCH  13  14
ATOM      7  N   UNL     1      10.237   7.742  22.341  0.00  0.00    -0.221 NA
ATOM     14  C   UNL     1      12.822   7.563  21.292  0.00  0.00    +0.029 A 
ATOM     15  C   UNL     1      12.362   8.767  21.815  0.00  0.00    +0.079 A 
ATOM     16  C   UNL     1      11.991   6.449  21.293  0.00  0.00    +0.031 A 
ATOM     17  C   UNL     1      11.073   8.803  22.323  0.00  0.00    +0.215 A 
ATOM     18  C   UNL     1      10.719   6.588  21.825  0.00  0.00    +0.115 A 
BRANCH  17   2
ATOM      2  O   UNL     1      10.597   9.978  22.843  0.00  0.00    -0.474 OA
BRANCH   2  19
ATOM     19  C   UNL     1      11.567  10.920  23.288  0.00  0.00    +0.258 C 
BRANCH  19  20
ATOM     20  C   UNL     1      11.276  11.285  24.731  0.00  0.00    +0.200 C 
BRANCH  20   3
ATOM      3  O   UNL     1      10.227  12.245  24.764  0.00  0.00    -0.380 OA
ATOM     21  C   UNL     1      10.520  13.365  23.941  0.00  0.00    +0.194 C 
ENDBRANCH  20   3
ENDBRANCH  19  20
ENDBRANCH   2  19
ENDBRANCH  17   2
ENDBRANCH  13  14
TORSDOF 6
ENDMDL
MODEL 3
REMARK VINA RESULT:      -5.8      4.122      6.442
REMARK  Name = 45783368
REMARK  7 active torsions:
REMARK  status: ('A' for Active; 'I' for Inactive)
REMARK    1  A    between atoms: O_2  and  C_17
REMARK    2  A    between atoms: O_2  and  C_19
REMARK    3  A    between atoms: O_3  and  C_20
REMARK    4  A    between atoms: O_3  and  C_21
REMARK    5  A    between atoms: C_8  and  C_12
REMARK    6  A    between atoms: C_13  and  C_14
REMARK    7  A    between atoms: C_19  and  C_20
REMARK                            x       y       z     vdW  Elec       q    Type
REMARK                         _______ _______ _______ _____ _____    ______ ____
ROOT
ATOM      1  O   UNL     1      13.023   9.785  14.974  0.00  0.00    -0.336 OA
ATOM      5  N   UNL     1      14.333   9.920  16.785  0.00  0.00    -0.190 NA
ATOM      6  N   UNL     1      12.477   8.905  15.916  0.00  0.00    -0.056 NA
ATOM     12  C   UNL     1      14.112  10.341  15.565  0.00  0.00    +0.245 A 
ATOM     13  C   UNL     1      13.304   9.041  16.956  0.00  0.00    +0.202 A 
ENDROOT
BRANCH  12   8
ATOM      4  N   UNL     1      15.535  10.714  13.579  0.00  0.00    -0.305 NA
ATOM      8  C   UNL     1      14.888  11.342  14.741  0.00  0.00    +0.143 C 
ATOM      9  C   UNL     1      14.025  12.475  14.164  0.00  0.00    +0.029 C 
ATOM     10  C   UNL     1      14.288  12.444  12.666  0.00  0.00    +0.017 C 
ATOM     11  C   UNL     1      15.627  11.746  12.552  0.00  0.00    +0.081 C 
ATOM     22  H   UNL     1      14.929   9.971  13.225  0.00  0.00    +0.123 HD
ENDBRANCH  12   8
BRANCH  13  14
ATOM      7  N   UNL     1      12.796   6.894  20.565  0.00  0.00    -0.221 NA
ATOM     14  C   UNL     1      13.132   8.313  18.180  0.00  0.00    +0.029 A 
ATOM     15  C   UNL     1      11.923   8.373  18.864  0.00  0.00    +0.079 A 
ATOM     16  C   UNL     1      14.173   7.544  18.687  0.00  0.00    +0.031 A 
ATOM     17  C   UNL     1      11.806   7.652  20.041  0.00  0.00    +0.215 A 
ATOM     18  C   UNL     1      13.957   6.860  19.873  0.00  0.00    +0.115 A 
BRANCH  17   2
ATOM      2  O   UNL     1      10.625   7.695  20.733  0.00  0.00    -0.474 OA
BRANCH   2  19
ATOM     19  C   UNL     1      10.698   8.082  22.101  0.00  0.00    +0.258 C 
BRANCH  19  20
ATOM     20  C   UNL     1      11.017   9.562  22.180  0.00  0.00    +0.200 C 
BRANCH  20   3
ATOM      3  O   UNL     1      10.912   9.988  23.533  0.00  0.00    -0.380 OA
ATOM     21  C   UNL     1      10.891  11.405  23.633  0.00  0.00    +0.194 C 
ENDBRANCH  20   3
ENDBRANCH  19  20
ENDBRANCH   2  19
ENDBRANCH  17   2
ENDBRANCH  13  14
TORSDOF 6
ENDMDL
MODEL 4
REMARK VINA RESULT:      -5.8      4.676      7.877
REMARK  Name = 45783368
REMARK  7 active torsions:
REMARK  status: ('A' for Active; 'I' for Inactive)
REMARK    1  A    between atoms: O_2  and  C_17
REMARK    2  A    between atoms: O_2  and  C_19
REMARK    3  A    between atoms: O_3  and  C_20
REMARK    4  A    between atoms: O_3  and  C_21
REMARK    5  A    between atoms: C_8  and  C_12
REMARK    6  A    between atoms: C_13  and  C_14
REMARK    7  A    between atoms: C_19  and  C_20
REMARK                            x       y       z     vdW  Elec       q    Type
REMARK                         _______ _______ _______ _____ _____    ______ ____
ROOT
ATOM      1  O   UNL     1      12.672  11.880  23.702  0.00  0.00    -0.336 OA
ATOM      5  N   UNL     1      10.890  10.554  23.411  0.00  0.00    -0.190 NA
ATOM      6  N   UNL     1      13.083  10.861  22.834  0.00  0.00    -0.056 NA
ATOM     12  C   UNL     1      11.370  11.624  23.994  0.00  0.00    +0.245 A 
ATOM     13  C   UNL     1      11.978  10.120  22.710  0.00  0.00    +0.202 A 
ENDROOT
BRANCH  12   8
ATOM      4  N   UNL     1      11.631  13.203  25.877  0.00  0.00    -0.305 NA
ATOM      8  C   UNL     1      10.686  12.595  24.927  0.00  0.00    +0.143 C 
ATOM      9  C   UNL     1      10.012  13.777  24.211  0.00  0.00    +0.029 C 
ATOM     10  C   UNL     1      10.603  15.019  24.860  0.00  0.00    +0.017 C 
ATOM     11  C   UNL     1      11.095  14.521  26.203  0.00  0.00    +0.081 C 
ATOM     22  H   UNL     1      12.529  13.337  25.409  0.00  0.00    +0.123 HD
ENDBRANCH  12   8
BRANCH  13  14
ATOM      7  N   UNL     1      11.827   6.640  20.310  0.00  0.00    -0.221 NA
ATOM     14  C   UNL     1      11.927   8.940  21.897  0.00  0.00    +0.029 A 
ATOM     15  C   UNL     1      12.726   8.838  20.763  0.00  0.00    +0.079 A 
ATOM     16  C   UNL     1      11.077   7.894  22.237  0.00  0.00    +0.031 A 
ATOM     17  C   UNL     1      12.640   7.678  20.010  0.00  0.00    +0.215 A 
ATOM     18  C   UNL     1      11.064   6.776  21.418  0.00  0.00    +0.115 A 
BRANCH  17   2
ATOM      2  O   UNL     1      13.418   7.554  18.890  0.00  0.00    -0.474 OA
BRANCH   2  19
ATOM     19  C   UNL     1      12.844   7.988  17.661  0.00  0.00    +0.258 C 
BRANCH  19  20
ATOM     20  C   UNL     1      13.938   8.104  16.618  0.00  0.00    +0.200 C 
BRANCH  20   3
ATOM      3  O   UNL     1      13.407   8.729  15.456  0.00  0.00    -0.380 OA
ATOM     21  C   UNL     1      12.185   9.396  15.736  0.00  0.00    +0.194 C 
ENDBRANCH  20   3
ENDBRANCH  19  20
ENDBRANCH   2  19
ENDBRANCH  17   2
ENDBRANCH  13  14
TORSDOF 6
ENDMDL
MODEL 5
REMARK VINA RESULT:      -5.7     16.899     19.734
REMARK  Name = 45783368
REMARK  7 active torsions:
REMARK  status: ('A' for Active; 'I' for Inactive)
REMARK    1  A    between atoms: O_2  and  C_17
REMARK    2  A    between atoms: O_2  and  C_19
REMARK    3  A    between atoms: O_3  and  C_20
REMARK    4  A    between atoms: O_3  and  C_21
REMARK    5  A    between atoms: C_8  and  C_12
REMARK    6  A    between atoms: C_13  and  C_14
REMARK    7  A    between atoms: C_19  and  C_20
REMARK                            x       y       z     vdW  Elec       q    Type
REMARK                         _______ _______ _______ _____ _____    ______ ____
ROOT
ATOM      1  O   UNL     1      11.161   6.284   5.116  0.00  0.00    -0.336 OA
ATOM      5  N   UNL     1      10.477   4.434   4.054  0.00  0.00    -0.190 NA
ATOM      6  N   UNL     1      11.833   6.269   3.888  0.00  0.00    -0.056 NA
ATOM     12  C   UNL     1      10.384   5.169   5.133  0.00  0.00    +0.245 A 
ATOM     13  C   UNL     1      11.377   5.149   3.319  0.00  0.00    +0.202 A 
ENDROOT
BRANCH  12   8
ATOM      4  N   UNL     1      10.105   3.898   7.234  0.00  0.00    -0.305 NA
ATOM      8  C   UNL     1       9.546   4.951   6.372  0.00  0.00    +0.143 C 
ATOM      9  C   UNL     1       9.429   6.193   7.270  0.00  0.00    +0.029 C 
ATOM     10  C   UNL     1       9.897   5.731   8.641  0.00  0.00    +0.017 C 
ATOM     11  C   UNL     1       9.706   4.230   8.598  0.00  0.00    +0.081 C 
ATOM     22  H   UNL     1      11.124   3.938   7.187  0.00  0.00    +0.123 HD
ENDBRANCH  12   8
BRANCH  13  14
ATOM      7  N   UNL     1      12.625   3.869  -0.515  0.00  0.00    -0.221 NA
ATOM     14  C   UNL     1      11.801   4.715   2.019  0.00  0.00    +0.029 A 
ATOM     15  C   UNL     1      10.859   4.443   1.032  0.00  0.00    +0.079 A 
ATOM     16  C   UNL     1      13.154   4.565   1.740  0.00  0.00    +0.031 A 
ATOM     17  C   UNL     1      11.319   4.027  -0.207  0.00  0.00    +0.215 A 
ATOM     18  C   UNL     1      13.512   4.143   0.469  0.00  0.00    +0.115 A 
BRANCH  17   2
ATOM      2  O   UNL     1      10.410   3.753  -1.194  0.00  0.00    -0.474 OA
BRANCH   2  19
ATOM     19  C   UNL     1      10.785   4.100  -2.523  0.00  0.00    +0.258 C 
BRANCH  19  20
ATOM     20  C   UNL     1      10.902   2.835  -3.351  0.00  0.00    +0.200 C 
BRANCH  20   3
ATOM      3  O   UNL     1      10.214   1.781  -2.688  0.00  0.00    -0.380 OA
ATOM     21  C   UNL     1       9.153   1.271  -3.483  0.00  0.00    +0.194 C 
ENDBRANCH  20   3
ENDBRANCH  19  20
ENDBRANCH   2  19
ENDBRANCH  17   2
ENDBRANCH  13  14
TORSDOF 6
ENDMDL
MODEL 6
REMARK VINA RESULT:      -5.7      4.922      7.975
REMARK  Name = 45783368
REMARK  7 active torsions:
REMARK  status: ('A' for Active; 'I' for Inactive)
REMARK    1  A    between atoms: O_2  and  C_17
REMARK    2  A    between atoms: O_2  and  C_19
REMARK    3  A    between atoms: O_3  and  C_20
REMARK    4  A    between atoms: O_3  and  C_21
REMARK    5  A    between atoms: C_8  and  C_12
REMARK    6  A    between atoms: C_13  and  C_14
REMARK    7  A    between atoms: C_19  and  C_20
REMARK                            x       y       z     vdW  Elec       q    Type
REMARK                         _______ _______ _______ _____ _____    ______ ____
ROOT
ATOM      1  O   UNL     1      10.647  10.872  23.549  0.00  0.00    -0.336 OA
ATOM      5  N   UNL     1      11.553  11.102  21.514  0.00  0.00    -0.190 NA
ATOM      6  N   UNL     1      10.786   9.576  23.036  0.00  0.00    -0.056 NA
ATOM     12  C   UNL     1      11.121  11.709  22.591  0.00  0.00    +0.245 A 
ATOM     13  C   UNL     1      11.327   9.795  21.834  0.00  0.00    +0.202 A 
ENDROOT
BRANCH  12   8
ATOM      4  N   UNL     1       9.747  13.762  22.669  0.00  0.00    -0.305 NA
ATOM      8  C   UNL     1      11.080  13.186  22.906  0.00  0.00    +0.143 C 
ATOM      9  C   UNL     1      11.414  13.520  24.369  0.00  0.00    +0.029 C 
ATOM     10  C   UNL     1      10.228  14.333  24.866  0.00  0.00    +0.017 C 
ATOM     11  C   UNL     1       9.612  14.881  23.596  0.00  0.00    +0.081 C 
ATOM     22  H   UNL     1       9.039  13.066  22.912  0.00  0.00    +0.123 HD
ENDBRANCH  12   8
BRANCH  13  14
ATOM      7  N   UNL     1      12.288   6.659  19.163  0.00  0.00    -0.221 NA
ATOM     14  C   UNL     1      11.653   8.731  20.929  0.00  0.00    +0.029 A 
ATOM     15  C   UNL     1      11.670   8.962  19.557  0.00  0.00    +0.079 A 
ATOM     16  C   UNL     1      11.952   7.465  21.418  0.00  0.00    +0.031 A 
ATOM     17  C   UNL     1      11.991   7.903  18.725  0.00  0.00    +0.215 A 
ATOM     18  C   UNL     1      12.260   6.472  20.502  0.00  0.00    +0.115 A 
BRANCH  17   2
ATOM      2  O   UNL     1      12.015   8.107  17.370  0.00  0.00    -0.474 OA
BRANCH   2  19
ATOM     19  C   UNL     1      12.755   9.231  16.905  0.00  0.00    +0.258 C 
BRANCH  19  20
ATOM     20  C   UNL     1      13.952   8.742  16.112  0.00  0.00    +0.200 C 
BRANCH  20   3
ATOM      3  O   UNL     1      14.148   9.597  14.993  0.00  0.00    -0.380 OA
ATOM     21  C   UNL     1      14.042  10.966  15.359  0.00  0.00    +0.194 C 
ENDBRANCH  20   3
ENDBRANCH  19  20
ENDBRANCH   2  19
ENDBRANCH  17   2
ENDBRANCH  13  14
TORSDOF 6
ENDMDL
MODEL 7
REMARK VINA RESULT:      -5.7      4.910      7.178
REMARK  Name = 45783368
REMARK  7 active torsions:
REMARK  status: ('A' for Active; 'I' for Inactive)
REMARK    1  A    between atoms: O_2  and  C_17
REMARK    2  A    between atoms: O_2  and  C_19
REMARK    3  A    between atoms: O_3  and  C_20
REMARK    4  A    between atoms: O_3  and  C_21
REMARK    5  A    between atoms: C_8  and  C_12
REMARK    6  A    between atoms: C_13  and  C_14
REMARK    7  A    between atoms: C_19  and  C_20
REMARK                            x       y       z     vdW  Elec       q    Type
REMARK                         _______ _______ _______ _____ _____    ______ ____
ROOT
ATOM      1  O   UNL     1      15.738  11.693  15.916  0.00  0.00    -0.336 OA
ATOM      5  N   UNL     1      14.371  10.520  14.585  0.00  0.00    -0.190 NA
ATOM      6  N   UNL     1      14.787  11.104  16.758  0.00  0.00    -0.056 NA
ATOM     12  C   UNL     1      15.421  11.299  14.655  0.00  0.00    +0.245 A 
ATOM     13  C   UNL     1      14.017  10.429  15.900  0.00  0.00    +0.202 A 
ENDROOT
BRANCH  12   8
ATOM      4  N   UNL     1      15.887  11.312  12.228  0.00  0.00    -0.305 NA
ATOM      8  C   UNL     1      16.312  11.809  13.546  0.00  0.00    +0.143 C 
ATOM      9  C   UNL     1      16.330  13.341  13.417  0.00  0.00    +0.029 C 
ATOM     10  C   UNL     1      15.949  13.617  11.970  0.00  0.00    +0.017 C 
ATOM     11  C   UNL     1      16.289  12.324  11.258  0.00  0.00    +0.081 C 
ATOM     22  H   UNL     1      14.867  11.248  12.212  0.00  0.00    +0.123 HD
ENDBRANCH  12   8
BRANCH  13  14
ATOM      7  N   UNL     1      10.681   8.146  17.146  0.00  0.00    -0.221 NA
ATOM     14  C   UNL     1      12.886   9.655  16.322  0.00  0.00    +0.029 A 
ATOM     15  C   UNL     1      12.888   9.035  17.568  0.00  0.00    +0.079 A 
ATOM     16  C   UNL     1      11.782   9.520  15.488  0.00  0.00    +0.031 A 
ATOM     17  C   UNL     1      11.772   8.299  17.929  0.00  0.00    +0.215 A 
ATOM     18  C   UNL     1      10.714   8.761  15.942  0.00  0.00    +0.115 A 
BRANCH  17   2
ATOM      2  O   UNL     1      11.751   7.681  19.151  0.00  0.00    -0.474 OA
BRANCH   2  19
ATOM     19  C   UNL     1      12.763   6.709  19.394  0.00  0.00    +0.258 C 
BRANCH  19  20
ATOM     20  C   UNL     1      13.515   7.082  20.656  0.00  0.00    +0.200 C 
BRANCH  20   3
ATOM      3  O   UNL     1      14.779   6.431  20.653  0.00  0.00    -0.380 OA
ATOM     21  C   UNL     1      15.493   6.685  19.451  0.00  0.00    +0.194 C 
ENDBRANCH  20   3
ENDBRANCH  19  20
ENDBRANCH   2  19
ENDBRANCH  17   2
ENDBRANCH  13  14
TORSDOF 6
ENDMDL
MODEL 8
REMARK VINA RESULT:      -5.6      3.543      8.298
REMARK  Name = 45783368
REMARK  7 active torsions:
REMARK  status: ('A' for Active; 'I' for Inactive)
REMARK    1  A    between atoms: O_2  and  C_17
REMARK    2  A    between atoms: O_2  and  C_19
REMARK    3  A    between atoms: O_3  and  C_20
REMARK    4  A    between atoms: O_3  and  C_21
REMARK    5  A    between atoms: C_8  and  C_12
REMARK    6  A    between atoms: C_13  and  C_14
REMARK    7  A    between atoms: C_19  and  C_20
REMARK                            x       y       z     vdW  Elec       q    Type
REMARK                         _______ _______ _______ _____ _____    ______ ____
ROOT
ATOM      1  O   UNL     1      10.717  11.655  23.903  0.00  0.00    -0.336 OA
ATOM      5  N   UNL     1      11.153  11.404  21.720  0.00  0.00    -0.190 NA
ATOM      6  N   UNL     1      10.837  10.277  23.686  0.00  0.00    -0.056 NA
ATOM     12  C   UNL     1      10.917  12.245  22.695  0.00  0.00    +0.245 A 
ATOM     13  C   UNL     1      11.093  10.208  22.377  0.00  0.00    +0.202 A 
ENDROOT
BRANCH  12   8
ATOM      4  N   UNL     1      10.247  14.244  21.406  0.00  0.00    -0.305 NA
ATOM      8  C   UNL     1      10.839  13.754  22.661  0.00  0.00    +0.143 C 
ATOM      9  C   UNL     1       9.978  14.358  23.781  0.00  0.00    +0.029 C 
ATOM     10  C   UNL     1       8.951  15.221  23.065  0.00  0.00    +0.017 C 
ATOM     11  C   UNL     1       9.598  15.511  21.727  0.00  0.00    +0.081 C 
ATOM     22  H   UNL     1       9.524  13.589  21.104  0.00  0.00    +0.123 HD
ENDBRANCH  12   8
BRANCH  13  14
ATOM      7  N   UNL     1      11.688   6.538  20.360  0.00  0.00    -0.221 NA
ATOM     14  C   UNL     1      11.295   8.964  21.694  0.00  0.00    +0.029 A 
ATOM     15  C   UNL     1      11.988   8.933  20.488  0.00  0.00    +0.079 A 
ATOM     16  C   UNL     1      10.798   7.783  22.232  0.00  0.00    +0.031 A 
ATOM     17  C   UNL     1      12.156   7.707  19.867  0.00  0.00    +0.215 A 
ATOM     18  C   UNL     1      11.018   6.607  21.533  0.00  0.00    +0.115 A 
BRANCH  17   2
ATOM      2  O   UNL     1      12.836   7.651  18.679  0.00  0.00    -0.474 OA
BRANCH   2  19
ATOM     19  C   UNL     1      14.183   8.110  18.691  0.00  0.00    +0.258 C 
BRANCH  19  20
ATOM     20  C   UNL     1      15.071   7.023  19.265  0.00  0.00    +0.200 C 
BRANCH  20   3
ATOM      3  O   UNL     1      16.333   7.584  19.603  0.00  0.00    -0.380 OA
ATOM     21  C   UNL     1      17.239   6.591  20.061  0.00  0.00    +0.194 C 
ENDBRANCH  20   3
ENDBRANCH  19  20
ENDBRANCH   2  19
ENDBRANCH  17   2
ENDBRANCH  13  14
TORSDOF 6
ENDMDL
MODEL 9
REMARK VINA RESULT:      -5.5      2.278      7.502
REMARK  Name = 45783368
REMARK  7 active torsions:
REMARK  status: ('A' for Active; 'I' for Inactive)
REMARK    1  A    between atoms: O_2  and  C_17
REMARK    2  A    between atoms: O_2  and  C_19
REMARK    3  A    between atoms: O_3  and  C_20
REMARK    4  A    between atoms: O_3  and  C_21
REMARK    5  A    between atoms: C_8  and  C_12
REMARK    6  A    between atoms: C_13  and  C_14
REMARK    7  A    between atoms: C_19  and  C_20
REMARK                            x       y       z     vdW  Elec       q    Type
REMARK                         _______ _______ _______ _____ _____    ______ ____
ROOT
ATOM      1  O   UNL     1      14.515   8.461  19.971  0.00  0.00    -0.336 OA
ATOM      5  N   UNL     1      15.217   6.378  20.399  0.00  0.00    -0.190 NA
ATOM      6  N   UNL     1      15.912   8.528  20.036  0.00  0.00    -0.056 NA
ATOM     12  C   UNL     1      14.188   7.162  20.195  0.00  0.00    +0.245 A 
ATOM     13  C   UNL     1      16.253   7.261  20.292  0.00  0.00    +0.202 A 
ENDROOT
BRANCH  12   8
ATOM      4  N   UNL     1      12.294   6.137  21.407  0.00  0.00    -0.305 NA
ATOM      8  C   UNL     1      12.716   6.824  20.176  0.00  0.00    +0.143 C 
ATOM      9  C   UNL     1      11.797   8.050  20.058  0.00  0.00    +0.029 C 
ATOM     10  C   UNL     1      10.850   7.947  21.244  0.00  0.00    +0.017 C 
ATOM     11  C   UNL     1      10.888   6.476  21.605  0.00  0.00    +0.081 C 
ATOM     22  H   UNL     1      12.823   6.517  22.195  0.00  0.00    +0.123 HD
ENDBRANCH  12   8
BRANCH  13  14
ATOM      7  N   UNL     1      20.274   6.033  20.750  0.00  0.00    -0.221 NA
ATOM     14  C   UNL     1      17.616   6.844  20.447  0.00  0.00    +0.029 A 
ATOM     15  C   UNL     1      18.475   7.559  21.275  0.00  0.00    +0.079 A 
ATOM     16  C   UNL     1      18.085   5.725  19.769  0.00  0.00    +0.031 A 
ATOM     17  C   UNL     1      19.782   7.116  21.392  0.00  0.00    +0.215 A 
ATOM     18  C   UNL     1      19.411   5.364  19.953  0.00  0.00    +0.115 A 
BRANCH  17   2
ATOM      2  O   UNL     1      20.647   7.803  22.203  0.00  0.00    -0.474 OA
BRANCH   2  19
ATOM     19  C   UNL     1      20.166   8.159  23.495  0.00  0.00    +0.258 C 
BRANCH  19  20
ATOM     20  C   UNL     1      21.075   7.552  24.546  0.00  0.00    +0.200 C 
BRANCH  20   3
ATOM      3  O   UNL     1      21.096   6.140  24.382  0.00  0.00    -0.380 OA
ATOM     21  C   UNL     1      22.424   5.650  24.252  0.00  0.00    +0.194 C 
ENDBRANCH  20   3
ENDBRANCH  19  20
ENDBRANCH   2  19
ENDBRANCH  17   2
ENDBRANCH  13  14
TORSDOF 6
ENDMDL
MODEL 10
REMARK VINA RESULT:      -5.5     26.227     29.041
REMARK  Name = 45783368
REMARK  7 active torsions:
REMARK  status: ('A' for Active; 'I' for Inactive)
REMARK    1  A    between atoms: O_2  and  C_17
REMARK    2  A    between atoms: O_2  and  C_19
REMARK    3  A    between atoms: O_3  and  C_20
REMARK    4  A    between atoms: O_3  and  C_21
REMARK    5  A    between atoms: C_8  and  C_12
REMARK    6  A    between atoms: C_13  and  C_14
REMARK    7  A    between atoms: C_19  and  C_20
REMARK                            x       y       z     vdW  Elec       q    Type
REMARK                         _______ _______ _______ _____ _____    ______ ____
ROOT
ATOM      1  O   UNL     1     -13.326   4.853  22.107  0.00  0.00    -0.336 OA
ATOM      5  N   UNL     1     -14.351   6.824  21.826  0.00  0.00    -0.190 NA
ATOM      6  N   UNL     1     -12.357   5.726  21.600  0.00  0.00    -0.056 NA
ATOM     12  C   UNL     1     -14.470   5.577  22.210  0.00  0.00    +0.245 A 
ATOM     13  C   UNL     1     -13.037   6.868  21.460  0.00  0.00    +0.202 A 
ENDROOT
BRANCH  12   8
ATOM      4  N   UNL     1     -15.398   3.433  23.014  0.00  0.00    -0.305 NA
ATOM      8  C   UNL     1     -15.683   4.850  22.742  0.00  0.00    +0.143 C 
ATOM      9  C   UNL     1     -16.219   5.419  24.065  0.00  0.00    +0.029 C 
ATOM     10  C   UNL     1     -16.250   4.234  25.018  0.00  0.00    +0.017 C 
ATOM     11  C   UNL     1     -16.293   3.034  24.095  0.00  0.00    +0.081 C 
ATOM     22  H   UNL     1     -14.438   3.348  23.353  0.00  0.00    +0.123 HD
ENDBRANCH  12   8
BRANCH  13  14
ATOM      7  N   UNL     1     -11.263  10.410  19.979  0.00  0.00    -0.221 NA
ATOM     14  C   UNL     1     -12.436   8.069  20.958  0.00  0.00    +0.029 A 
ATOM     15  C   UNL     1     -11.392   7.998  20.042  0.00  0.00    +0.079 A 
ATOM     16  C   UNL     1     -12.893   9.310  21.385  0.00  0.00    +0.031 A 
ATOM     17  C   UNL     1     -10.845   9.186  19.587  0.00  0.00    +0.215 A 
ATOM     18  C   UNL     1     -12.279  10.441  20.871  0.00  0.00    +0.115 A 
BRANCH  17   2
ATOM      2  O   UNL     1      -9.816   9.141  18.684  0.00  0.00    -0.474 OA
BRANCH   2  19
ATOM     19  C   UNL     1     -10.085   9.648  17.381  0.00  0.00    +0.258 C 
BRANCH  19  20
ATOM     20  C   UNL     1     -10.456   8.495  16.468  0.00  0.00    +0.200 C 
BRANCH  20   3
ATOM      3  O   UNL     1     -10.538   8.970  15.130  0.00  0.00    -0.380 OA
ATOM     21  C   UNL     1     -10.616   7.898  14.201  0.00  0.00    +0.194 C 
ENDBRANCH  20   3
ENDBRANCH  19  20
ENDBRANCH   2  19
ENDBRANCH  17   2
ENDBRANCH  13  14
TORSDOF 6
ENDMDL
