MODEL 1
REMARK VINA RESULT:      -6.5      0.000      0.000
REMARK  Name = 75537011
REMARK  2 active torsions:
REMARK  status: ('A' for Active; 'I' for Inactive)
REMARK    1  A    between atoms: N_3  and  C_7
REMARK    2  A    between atoms: C_9  and  C_18
REMARK                            x       y       z     vdW  Elec       q    Type
REMARK                         _______ _______ _______ _____ _____    ______ ____
ROOT
ATOM      1  O   UNL     1       9.460   7.261   1.554  0.00  0.00    -0.252 OA
ATOM      2  O   UNL     1       8.607   7.224   8.470  0.00  0.00    -0.275 OA
ATOM      3  N   UNL     1      10.915   5.542   2.256  0.00  0.00    -0.281 N 
ATOM      4  N   UNL     1       9.622   6.557   3.789  0.00  0.00    -0.278 N 
ATOM      5  N   UNL     1       9.852   6.798   6.550  0.00  0.00    -0.298 N 
ATOM      6  C   UNL     1      10.288   5.491   4.517  0.00  0.00    +0.112 C 
ATOM      8  C   UNL     1      11.317   4.959   3.524  0.00  0.00    +0.133 C 
ATOM     10  C   UNL     1      10.873   6.022   5.823  0.00  0.00    +0.132 C 
ATOM     13  C   UNL     1       8.666   7.410   4.472  0.00  0.00    +0.128 C 
ATOM     14  C   UNL     1       9.935   6.543   2.423  0.00  0.00    +0.305 C 
ATOM     15  C   UNL     1       9.261   7.908   5.788  0.00  0.00    +0.127 C 
ATOM     18  C   UNL     1       9.447   6.562   7.865  0.00  0.00    +0.219 C 
ENDROOT
BRANCH   3   7
ATOM      7  C   UNL     1      11.571   5.205   1.017  0.00  0.00    +0.078 C 
ATOM     16  C   UNL     1      10.654   4.352   0.137  0.00  0.00    +0.022 C 
ATOM     17  C   UNL     1      12.901   4.495   1.285  0.00  0.00    +0.022 C 
ATOM     19  C   UNL     1      11.343   3.936  -1.160  0.00  0.00    +0.002 C 
ATOM     20  C   UNL     1      13.588   4.080  -0.014  0.00  0.00    +0.002 C 
ATOM     21  C   UNL     1      12.670   3.232  -0.889  0.00  0.00    +0.000 C 
ENDBRANCH   3   7
BRANCH  18   9
ATOM      9  C   UNL     1      10.086   5.417   8.582  0.00  0.00    +0.075 C 
ATOM     11  C   UNL     1       9.438   4.076   8.499  0.00  0.00    +0.013 C 
ATOM     12  C   UNL     1       9.394   4.855   9.779  0.00  0.00    +0.013 C 
ENDBRANCH  18   9
TORSDOF 2
ENDMDL
MODEL 2
REMARK VINA RESULT:      -6.0     16.958     19.684
REMARK  Name = 75537011
REMARK  2 active torsions:
REMARK  status: ('A' for Active; 'I' for Inactive)
REMARK    1  A    between atoms: N_3  and  C_7
REMARK    2  A    between atoms: C_9  and  C_18
REMARK                            x       y       z     vdW  Elec       q    Type
REMARK                         _______ _______ _______ _____ _____    ______ ____
ROOT
ATOM      1  O   UNL     1      10.296   9.186  21.310  0.00  0.00    -0.252 OA
ATOM      2  O   UNL     1      16.108   5.879  19.350  0.00  0.00    -0.275 OA
ATOM      3  N   UNL     1      11.993  10.411  22.398  0.00  0.00    -0.281 N 
ATOM      4  N   UNL     1      12.584   8.741  21.015  0.00  0.00    -0.278 N 
ATOM      5  N   UNL     1      14.902   7.217  20.824  0.00  0.00    -0.298 N 
ATOM      6  C   UNL     1      13.841   9.352  21.411  0.00  0.00    +0.112 C 
ATOM      8  C   UNL     1      13.439  10.331  22.511  0.00  0.00    +0.133 C 
ATOM     10  C   UNL     1      14.842   8.282  21.840  0.00  0.00    +0.132 C 
ATOM     13  C   UNL     1      12.584   7.630  20.080  0.00  0.00    +0.128 C 
ATOM     14  C   UNL     1      11.475   9.418  21.542  0.00  0.00    +0.305 C 
ATOM     15  C   UNL     1      13.611   6.586  20.513  0.00  0.00    +0.127 C 
ATOM     18  C   UNL     1      16.064   6.780  20.184  0.00  0.00    +0.219 C 
ENDROOT
BRANCH   3   7
ATOM      7  C   UNL     1      11.214  11.324  23.197  0.00  0.00    +0.078 C 
ATOM     16  C   UNL     1      11.137  12.697  22.525  0.00  0.00    +0.022 C 
ATOM     17  C   UNL     1      11.787  11.430  24.613  0.00  0.00    +0.022 C 
ATOM     19  C   UNL     1      10.361  13.699  23.376  0.00  0.00    +0.002 C 
ATOM     20  C   UNL     1      11.009  12.433  25.462  0.00  0.00    +0.002 C 
ATOM     21  C   UNL     1      10.933  13.799  24.787  0.00  0.00    +0.000 C 
ENDBRANCH   3   7
BRANCH  18   9
ATOM      9  C   UNL     1      17.342   7.464  20.545  0.00  0.00    +0.075 C 
ATOM     11  C   UNL     1      18.629   6.786  20.215  0.00  0.00    +0.013 C 
ATOM     12  C   UNL     1      18.173   6.884  21.640  0.00  0.00    +0.013 C 
ENDBRANCH  18   9
TORSDOF 2
ENDMDL
MODEL 3
REMARK VINA RESULT:      -5.9     17.152     19.247
REMARK  Name = 75537011
REMARK  2 active torsions:
REMARK  status: ('A' for Active; 'I' for Inactive)
REMARK    1  A    between atoms: N_3  and  C_7
REMARK    2  A    between atoms: C_9  and  C_18
REMARK                            x       y       z     vdW  Elec       q    Type
REMARK                         _______ _______ _______ _____ _____    ______ ____
ROOT
ATOM      1  O   UNL     1      19.111   9.779  21.907  0.00  0.00    -0.252 OA
ATOM      2  O   UNL     1      12.155  10.178  22.018  0.00  0.00    -0.275 OA
ATOM      3  N   UNL     1      18.448   7.583  21.357  0.00  0.00    -0.281 N 
ATOM      4  N   UNL     1      16.865   9.158  21.613  0.00  0.00    -0.278 N 
ATOM      5  N   UNL     1      14.149   8.988  22.187  0.00  0.00    -0.298 N 
ATOM      6  C   UNL     1      16.142   7.979  21.167  0.00  0.00    +0.112 C 
ATOM      8  C   UNL     1      17.190   6.871  21.212  0.00  0.00    +0.133 C 
ATOM     10  C   UNL     1      14.918   7.739  22.048  0.00  0.00    +0.132 C 
ATOM     13  C   UNL     1      16.148  10.398  21.848  0.00  0.00    +0.128 C 
ATOM     14  C   UNL     1      18.250   8.947  21.654  0.00  0.00    +0.305 C 
ATOM     15  C   UNL     1      14.914  10.130  22.708  0.00  0.00    +0.127 C 
ATOM     18  C   UNL     1      12.794   9.137  21.883  0.00  0.00    +0.219 C 
ENDROOT
BRANCH   3   7
ATOM      7  C   UNL     1      19.719   6.902  21.332  0.00  0.00    +0.078 C 
ATOM     16  C   UNL     1      19.642   5.651  20.454  0.00  0.00    +0.022 C 
ATOM     17  C   UNL     1      20.176   6.557  22.752  0.00  0.00    +0.022 C 
ATOM     19  C   UNL     1      20.960   4.882  20.451  0.00  0.00    +0.002 C 
ATOM     20  C   UNL     1      21.494   5.786  22.747  0.00  0.00    +0.002 C 
ATOM     21  C   UNL     1      21.415   4.542  21.869  0.00  0.00    +0.000 C 
ENDBRANCH   3   7
BRANCH  18   9
ATOM      9  C   UNL     1      12.076   7.937  21.356  0.00  0.00    +0.075 C 
ATOM     11  C   UNL     1      11.955   7.774  19.878  0.00  0.00    +0.013 C 
ATOM     12  C   UNL     1      10.752   8.135  20.697  0.00  0.00    +0.013 C 
ENDBRANCH  18   9
TORSDOF 2
ENDMDL
MODEL 4
REMARK VINA RESULT:      -5.9     35.614     37.461
REMARK  Name = 75537011
REMARK  2 active torsions:
REMARK  status: ('A' for Active; 'I' for Inactive)
REMARK    1  A    between atoms: N_3  and  C_7
REMARK    2  A    between atoms: C_9  and  C_18
REMARK                            x       y       z     vdW  Elec       q    Type
REMARK                         _______ _______ _______ _____ _____    ______ ____
ROOT
ATOM      1  O   UNL     1     -15.364  -0.275  29.909  0.00  0.00    -0.252 OA
ATOM      2  O   UNL     1     -14.102   4.442  34.880  0.00  0.00    -0.275 OA
ATOM      3  N   UNL     1     -15.993   1.753  28.883  0.00  0.00    -0.281 N 
ATOM      4  N   UNL     1     -15.092   1.817  30.941  0.00  0.00    -0.278 N 
ATOM      5  N   UNL     1     -15.212   3.720  32.965  0.00  0.00    -0.298 N 
ATOM      6  C   UNL     1     -15.244   3.212  30.563  0.00  0.00    +0.112 C 
ATOM      8  C   UNL     1     -16.053   3.152  29.270  0.00  0.00    +0.133 C 
ATOM     10  C   UNL     1     -15.900   4.001  31.693  0.00  0.00    +0.132 C 
ATOM     13  C   UNL     1     -14.496   1.477  32.220  0.00  0.00    +0.128 C 
ATOM     14  C   UNL     1     -15.466   0.944  29.910  0.00  0.00    +0.305 C 
ATOM     15  C   UNL     1     -15.147   2.298  33.332  0.00  0.00    +0.127 C 
ATOM     18  C   UNL     1     -14.659   4.684  33.812  0.00  0.00    +0.219 C 
ENDROOT
BRANCH   3   7
ATOM      7  C   UNL     1     -16.550   1.280  27.639  0.00  0.00    +0.078 C 
ATOM     16  C   UNL     1     -16.451   2.360  26.560  0.00  0.00    +0.022 C 
ATOM     17  C   UNL     1     -17.997   0.820  27.835  0.00  0.00    +0.022 C 
ATOM     19  C   UNL     1     -17.080   1.904  25.246  0.00  0.00    +0.002 C 
ATOM     20  C   UNL     1     -18.625   0.365  26.519  0.00  0.00    +0.002 C 
ATOM     21  C   UNL     1     -18.522   1.443  25.445  0.00  0.00    +0.000 C 
ENDBRANCH   3   7
BRANCH  18   9
ATOM      9  C   UNL     1     -14.758   6.111  33.379  0.00  0.00    +0.075 C 
ATOM     11  C   UNL     1     -13.566   6.744  32.744  0.00  0.00    +0.013 C 
ATOM     12  C   UNL     1     -13.978   7.136  34.131  0.00  0.00    +0.013 C 
ENDBRANCH  18   9
TORSDOF 2
ENDMDL
MODEL 5
REMARK VINA RESULT:      -5.9     24.442     26.823
REMARK  Name = 75537011
REMARK  2 active torsions:
REMARK  status: ('A' for Active; 'I' for Inactive)
REMARK    1  A    between atoms: N_3  and  C_7
REMARK    2  A    between atoms: C_9  and  C_18
REMARK                            x       y       z     vdW  Elec       q    Type
REMARK                         _______ _______ _______ _____ _____    ______ ____
ROOT
ATOM      1  O   UNL     1      -5.481 -12.351  18.517  0.00  0.00    -0.252 OA
ATOM      2  O   UNL     1     -11.246  -8.478  17.949  0.00  0.00    -0.275 OA
ATOM      3  N   UNL     1      -4.987 -10.933  16.699  0.00  0.00    -0.281 N 
ATOM      4  N   UNL     1      -6.923 -10.641  17.801  0.00  0.00    -0.278 N 
ATOM      5  N   UNL     1      -9.321  -9.441  17.063  0.00  0.00    -0.298 N 
ATOM      6  C   UNL     1      -6.878  -9.549  16.844  0.00  0.00    +0.112 C 
ATOM      8  C   UNL     1      -5.677  -9.888  15.963  0.00  0.00    +0.133 C 
ATOM     10  C   UNL     1      -8.205  -9.437  16.099  0.00  0.00    +0.132 C 
ATOM     13  C   UNL     1      -8.040 -10.746  18.723  0.00  0.00    +0.128 C 
ATOM     14  C   UNL     1      -5.761 -11.423  17.770  0.00  0.00    +0.305 C 
ATOM     15  C   UNL     1      -9.357 -10.604  17.962  0.00  0.00    +0.127 C 
ATOM     18  C   UNL     1     -10.309  -8.459  17.154  0.00  0.00    +0.219 C 
ENDROOT
BRANCH   3   7
ATOM      7  C   UNL     1      -3.721 -11.468  16.260  0.00  0.00    +0.078 C 
ATOM     16  C   UNL     1      -2.702 -10.344  16.061  0.00  0.00    +0.022 C 
ATOM     17  C   UNL     1      -3.896 -12.292  14.981  0.00  0.00    +0.022 C 
ATOM     19  C   UNL     1      -1.368 -10.877  15.546  0.00  0.00    +0.002 C 
ATOM     20  C   UNL     1      -2.560 -12.824  14.468  0.00  0.00    +0.002 C 
ATOM     21  C   UNL     1      -1.546 -11.701  14.273  0.00  0.00    +0.000 C 
ENDBRANCH   3   7
BRANCH  18   9
ATOM      9  C   UNL     1     -10.213  -7.303  16.211  0.00  0.00    +0.075 C 
ATOM     11  C   UNL     1     -11.207  -6.198  16.338  0.00  0.00    +0.013 C 
ATOM     12  C   UNL     1     -11.274  -7.142  15.176  0.00  0.00    +0.013 C 
ENDBRANCH  18   9
TORSDOF 2
ENDMDL
MODEL 6
REMARK VINA RESULT:      -5.8     17.864     21.172
REMARK  Name = 75537011
REMARK  2 active torsions:
REMARK  status: ('A' for Active; 'I' for Inactive)
REMARK    1  A    between atoms: N_3  and  C_7
REMARK    2  A    between atoms: C_9  and  C_18
REMARK                            x       y       z     vdW  Elec       q    Type
REMARK                         _______ _______ _______ _____ _____    ______ ____
ROOT
ATOM      1  O   UNL     1      21.990   7.794  20.176  0.00  0.00    -0.252 OA
ATOM      2  O   UNL     1      26.487   2.561  21.149  0.00  0.00    -0.275 OA
ATOM      3  N   UNL     1      20.575   5.943  20.540  0.00  0.00    -0.281 N 
ATOM      4  N   UNL     1      22.796   5.656  20.720  0.00  0.00    -0.278 N 
ATOM      5  N   UNL     1      24.399   3.391  20.539  0.00  0.00    -0.298 N 
ATOM      6  C   UNL     1      22.228   4.380  21.118  0.00  0.00    +0.112 C 
ATOM      8  C   UNL     1      20.746   4.520  20.780  0.00  0.00    +0.133 C 
ATOM     10  C   UNL     1      22.940   3.233  20.405  0.00  0.00    +0.132 C 
ATOM     13  C   UNL     1      24.235   5.846  20.750  0.00  0.00    +0.128 C 
ATOM     14  C   UNL     1      21.811   6.614  20.448  0.00  0.00    +0.305 C 
ATOM     15  C   UNL     1      24.929   4.675  20.057  0.00  0.00    +0.127 C 
ATOM     18  C   UNL     1      25.269   2.428  21.056  0.00  0.00    +0.219 C 
ENDROOT
BRANCH   3   7
ATOM      7  C   UNL     1      19.279   6.525  20.290  0.00  0.00    +0.078 C 
ATOM     16  C   UNL     1      18.660   7.037  21.593  0.00  0.00    +0.022 C 
ATOM     17  C   UNL     1      18.358   5.519  19.595  0.00  0.00    +0.022 C 
ATOM     19  C   UNL     1      17.264   7.612  21.366  0.00  0.00    +0.002 C 
ATOM     20  C   UNL     1      16.962   6.096  19.370  0.00  0.00    +0.002 C 
ATOM     21  C   UNL     1      16.349   6.608  20.670  0.00  0.00    +0.000 C 
ENDBRANCH   3   7
BRANCH  18   9
ATOM      9  C   UNL     1      24.665   1.146  21.530  0.00  0.00    +0.075 C 
ATOM     11  C   UNL     1      24.502   0.938  22.998  0.00  0.00    +0.013 C 
ATOM     12  C   UNL     1      25.542   0.169  22.239  0.00  0.00    +0.013 C 
ENDBRANCH  18   9
TORSDOF 2
ENDMDL
MODEL 7
REMARK VINA RESULT:      -5.7     13.397     18.299
REMARK  Name = 75537011
REMARK  2 active torsions:
REMARK  status: ('A' for Active; 'I' for Inactive)
REMARK    1  A    between atoms: N_3  and  C_7
REMARK    2  A    between atoms: C_9  and  C_18
REMARK                            x       y       z     vdW  Elec       q    Type
REMARK                         _______ _______ _______ _____ _____    ______ ____
ROOT
ATOM      1  O   UNL     1      10.782   8.610  21.491  0.00  0.00    -0.252 OA
ATOM      2  O   UNL     1      13.854   8.617  15.236  0.00  0.00    -0.275 OA
ATOM      3  N   UNL     1      12.150  10.529  21.576  0.00  0.00    -0.281 N 
ATOM      4  N   UNL     1      12.048   9.360  19.660  0.00  0.00    -0.278 N 
ATOM      5  N   UNL     1      13.779   9.192  17.491  0.00  0.00    -0.298 N 
ATOM      6  C   UNL     1      12.861  10.520  19.340  0.00  0.00    +0.112 C 
ATOM      8  C   UNL     1      13.102  11.181  20.694  0.00  0.00    +0.133 C 
ATOM     10  C   UNL     1      14.128  10.097  18.600  0.00  0.00    +0.132 C 
ATOM     13  C   UNL     1      11.740   8.387  18.627  0.00  0.00    +0.128 C 
ATOM     14  C   UNL     1      11.558   9.401  20.972  0.00  0.00    +0.305 C 
ATOM     15  C   UNL     1      13.016   7.998  17.882  0.00  0.00    +0.127 C 
ATOM     18  C   UNL     1      14.133   9.385  16.153  0.00  0.00    +0.219 C 
ENDROOT
BRANCH   3   7
ATOM      7  C   UNL     1      11.972  10.941  22.948  0.00  0.00    +0.078 C 
ATOM     16  C   UNL     1      10.887  12.016  23.049  0.00  0.00    +0.022 C 
ATOM     17  C   UNL     1      13.296  11.428  23.542  0.00  0.00    +0.022 C 
ATOM     19  C   UNL     1      10.714  12.508  24.484  0.00  0.00    +0.002 C 
ATOM     20  C   UNL     1      13.120  11.921  24.977  0.00  0.00    +0.002 C 
ATOM     21  C   UNL     1      12.036  12.990  25.075  0.00  0.00    +0.000 C 
ENDBRANCH   3   7
BRANCH  18   9
ATOM      9  C   UNL     1      14.908  10.619  15.822  0.00  0.00    +0.075 C 
ATOM     11  C   UNL     1      14.357  11.550  14.795  0.00  0.00    +0.013 C 
ATOM     12  C   UNL     1      15.559  10.711  14.483  0.00  0.00    +0.013 C 
ENDBRANCH  18   9
TORSDOF 2
ENDMDL
MODEL 8
REMARK VINA RESULT:      -5.6     24.470     27.462
REMARK  Name = 75537011
REMARK  2 active torsions:
REMARK  status: ('A' for Active; 'I' for Inactive)
REMARK    1  A    between atoms: N_3  and  C_7
REMARK    2  A    between atoms: C_9  and  C_18
REMARK                            x       y       z     vdW  Elec       q    Type
REMARK                         _______ _______ _______ _____ _____    ______ ____
ROOT
ATOM      1  O   UNL     1      -4.068 -12.366  18.629  0.00  0.00    -0.252 OA
ATOM      2  O   UNL     1     -10.641 -10.750  20.288  0.00  0.00    -0.275 OA
ATOM      3  N   UNL     1      -4.808 -11.160  16.742  0.00  0.00    -0.281 N 
ATOM      4  N   UNL     1      -6.187 -11.359  18.505  0.00  0.00    -0.278 N 
ATOM      5  N   UNL     1      -8.950 -11.147  18.738  0.00  0.00    -0.298 N 
ATOM      6  C   UNL     1      -6.887 -10.474  17.590  0.00  0.00    +0.112 C 
ATOM      8  C   UNL     1      -6.045 -10.527  16.318  0.00  0.00    +0.133 C 
ATOM     10  C   UNL     1      -8.336 -10.922  17.417  0.00  0.00    +0.132 C 
ATOM     13  C   UNL     1      -6.781 -11.685  19.789  0.00  0.00    +0.128 C 
ATOM     14  C   UNL     1      -4.913 -11.709  18.036  0.00  0.00    +0.305 C 
ATOM     15  C   UNL     1      -8.237 -12.104  19.597  0.00  0.00    +0.127 C 
ATOM     18  C   UNL     1     -10.126 -10.544  19.192  0.00  0.00    +0.219 C 
ENDROOT
BRANCH   3   7
ATOM      7  C   UNL     1      -3.681 -11.308  15.853  0.00  0.00    +0.078 C 
ATOM     16  C   UNL     1      -2.471 -10.536  16.386  0.00  0.00    +0.022 C 
ATOM     17  C   UNL     1      -4.047 -10.859  14.436  0.00  0.00    +0.022 C 
ATOM     19  C   UNL     1      -1.279 -10.633  15.438  0.00  0.00    +0.002 C 
ATOM     20  C   UNL     1      -2.852 -10.955  13.490  0.00  0.00    +0.002 C 
ATOM     21  C   UNL     1      -1.648 -10.188  14.026  0.00  0.00    +0.000 C 
ENDBRANCH   3   7
BRANCH  18   9
ATOM      9  C   UNL     1     -10.799  -9.580  18.270  0.00  0.00    +0.075 C 
ATOM     11  C   UNL     1     -12.261  -9.337  18.440  0.00  0.00    +0.013 C 
ATOM     12  C   UNL     1     -11.759 -10.115  17.262  0.00  0.00    +0.013 C 
ENDBRANCH  18   9
TORSDOF 2
ENDMDL
MODEL 9
REMARK VINA RESULT:      -5.6     23.731     26.498
REMARK  Name = 75537011
REMARK  2 active torsions:
REMARK  status: ('A' for Active; 'I' for Inactive)
REMARK    1  A    between atoms: N_3  and  C_7
REMARK    2  A    between atoms: C_9  and  C_18
REMARK                            x       y       z     vdW  Elec       q    Type
REMARK                         _______ _______ _______ _____ _____    ______ ____
ROOT
ATOM      1  O   UNL     1      -3.012 -11.009  16.954  0.00  0.00    -0.252 OA
ATOM      2  O   UNL     1      -9.187 -10.815  20.177  0.00  0.00    -0.275 OA
ATOM      3  N   UNL     1      -4.528 -10.709  15.172  0.00  0.00    -0.281 N 
ATOM      4  N   UNL     1      -5.320 -10.712  17.275  0.00  0.00    -0.278 N 
ATOM      5  N   UNL     1      -7.855 -11.202  18.307  0.00  0.00    -0.298 N 
ATOM      6  C   UNL     1      -6.470 -10.387  16.450  0.00  0.00    +0.112 C 
ATOM      8  C   UNL     1      -5.970 -10.606  15.025  0.00  0.00    +0.133 C 
ATOM     10  C   UNL     1      -7.670 -11.245  16.846  0.00  0.00    +0.132 C 
ATOM     13  C   UNL     1      -5.460 -10.767  18.720  0.00  0.00    +0.128 C 
ATOM     14  C   UNL     1      -4.143 -10.829  16.523  0.00  0.00    +0.305 C 
ATOM     15  C   UNL     1      -6.680 -11.606  19.092  0.00  0.00    +0.127 C 
ATOM     18  C   UNL     1      -9.035 -10.832  18.958  0.00  0.00    +0.219 C 
ENDROOT
BRANCH   3   7
ATOM      7  C   UNL     1      -3.649 -10.815  14.033  0.00  0.00    +0.078 C 
ATOM     16  C   UNL     1      -4.292 -10.180  12.798  0.00  0.00    +0.022 C 
ATOM     17  C   UNL     1      -3.271 -12.276  13.775  0.00  0.00    +0.022 C 
ATOM     19  C   UNL     1      -3.404 -10.324  11.564  0.00  0.00    +0.002 C 
ATOM     20  C   UNL     1      -2.384 -12.417  12.540  0.00  0.00    +0.002 C 
ATOM     21  C   UNL     1      -3.026 -11.782  11.312  0.00  0.00    +0.000 C 
ENDBRANCH   3   7
BRANCH  18   9
ATOM      9  C   UNL     1     -10.191 -10.430  18.101  0.00  0.00    +0.075 C 
ATOM     11  C   UNL     1     -10.412  -8.978  17.842  0.00  0.00    +0.013 C 
ATOM     12  C   UNL     1     -11.342  -9.732  18.744  0.00  0.00    +0.013 C 
ENDBRANCH  18   9
TORSDOF 2
ENDMDL
MODEL 10
REMARK VINA RESULT:      -5.6     22.039     25.008
REMARK  Name = 75537011
REMARK  2 active torsions:
REMARK  status: ('A' for Active; 'I' for Inactive)
REMARK    1  A    between atoms: N_3  and  C_7
REMARK    2  A    between atoms: C_9  and  C_18
REMARK                            x       y       z     vdW  Elec       q    Type
REMARK                         _______ _______ _______ _____ _____    ______ ____
ROOT
ATOM      1  O   UNL     1      -2.303 -10.863  14.624  0.00  0.00    -0.252 OA
ATOM      2  O   UNL     1      -4.738  -9.595   8.219  0.00  0.00    -0.275 OA
ATOM      3  N   UNL     1      -4.591 -10.431  15.005  0.00  0.00    -0.281 N 
ATOM      4  N   UNL     1      -3.838 -10.477  12.888  0.00  0.00    -0.278 N 
ATOM      5  N   UNL     1      -4.835  -9.381  10.535  0.00  0.00    -0.298 N 
ATOM      6  C   UNL     1      -5.276 -10.314  12.763  0.00  0.00    +0.112 C 
ATOM      8  C   UNL     1      -5.740 -10.064  14.195  0.00  0.00    +0.133 C 
ATOM     10  C   UNL     1      -5.602  -9.193  11.780  0.00  0.00    +0.132 C 
ATOM     13  C   UNL     1      -3.017 -10.584  11.695  0.00  0.00    +0.128 C 
ATOM     14  C   UNL     1      -3.434 -10.624  14.222  0.00  0.00    +0.305 C 
ATOM     15  C   UNL     1      -3.379  -9.470  10.714  0.00  0.00    +0.127 C 
ATOM     18  C   UNL     1      -5.386  -9.456   9.254  0.00  0.00    +0.219 C 
ENDROOT
BRANCH   3   7
ATOM      7  C   UNL     1      -4.644 -10.443  16.446  0.00  0.00    +0.078 C 
ATOM     16  C   UNL     1      -4.120 -11.773  16.992  0.00  0.00    +0.022 C 
ATOM     17  C   UNL     1      -6.066 -10.161  16.938  0.00  0.00    +0.022 C 
ATOM     19  C   UNL     1      -4.213 -11.834  18.515  0.00  0.00    +0.002 C 
ATOM     20  C   UNL     1      -6.157 -10.223  18.461  0.00  0.00    +0.002 C 
ATOM     21  C   UNL     1      -5.632 -11.549  19.002  0.00  0.00    +0.000 C 
ENDBRANCH   3   7
BRANCH  18   9
ATOM      9  C   UNL     1      -6.873  -9.359   9.143  0.00  0.00    +0.075 C 
ATOM     11  C   UNL     1      -7.474  -9.184   7.789  0.00  0.00    +0.013 C 
ATOM     12  C   UNL     1      -7.472  -8.046   8.765  0.00  0.00    +0.013 C 
ENDBRANCH  18   9
TORSDOF 2
ENDMDL
