MODEL 1
REMARK VINA RESULT:      -7.4      0.000      0.000
REMARK  Name = 11866319
REMARK  12 active torsions:
REMARK  status: ('A' for Active; 'I' for Inactive)
REMARK    1  A    between atoms: O_1  and  C_11
REMARK    2  A    between atoms: O_2  and  C_12
REMARK    3  A    between atoms: O_6  and  C_28
REMARK    4  A    between atoms: O_6  and  C_35
REMARK    5  A    between atoms: N_7  and  C_13
REMARK    6  A    between atoms: N_8  and  C_18
REMARK    7  A    between atoms: N_9  and  C_23
REMARK    8  A    between atoms: C_15  and  C_17
REMARK    9  A    between atoms: C_18  and  C_20
REMARK   10  A    between atoms: C_18  and  C_22
REMARK   11  A    between atoms: C_20  and  C_21
REMARK   12  A    between atoms: C_33  and  C_34
REMARK                            x       y       z     vdW  Elec       q    Type
REMARK                         _______ _______ _______ _____ _____    ______ ____
ROOT
ATOM     11  C   UNL     1      14.532  13.054  15.555  0.00  0.00    +0.167 C 
ATOM     12  C   UNL     1      15.710  12.472  16.346  0.00  0.00    +0.149 C 
ATOM     13  C   UNL     1      13.916  12.007  14.607  0.00  0.00    +0.129 C 
ATOM     14  C   UNL     1      15.312  11.210  17.131  0.00  0.00    +0.074 C 
ATOM     15  C   UNL     1      14.366  10.315  16.382  0.00  0.00    +0.015 C 
ATOM     16  C   UNL     1      13.741  10.656  15.246  0.00  0.00    +0.006 C 
ENDROOT
BRANCH  13   7
ATOM      4  O   UNL     1      13.057  11.899  11.876  0.00  0.00    -0.252 OA
ATOM      7  N   UNL     1      12.645  12.445  14.085  0.00  0.00    -0.290 N 
ATOM      9  N   UNL     1      11.013  12.854  12.522  0.00  0.00    -0.269 N 
ATOM     19  C   UNL     1      12.301  12.357  12.730  0.00  0.00    +0.304 C 
ATOM     36  H   UNL     1      11.935  12.756  14.742  0.00  0.00    +0.151 HD
ATOM     40  H   UNL     1      10.519  13.199  13.341  0.00  0.00    +0.156 HD
BRANCH   9  23
ATOM     23  C   UNL     1      10.302  12.940  11.301  0.00  0.00    +0.035 A 
ATOM     29  C   UNL     1       9.399  11.943  10.971  0.00  0.00    +0.023 A 
ATOM     30  C   UNL     1      10.524  14.020  10.462  0.00  0.00    +0.023 A 
ATOM     31  C   UNL     1       8.698  12.028   9.768  0.00  0.00    +0.005 A 
ATOM     32  C   UNL     1       9.824  14.104   9.260  0.00  0.00    +0.005 A 
ATOM     33  C   UNL     1       8.910  13.108   8.912  0.00  0.00    -0.050 A 
ATOM     34  C   UNL     1       8.162  13.200   7.625  0.00  0.00    +0.044 C 
ENDBRANCH   9  23
ENDBRANCH  13   7
BRANCH  15  17
ATOM      3  O   UNL     1      13.880   8.027  16.162  0.00  0.00    -0.271 OA
ATOM      8  N   UNL     1      14.197   8.915  18.294  0.00  0.00    -0.300 N 
ATOM     17  C   UNL     1      14.122   8.971  16.913  0.00  0.00    +0.241 C 
ATOM     39  H   UNL     1      14.377   9.768  18.817  0.00  0.00    +0.150 HD
BRANCH   8  18
ATOM     18  C   UNL     1      13.990   7.698  19.047  0.00  0.00    +0.163 C 
BRANCH  18  22
ATOM      5  O   UNL     1      11.721   8.521  19.336  0.00  0.00    -0.274 OA
ATOM     10  N   UNL     1      12.082   6.251  19.373  0.00  0.00    -0.328 N 
ATOM     22  C   UNL     1      12.493   7.565  19.281  0.00  0.00    +0.231 C 
ATOM     41  H   UNL     1      12.728   5.472  19.322  0.00  0.00    +0.145 HD
ATOM     42  H   UNL     1      11.103   6.021  19.514  0.00  0.00    +0.145 HD
ENDBRANCH  18  22
BRANCH  18  20
ATOM     20  C   UNL     1      14.741   7.709  20.383  0.00  0.00    +0.067 C 
BRANCH  20  21
ATOM     21  C   UNL     1      16.098   7.056  20.296  0.00  0.00    -0.045 A 
ATOM     24  C   UNL     1      17.016   7.259  21.315  0.00  0.00    +0.007 A 
ATOM     25  C   UNL     1      16.402   6.263  19.201  0.00  0.00    +0.007 A 
ATOM     26  C   UNL     1      18.271   6.654  21.234  0.00  0.00    +0.046 A 
ATOM     27  C   UNL     1      17.657   5.660  19.121  0.00  0.00    +0.046 A 
ATOM     28  C   UNL     1      18.591   5.855  20.138  0.00  0.00    +0.120 A 
BRANCH  28   6
ATOM      6  O   UNL     1      19.815   5.266  20.059  0.00  0.00    -0.495 OA
ATOM     35  C   UNL     1      20.867   5.847  20.828  0.00  0.00    +0.277 C 
ENDBRANCH  28   6
ENDBRANCH  20  21
ENDBRANCH  18  20
ENDBRANCH   8  18
ENDBRANCH  15  17
BRANCH  11   1
ATOM      1  O   UNL     1      13.539  13.509  16.476  0.00  0.00    -0.387 OA
ATOM     37  H   UNL     1      12.723  13.708  15.988  0.00  0.00    +0.210 HD
ENDBRANCH  11   1
BRANCH  12   2
ATOM      2  O   UNL     1      16.795  12.180  15.468  0.00  0.00    -0.389 OA
ATOM     38  H   UNL     1      17.343  11.500  15.895  0.00  0.00    +0.210 HD
ENDBRANCH  12   2
TORSDOF 10
ENDMDL
MODEL 2
REMARK VINA RESULT:      -7.2     10.661     14.314
REMARK  Name = 11866319
REMARK  12 active torsions:
REMARK  status: ('A' for Active; 'I' for Inactive)
REMARK    1  A    between atoms: O_1  and  C_11
REMARK    2  A    between atoms: O_2  and  C_12
REMARK    3  A    between atoms: O_6  and  C_28
REMARK    4  A    between atoms: O_6  and  C_35
REMARK    5  A    between atoms: N_7  and  C_13
REMARK    6  A    between atoms: N_8  and  C_18
REMARK    7  A    between atoms: N_9  and  C_23
REMARK    8  A    between atoms: C_15  and  C_17
REMARK    9  A    between atoms: C_18  and  C_20
REMARK   10  A    between atoms: C_18  and  C_22
REMARK   11  A    between atoms: C_20  and  C_21
REMARK   12  A    between atoms: C_33  and  C_34
REMARK                            x       y       z     vdW  Elec       q    Type
REMARK                         _______ _______ _______ _____ _____    ______ ____
ROOT
ATOM     11  C   UNL     1      15.314   9.077   4.746  0.00  0.00    +0.167 C 
ATOM     12  C   UNL     1      14.727  10.086   5.740  0.00  0.00    +0.149 C 
ATOM     13  C   UNL     1      15.159   7.629   5.251  0.00  0.00    +0.129 C 
ATOM     14  C   UNL     1      13.252   9.788   6.062  0.00  0.00    +0.074 C 
ATOM     15  C   UNL     1      12.951   8.322   6.181  0.00  0.00    +0.015 C 
ATOM     16  C   UNL     1      13.799   7.344   5.829  0.00  0.00    +0.006 C 
ENDROOT
BRANCH  13   7
ATOM      4  O   UNL     1      13.362   6.777   3.189  0.00  0.00    -0.252 OA
ATOM      7  N   UNL     1      15.434   6.670   4.210  0.00  0.00    -0.290 N 
ATOM      9  N   UNL     1      15.042   5.362   2.363  0.00  0.00    -0.269 N 
ATOM     19  C   UNL     1      14.496   6.306   3.236  0.00  0.00    +0.304 C 
ATOM     36  H   UNL     1      16.377   6.301   4.132  0.00  0.00    +0.151 HD
ATOM     40  H   UNL     1      16.001   5.076   2.544  0.00  0.00    +0.156 HD
BRANCH   9  23
ATOM     23  C   UNL     1      14.421   4.746   1.251  0.00  0.00    +0.035 A 
ATOM     29  C   UNL     1      13.521   3.714   1.462  0.00  0.00    +0.023 A 
ATOM     30  C   UNL     1      14.727   5.187  -0.026  0.00  0.00    +0.023 A 
ATOM     31  C   UNL     1      12.908   3.108   0.365  0.00  0.00    +0.005 A 
ATOM     32  C   UNL     1      14.115   4.579  -1.122  0.00  0.00    +0.005 A 
ATOM     33  C   UNL     1      13.206   3.539  -0.927  0.00  0.00    -0.050 A 
ATOM     34  C   UNL     1      12.552   2.891  -2.100  0.00  0.00    +0.044 C 
ENDBRANCH   9  23
ENDBRANCH  13   7
BRANCH  15  17
ATOM      3  O   UNL     1      10.949   8.734   7.338  0.00  0.00    -0.271 OA
ATOM      8  N   UNL     1      11.350   6.596   6.501  0.00  0.00    -0.300 N 
ATOM     17  C   UNL     1      11.653   7.926   6.735  0.00  0.00    +0.241 C 
ATOM     39  H   UNL     1      12.023   6.011   6.013  0.00  0.00    +0.150 HD
BRANCH   8  18
ATOM     18  C   UNL     1      10.126   5.974   6.953  0.00  0.00    +0.163 C 
BRANCH  18  22
ATOM      5  O   UNL     1      10.908   5.688   9.237  0.00  0.00    -0.274 OA
ATOM     10  N   UNL     1      10.168   3.840   8.088  0.00  0.00    -0.328 N 
ATOM     22  C   UNL     1      10.463   5.183   8.208  0.00  0.00    +0.231 C 
ATOM     41  H   UNL     1       9.798   3.437   7.235  0.00  0.00    +0.145 HD
ATOM     42  H   UNL     1      10.330   3.201   8.859  0.00  0.00    +0.145 HD
ENDBRANCH  18  22
BRANCH  18  20
ATOM     20  C   UNL     1       9.515   5.055   5.890  0.00  0.00    +0.067 C 
BRANCH  20  21
ATOM     21  C   UNL     1       9.658   5.604   4.492  0.00  0.00    -0.045 A 
ATOM     24  C   UNL     1      10.366   4.879   3.546  0.00  0.00    +0.007 A 
ATOM     25  C   UNL     1       9.077   6.822   4.176  0.00  0.00    +0.007 A 
ATOM     26  C   UNL     1      10.498   5.386   2.253  0.00  0.00    +0.046 A 
ATOM     27  C   UNL     1       9.209   7.329   2.884  0.00  0.00    +0.046 A 
ATOM     28  C   UNL     1       9.920   6.610   1.922  0.00  0.00    +0.120 A 
BRANCH  28   6
ATOM      6  O   UNL     1      10.048   7.106   0.662  0.00  0.00    -0.495 OA
ATOM     35  C   UNL     1      10.948   6.428  -0.214  0.00  0.00    +0.277 C 
ENDBRANCH  28   6
ENDBRANCH  20  21
ENDBRANCH  18  20
ENDBRANCH   8  18
ENDBRANCH  15  17
BRANCH  11   1
ATOM      1  O   UNL     1      14.642   9.221   3.493  0.00  0.00    -0.387 OA
ATOM     37  H   UNL     1      14.008   8.493   3.389  0.00  0.00    +0.210 HD
ENDBRANCH  11   1
BRANCH  12   2
ATOM      2  O   UNL     1      15.497  10.097   6.941  0.00  0.00    -0.389 OA
ATOM     38  H   UNL     1      15.585  11.023   7.224  0.00  0.00    +0.210 HD
ENDBRANCH  12   2
TORSDOF 10
ENDMDL
MODEL 3
REMARK VINA RESULT:      -7.0      7.115     11.870
REMARK  Name = 11866319
REMARK  12 active torsions:
REMARK  status: ('A' for Active; 'I' for Inactive)
REMARK    1  A    between atoms: O_1  and  C_11
REMARK    2  A    between atoms: O_2  and  C_12
REMARK    3  A    between atoms: O_6  and  C_28
REMARK    4  A    between atoms: O_6  and  C_35
REMARK    5  A    between atoms: N_7  and  C_13
REMARK    6  A    between atoms: N_8  and  C_18
REMARK    7  A    between atoms: N_9  and  C_23
REMARK    8  A    between atoms: C_15  and  C_17
REMARK    9  A    between atoms: C_18  and  C_20
REMARK   10  A    between atoms: C_18  and  C_22
REMARK   11  A    between atoms: C_20  and  C_21
REMARK   12  A    between atoms: C_33  and  C_34
REMARK                            x       y       z     vdW  Elec       q    Type
REMARK                         _______ _______ _______ _____ _____    ______ ____
ROOT
ATOM     11  C   UNL     1      20.543   7.694  24.392  0.00  0.00    +0.167 C 
ATOM     12  C   UNL     1      21.964   8.005  24.878  0.00  0.00    +0.149 C 
ATOM     13  C   UNL     1      20.544   7.159  22.948  0.00  0.00    +0.129 C 
ATOM     14  C   UNL     1      22.895   6.786  24.762  0.00  0.00    +0.074 C 
ATOM     15  C   UNL     1      22.663   5.974  23.519  0.00  0.00    +0.015 C 
ATOM     16  C   UNL     1      21.618   6.136  22.693  0.00  0.00    +0.006 C 
ENDROOT
BRANCH  13   7
ATOM      4  O   UNL     1      18.582   8.318  21.212  0.00  0.00    -0.252 OA
ATOM      7  N   UNL     1      19.267   6.592  22.589  0.00  0.00    -0.290 N 
ATOM      9  N   UNL     1      17.215   6.445  21.568  0.00  0.00    -0.269 N 
ATOM     19  C   UNL     1      18.361   7.227  21.730  0.00  0.00    +0.304 C 
ATOM     36  H   UNL     1      19.049   5.653  22.911  0.00  0.00    +0.151 HD
ATOM     40  H   UNL     1      17.191   5.562  22.072  0.00  0.00    +0.156 HD
BRANCH   9  23
ATOM     23  C   UNL     1      16.073   6.731  20.784  0.00  0.00    +0.035 A 
ATOM     29  C   UNL     1      14.884   7.060  21.414  0.00  0.00    +0.023 A 
ATOM     30  C   UNL     1      16.166   6.675  19.403  0.00  0.00    +0.023 A 
ATOM     31  C   UNL     1      13.757   7.343  20.641  0.00  0.00    +0.005 A 
ATOM     32  C   UNL     1      15.040   6.956  18.631  0.00  0.00    +0.005 A 
ATOM     33  C   UNL     1      13.835   7.290  19.249  0.00  0.00    -0.050 A 
ATOM     34  C   UNL     1      12.631   7.591  18.423  0.00  0.00    +0.044 C 
ENDBRANCH   9  23
ENDBRANCH  13   7
BRANCH  15  17
ATOM      3  O   UNL     1      24.466   4.547  23.998  0.00  0.00    -0.271 OA
ATOM      8  N   UNL     1      23.542   4.521  21.858  0.00  0.00    -0.300 N 
ATOM     17  C   UNL     1      23.650   4.949  23.171  0.00  0.00    +0.241 C 
ATOM     39  H   UNL     1      22.844   4.945  21.253  0.00  0.00    +0.150 HD
BRANCH   8  18
ATOM     18  C   UNL     1      24.407   3.517  21.282  0.00  0.00    +0.163 C 
BRANCH  18  22
ATOM      5  O   UNL     1      25.166   5.078  19.581  0.00  0.00    -0.274 OA
ATOM     10  N   UNL     1      24.531   2.968  18.931  0.00  0.00    -0.328 N 
ATOM     22  C   UNL     1      24.730   3.964  19.864  0.00  0.00    +0.231 C 
ATOM     41  H   UNL     1      24.174   2.051  19.179  0.00  0.00    +0.145 HD
ATOM     42  H   UNL     1      24.724   3.129  17.949  0.00  0.00    +0.145 HD
ENDBRANCH  18  22
BRANCH  18  20
ATOM     20  C   UNL     1      23.757   2.129  21.269  0.00  0.00    +0.067 C 
BRANCH  20  21
ATOM     21  C   UNL     1      24.356   1.194  22.290  0.00  0.00    -0.045 A 
ATOM     24  C   UNL     1      25.455   0.424  21.943  0.00  0.00    +0.007 A 
ATOM     25  C   UNL     1      23.799   1.123  23.558  0.00  0.00    +0.007 A 
ATOM     26  C   UNL     1      26.010  -0.441  22.888  0.00  0.00    +0.046 A 
ATOM     27  C   UNL     1      24.354   0.259  24.501  0.00  0.00    +0.046 A 
ATOM     28  C   UNL     1      25.460  -0.523  24.165  0.00  0.00    +0.120 A 
BRANCH  28   6
ATOM      6  O   UNL     1      26.000  -1.367  25.087  0.00  0.00    -0.495 OA
ATOM     35  C   UNL     1      25.794  -2.764  24.887  0.00  0.00    +0.277 C 
ENDBRANCH  28   6
ENDBRANCH  20  21
ENDBRANCH  18  20
ENDBRANCH   8  18
ENDBRANCH  15  17
BRANCH  11   1
ATOM      1  O   UNL     1      19.962   6.722  25.263  0.00  0.00    -0.387 OA
ATOM     37  H   UNL     1      19.519   6.043  24.727  0.00  0.00    +0.210 HD
ENDBRANCH  11   1
BRANCH  12   2
ATOM      2  O   UNL     1      22.504   9.104  24.146  0.00  0.00    -0.389 OA
ATOM     38  H   UNL     1      22.032   9.151  23.297  0.00  0.00    +0.210 HD
ENDBRANCH  12   2
TORSDOF 10
ENDMDL
MODEL 4
REMARK VINA RESULT:      -7.0     10.774     14.359
REMARK  Name = 11866319
REMARK  12 active torsions:
REMARK  status: ('A' for Active; 'I' for Inactive)
REMARK    1  A    between atoms: O_1  and  C_11
REMARK    2  A    between atoms: O_2  and  C_12
REMARK    3  A    between atoms: O_6  and  C_28
REMARK    4  A    between atoms: O_6  and  C_35
REMARK    5  A    between atoms: N_7  and  C_13
REMARK    6  A    between atoms: N_8  and  C_18
REMARK    7  A    between atoms: N_9  and  C_23
REMARK    8  A    between atoms: C_15  and  C_17
REMARK    9  A    between atoms: C_18  and  C_20
REMARK   10  A    between atoms: C_18  and  C_22
REMARK   11  A    between atoms: C_20  and  C_21
REMARK   12  A    between atoms: C_33  and  C_34
REMARK                            x       y       z     vdW  Elec       q    Type
REMARK                         _______ _______ _______ _____ _____    ______ ____
ROOT
ATOM     11  C   UNL     1      14.114   7.211   2.713  0.00  0.00    +0.167 C 
ATOM     12  C   UNL     1      12.606   7.441   2.866  0.00  0.00    +0.149 C 
ATOM     13  C   UNL     1      14.896   7.763   3.921  0.00  0.00    +0.129 C 
ATOM     14  C   UNL     1      12.060   6.842   4.174  0.00  0.00    +0.074 C 
ATOM     15  C   UNL     1      12.989   7.010   5.341  0.00  0.00    +0.015 C 
ATOM     16  C   UNL     1      14.260   7.429   5.243  0.00  0.00    +0.006 C 
ENDROOT
BRANCH  13   7
ATOM      4  O   UNL     1      17.217   9.275   4.652  0.00  0.00    -0.252 OA
ATOM      7  N   UNL     1      16.261   7.297   3.929  0.00  0.00    -0.290 N 
ATOM      9  N   UNL     1      18.538   7.386   4.213  0.00  0.00    -0.269 N 
ATOM     19  C   UNL     1      17.343   8.104   4.301  0.00  0.00    +0.304 C 
ATOM     36  H   UNL     1      16.436   6.315   3.734  0.00  0.00    +0.151 HD
ATOM     40  H   UNL     1      18.467   6.419   3.903  0.00  0.00    +0.156 HD
BRANCH   9  23
ATOM     23  C   UNL     1      19.847   7.839   4.501  0.00  0.00    +0.035 A 
ATOM     29  C   UNL     1      20.729   8.072   3.458  0.00  0.00    +0.023 A 
ATOM     30  C   UNL     1      20.220   8.040   5.819  0.00  0.00    +0.023 A 
ATOM     31  C   UNL     1      22.019   8.519   3.742  0.00  0.00    +0.005 A 
ATOM     32  C   UNL     1      21.510   8.486   6.103  0.00  0.00    +0.005 A 
ATOM     33  C   UNL     1      22.410   8.726   5.064  0.00  0.00    -0.050 A 
ATOM     34  C   UNL     1      23.790   9.204   5.368  0.00  0.00    +0.044 C 
ENDBRANCH   9  23
ENDBRANCH  13   7
BRANCH  15  17
ATOM      3  O   UNL     1      13.232   6.628   7.647  0.00  0.00    -0.271 OA
ATOM      8  N   UNL     1      11.099   6.560   6.708  0.00  0.00    -0.300 N 
ATOM     17  C   UNL     1      12.475   6.716   6.682  0.00  0.00    +0.241 C 
ATOM     39  H   UNL     1      10.575   6.627   5.841  0.00  0.00    +0.150 HD
BRANCH   8  18
ATOM     18  C   UNL     1      10.363   6.262   7.916  0.00  0.00    +0.163 C 
BRANCH  18  22
ATOM      5  O   UNL     1      10.010   4.108   8.985  0.00  0.00    -0.274 OA
ATOM     10  N   UNL     1      10.066   4.201   6.689  0.00  0.00    -0.328 N 
ATOM     22  C   UNL     1      10.146   4.757   7.949  0.00  0.00    +0.231 C 
ATOM     41  H   UNL     1      10.177   4.748   5.843  0.00  0.00    +0.145 HD
ATOM     42  H   UNL     1       9.908   3.206   6.569  0.00  0.00    +0.145 HD
ENDBRANCH  18  22
BRANCH  18  20
ATOM     20  C   UNL     1       9.018   6.997   7.971  0.00  0.00    +0.067 C 
BRANCH  20  21
ATOM     21  C   UNL     1       8.720   7.763   6.706  0.00  0.00    -0.045 A 
ATOM     24  C   UNL     1       8.961   9.127   6.665  0.00  0.00    +0.007 A 
ATOM     25  C   UNL     1       8.212   7.088   5.606  0.00  0.00    +0.007 A 
ATOM     26  C   UNL     1       8.685   9.835   5.494  0.00  0.00    +0.046 A 
ATOM     27  C   UNL     1       7.937   7.797   4.437  0.00  0.00    +0.046 A 
ATOM     28  C   UNL     1       8.173   9.170   4.381  0.00  0.00    +0.120 A 
BRANCH  28   6
ATOM      6  O   UNL     1       7.904   9.861   3.240  0.00  0.00    -0.495 OA
ATOM     35  C   UNL     1       7.868   9.116   2.023  0.00  0.00    +0.277 C 
ENDBRANCH  28   6
ENDBRANCH  20  21
ENDBRANCH  18  20
ENDBRANCH   8  18
ENDBRANCH  15  17
BRANCH  11   1
ATOM      1  O   UNL     1      14.355   5.808   2.588  0.00  0.00    -0.387 OA
ATOM     37  H   UNL     1      14.263   5.393   3.461  0.00  0.00    +0.210 HD
ENDBRANCH  11   1
BRANCH  12   2
ATOM      2  O   UNL     1      12.313   8.836   2.808  0.00  0.00    -0.389 OA
ATOM     38  H   UNL     1      11.679   9.033   3.516  0.00  0.00    +0.210 HD
ENDBRANCH  12   2
TORSDOF 10
ENDMDL
MODEL 5
REMARK VINA RESULT:      -6.9     27.214     29.956
REMARK  Name = 11866319
REMARK  12 active torsions:
REMARK  status: ('A' for Active; 'I' for Inactive)
REMARK    1  A    between atoms: O_1  and  C_11
REMARK    2  A    between atoms: O_2  and  C_12
REMARK    3  A    between atoms: O_6  and  C_28
REMARK    4  A    between atoms: O_6  and  C_35
REMARK    5  A    between atoms: N_7  and  C_13
REMARK    6  A    between atoms: N_8  and  C_18
REMARK    7  A    between atoms: N_9  and  C_23
REMARK    8  A    between atoms: C_15  and  C_17
REMARK    9  A    between atoms: C_18  and  C_20
REMARK   10  A    between atoms: C_18  and  C_22
REMARK   11  A    between atoms: C_20  and  C_21
REMARK   12  A    between atoms: C_33  and  C_34
REMARK                            x       y       z     vdW  Elec       q    Type
REMARK                         _______ _______ _______ _____ _____    ______ ____
ROOT
ATOM     11  C   UNL     1     -11.351 -10.247  18.526  0.00  0.00    +0.167 C 
ATOM     12  C   UNL     1     -10.584 -10.911  19.675  0.00  0.00    +0.149 C 
ATOM     13  C   UNL     1     -10.423  -9.376  17.656  0.00  0.00    +0.129 C 
ATOM     14  C   UNL     1      -9.392 -11.742  19.171  0.00  0.00    +0.074 C 
ATOM     15  C   UNL     1      -8.663 -11.105  18.023  0.00  0.00    +0.015 C 
ATOM     16  C   UNL     1      -9.109 -10.039  17.341  0.00  0.00    +0.006 C 
ENDROOT
BRANCH  13   7
ATOM      4  O   UNL     1     -11.595  -6.833  17.054  0.00  0.00    -0.252 OA
ATOM      7  N   UNL     1     -11.059  -8.990  16.420  0.00  0.00    -0.290 N 
ATOM      9  N   UNL     1     -12.154  -7.638  14.922  0.00  0.00    -0.269 N 
ATOM     19  C   UNL     1     -11.610  -7.721  16.206  0.00  0.00    +0.304 C 
ATOM     36  H   UNL     1     -11.034  -9.643  15.642  0.00  0.00    +0.151 HD
ATOM     40  H   UNL     1     -12.083  -8.470  14.342  0.00  0.00    +0.156 HD
BRANCH   9  23
ATOM     23  C   UNL     1     -12.799  -6.530  14.323  0.00  0.00    +0.035 A 
ATOM     29  C   UNL     1     -12.034  -5.488  13.824  0.00  0.00    +0.023 A 
ATOM     30  C   UNL     1     -14.182  -6.510  14.247  0.00  0.00    +0.023 A 
ATOM     31  C   UNL     1     -12.670  -4.396  13.233  0.00  0.00    +0.005 A 
ATOM     32  C   UNL     1     -14.817  -5.419  13.656  0.00  0.00    +0.005 A 
ATOM     33  C   UNL     1     -14.062  -4.361  13.149  0.00  0.00    -0.050 A 
ATOM     34  C   UNL     1     -14.742  -3.194  12.518  0.00  0.00    +0.044 C 
ENDBRANCH   9  23
ENDBRANCH  13   7
BRANCH  15  17
ATOM      3  O   UNL     1      -7.301 -12.643  16.884  0.00  0.00    -0.271 OA
ATOM      8  N   UNL     1      -6.296 -10.988  18.181  0.00  0.00    -0.300 N 
ATOM     17  C   UNL     1      -7.368 -11.667  17.630  0.00  0.00    +0.241 C 
ATOM     39  H   UNL     1      -6.471 -10.208  18.809  0.00  0.00    +0.150 HD
BRANCH   8  18
ATOM     18  C   UNL     1      -4.919 -11.358  17.941  0.00  0.00    +0.163 C 
BRANCH  18  22
ATOM      5  O   UNL     1      -4.980 -11.863  20.317  0.00  0.00    -0.274 OA
ATOM     10  N   UNL     1      -2.995 -12.122  19.188  0.00  0.00    -0.328 N 
ATOM     22  C   UNL     1      -4.330 -11.784  19.277  0.00  0.00    +0.231 C 
ATOM     41  H   UNL     1      -2.471 -12.056  18.323  0.00  0.00    +0.145 HD
ATOM     42  H   UNL     1      -2.484 -12.439  20.005  0.00  0.00    +0.145 HD
ENDBRANCH  18  22
BRANCH  18  20
ATOM     20  C   UNL     1      -4.105 -10.206  17.341  0.00  0.00    +0.067 C 
BRANCH  20  21
ATOM     21  C   UNL     1      -3.685 -10.467  15.916  0.00  0.00    -0.045 A 
ATOM     24  C   UNL     1      -2.339 -10.606  15.619  0.00  0.00    +0.007 A 
ATOM     25  C   UNL     1      -4.654 -10.566  14.928  0.00  0.00    +0.007 A 
ATOM     26  C   UNL     1      -1.951 -10.849  14.301  0.00  0.00    +0.046 A 
ATOM     27  C   UNL     1      -4.265 -10.808  13.612  0.00  0.00    +0.046 A 
ATOM     28  C   UNL     1      -2.913 -10.950  13.298  0.00  0.00    +0.120 A 
BRANCH  28   6
ATOM      6  O   UNL     1      -2.535 -11.186  12.012  0.00  0.00    -0.495 OA
ATOM     35  C   UNL     1      -2.689 -10.114  11.083  0.00  0.00    +0.277 C 
ENDBRANCH  28   6
ENDBRANCH  20  21
ENDBRANCH  18  20
ENDBRANCH   8  18
ENDBRANCH  15  17
BRANCH  11   1
ATOM      1  O   UNL     1     -11.946 -11.266  17.719  0.00  0.00    -0.387 OA
ATOM     37  H   UNL     1     -11.626 -12.132  18.020  0.00  0.00    +0.210 HD
ENDBRANCH  11   1
BRANCH  12   2
ATOM      2  O   UNL     1     -10.135  -9.924  20.602  0.00  0.00    -0.389 OA
ATOM     38  H   UNL     1      -9.207 -10.118  20.811  0.00  0.00    +0.210 HD
ENDBRANCH  12   2
TORSDOF 10
ENDMDL
MODEL 6
REMARK VINA RESULT:      -6.8     26.369     28.830
REMARK  Name = 11866319
REMARK  12 active torsions:
REMARK  status: ('A' for Active; 'I' for Inactive)
REMARK    1  A    between atoms: O_1  and  C_11
REMARK    2  A    between atoms: O_2  and  C_12
REMARK    3  A    between atoms: O_6  and  C_28
REMARK    4  A    between atoms: O_6  and  C_35
REMARK    5  A    between atoms: N_7  and  C_13
REMARK    6  A    between atoms: N_8  and  C_18
REMARK    7  A    between atoms: N_9  and  C_23
REMARK    8  A    between atoms: C_15  and  C_17
REMARK    9  A    between atoms: C_18  and  C_20
REMARK   10  A    between atoms: C_18  and  C_22
REMARK   11  A    between atoms: C_20  and  C_21
REMARK   12  A    between atoms: C_33  and  C_34
REMARK                            x       y       z     vdW  Elec       q    Type
REMARK                         _______ _______ _______ _____ _____    ______ ____
ROOT
ATOM     11  C   UNL     1      -4.382 -10.197   9.215  0.00  0.00    +0.167 C 
ATOM     12  C   UNL     1      -3.392 -11.106   9.954  0.00  0.00    +0.149 C 
ATOM     13  C   UNL     1      -5.783 -10.249   9.854  0.00  0.00    +0.129 C 
ATOM     14  C   UNL     1      -3.308 -10.771  11.453  0.00  0.00    +0.074 C 
ATOM     15  C   UNL     1      -4.635 -10.417  12.061  0.00  0.00    +0.015 C 
ATOM     16  C   UNL     1      -5.754 -10.189  11.357  0.00  0.00    +0.006 C 
ENDROOT
BRANCH  13   7
ATOM      4  O   UNL     1      -7.284 -10.255   7.414  0.00  0.00    -0.252 OA
ATOM      7  N   UNL     1      -6.633  -9.193   9.362  0.00  0.00    -0.290 N 
ATOM      9  N   UNL     1      -8.072  -8.108   7.938  0.00  0.00    -0.269 N 
ATOM     19  C   UNL     1      -7.335  -9.275   8.153  0.00  0.00    +0.304 C 
ATOM     36  H   UNL     1      -6.793  -8.386   9.958  0.00  0.00    +0.151 HD
ATOM     40  H   UNL     1      -8.003  -7.387   8.653  0.00  0.00    +0.156 HD
BRANCH   9  23
ATOM     23  C   UNL     1      -8.909  -7.799   6.840  0.00  0.00    +0.035 A 
ATOM     29  C   UNL     1      -8.347  -7.640   5.584  0.00  0.00    +0.023 A 
ATOM     30  C   UNL     1     -10.272  -7.661   7.044  0.00  0.00    +0.023 A 
ATOM     31  C   UNL     1      -9.172  -7.336   4.500  0.00  0.00    +0.005 A 
ATOM     32  C   UNL     1     -11.096  -7.357   5.961  0.00  0.00    +0.005 A 
ATOM     33  C   UNL     1     -10.547  -7.194   4.689  0.00  0.00    -0.050 A 
ATOM     34  C   UNL     1     -11.429  -6.868   3.532  0.00  0.00    +0.044 C 
ENDBRANCH   9  23
ENDBRANCH  13   7
BRANCH  15  17
ATOM      3  O   UNL     1      -5.755  -9.951  14.073  0.00  0.00    -0.271 OA
ATOM      8  N   UNL     1      -3.555 -10.719  14.156  0.00  0.00    -0.300 N 
ATOM     17  C   UNL     1      -4.724 -10.333  13.521  0.00  0.00    +0.241 C 
ATOM     39  H   UNL     1      -2.752 -10.990  13.596  0.00  0.00    +0.150 HD
BRANCH   8  18
ATOM     18  C   UNL     1      -3.401 -10.718  15.593  0.00  0.00    +0.163 C 
BRANCH  18  22
ATOM      5  O   UNL     1      -1.170  -9.853  15.171  0.00  0.00    -0.274 OA
ATOM     10  N   UNL     1      -1.524 -11.103  17.066  0.00  0.00    -0.328 N 
ATOM     22  C   UNL     1      -1.922 -10.513  15.885  0.00  0.00    +0.231 C 
ATOM     41  H   UNL     1      -2.156 -11.642  17.648  0.00  0.00    +0.145 HD
ATOM     42  H   UNL     1      -0.564 -11.029  17.387  0.00  0.00    +0.145 HD
ENDBRANCH  18  22
BRANCH  18  20
ATOM     20  C   UNL     1      -3.895 -12.023  16.229  0.00  0.00    +0.067 C 
BRANCH  20  21
ATOM     21  C   UNL     1      -4.985 -11.800  17.248  0.00  0.00    -0.045 A 
ATOM     24  C   UNL     1      -5.878 -12.824  17.522  0.00  0.00    +0.007 A 
ATOM     25  C   UNL     1      -5.073 -10.576  17.894  0.00  0.00    +0.007 A 
ATOM     26  C   UNL     1      -6.886 -12.617  18.465  0.00  0.00    +0.046 A 
ATOM     27  C   UNL     1      -6.080 -10.371  18.835  0.00  0.00    +0.046 A 
ATOM     28  C   UNL     1      -6.987 -11.392  19.121  0.00  0.00    +0.120 A 
BRANCH  28   6
ATOM      6  O   UNL     1      -7.970 -11.190  20.040  0.00  0.00    -0.495 OA
ATOM     35  C   UNL     1      -9.303 -11.514  19.647  0.00  0.00    +0.277 C 
ENDBRANCH  28   6
ENDBRANCH  20  21
ENDBRANCH  18  20
ENDBRANCH   8  18
ENDBRANCH  15  17
BRANCH  11   1
ATOM      1  O   UNL     1      -3.890  -8.856   9.250  0.00  0.00    -0.387 OA
ATOM     37  H   UNL     1      -4.590  -8.272   9.584  0.00  0.00    +0.210 HD
ENDBRANCH  11   1
BRANCH  12   2
ATOM      2  O   UNL     1      -3.757 -12.474   9.778  0.00  0.00    -0.389 OA
ATOM     38  H   UNL     1      -3.320 -12.986  10.479  0.00  0.00    +0.210 HD
ENDBRANCH  12   2
TORSDOF 10
ENDMDL
MODEL 7
REMARK VINA RESULT:      -6.7     28.240     31.872
REMARK  Name = 11866319
REMARK  12 active torsions:
REMARK  status: ('A' for Active; 'I' for Inactive)
REMARK    1  A    between atoms: O_1  and  C_11
REMARK    2  A    between atoms: O_2  and  C_12
REMARK    3  A    between atoms: O_6  and  C_28
REMARK    4  A    between atoms: O_6  and  C_35
REMARK    5  A    between atoms: N_7  and  C_13
REMARK    6  A    between atoms: N_8  and  C_18
REMARK    7  A    between atoms: N_9  and  C_23
REMARK    8  A    between atoms: C_15  and  C_17
REMARK    9  A    between atoms: C_18  and  C_20
REMARK   10  A    between atoms: C_18  and  C_22
REMARK   11  A    between atoms: C_20  and  C_21
REMARK   12  A    between atoms: C_33  and  C_34
REMARK                            x       y       z     vdW  Elec       q    Type
REMARK                         _______ _______ _______ _____ _____    ______ ____
ROOT
ATOM     11  C   UNL     1     -12.429  -9.499  16.135  0.00  0.00    +0.167 C 
ATOM     12  C   UNL     1     -13.584  -9.295  15.147  0.00  0.00    +0.149 C 
ATOM     13  C   UNL     1     -11.090  -9.012  15.547  0.00  0.00    +0.129 C 
ATOM     14  C   UNL     1     -13.703  -7.830  14.692  0.00  0.00    +0.074 C 
ATOM     15  C   UNL     1     -12.376  -7.162  14.476  0.00  0.00    +0.015 C 
ATOM     16  C   UNL     1     -11.197  -7.684  14.847  0.00  0.00    +0.006 C 
ENDROOT
BRANCH  13   7
ATOM      4  O   UNL     1      -8.869 -10.788  15.890  0.00  0.00    -0.252 OA
ATOM      7  N   UNL     1     -10.065  -8.925  16.557  0.00  0.00    -0.290 N 
ATOM      9  N   UNL     1      -8.175  -9.503  17.727  0.00  0.00    -0.269 N 
ATOM     19  C   UNL     1      -9.009  -9.838  16.657  0.00  0.00    +0.304 C 
ATOM     36  H   UNL     1     -10.065  -8.118  17.175  0.00  0.00    +0.151 HD
ATOM     40  H   UNL     1      -8.435  -8.681  18.267  0.00  0.00    +0.156 HD
BRANCH   9  23
ATOM     23  C   UNL     1      -7.005 -10.171  18.159  0.00  0.00    +0.035 A 
ATOM     29  C   UNL     1      -5.908 -10.231  17.315  0.00  0.00    +0.023 A 
ATOM     30  C   UNL     1      -6.981 -10.752  19.417  0.00  0.00    +0.023 A 
ATOM     31  C   UNL     1      -4.754 -10.890  17.742  0.00  0.00    +0.005 A 
ATOM     32  C   UNL     1      -5.828 -11.411  19.842  0.00  0.00    +0.005 A 
ATOM     33  C   UNL     1      -4.714 -11.480  19.004  0.00  0.00    -0.050 A 
ATOM     34  C   UNL     1      -3.481 -12.184  19.460  0.00  0.00    +0.044 C 
ENDBRANCH   9  23
ENDBRANCH  13   7
BRANCH  15  17
ATOM      3  O   UNL     1     -11.678  -4.933  14.229  0.00  0.00    -0.271 OA
ATOM      8  N   UNL     1     -13.168  -5.829  12.677  0.00  0.00    -0.300 N 
ATOM     17  C   UNL     1     -12.359  -5.862  13.799  0.00  0.00    +0.241 C 
ATOM     39  H   UNL     1     -13.710  -6.652  12.430  0.00  0.00    +0.150 HD
BRANCH   8  18
ATOM     18  C   UNL     1     -13.316  -4.655  11.846  0.00  0.00    +0.163 C 
BRANCH  18  22
ATOM      5  O   UNL     1     -14.654  -3.192  13.251  0.00  0.00    -0.274 OA
ATOM     10  N   UNL     1     -15.662  -4.219  11.460  0.00  0.00    -0.328 N 
ATOM     22  C   UNL     1     -14.591  -3.952  12.288  0.00  0.00    +0.231 C 
ATOM     41  H   UNL     1     -15.596  -4.846  10.666  0.00  0.00    +0.145 HD
ATOM     42  H   UNL     1     -16.570  -3.800  11.633  0.00  0.00    +0.145 HD
ENDBRANCH  18  22
BRANCH  18  20
ATOM     20  C   UNL     1     -13.388  -5.006  10.355  0.00  0.00    +0.067 C 
BRANCH  20  21
ATOM     21  C   UNL     1     -12.029  -5.239   9.744  0.00  0.00    -0.045 A 
ATOM     24  C   UNL     1     -11.245  -4.151   9.395  0.00  0.00    +0.007 A 
ATOM     25  C   UNL     1     -11.587  -6.538   9.544  0.00  0.00    +0.007 A 
ATOM     26  C   UNL     1      -9.988  -4.367   8.830  0.00  0.00    +0.046 A 
ATOM     27  C   UNL     1     -10.331  -6.753   8.980  0.00  0.00    +0.046 A 
ATOM     28  C   UNL     1      -9.530  -5.667   8.623  0.00  0.00    +0.120 A 
BRANCH  28   6
ATOM      6  O   UNL     1      -8.305  -5.879   8.071  0.00  0.00    -0.495 OA
ATOM     35  C   UNL     1      -7.863  -7.231   7.968  0.00  0.00    +0.277 C 
ENDBRANCH  28   6
ENDBRANCH  20  21
ENDBRANCH  18  20
ENDBRANCH   8  18
ENDBRANCH  15  17
BRANCH  11   1
ATOM      1  O   UNL     1     -12.716  -8.778  17.334  0.00  0.00    -0.387 OA
ATOM     37  H   UNL     1     -12.491  -7.842  17.201  0.00  0.00    +0.210 HD
ENDBRANCH  11   1
BRANCH  12   2
ATOM      2  O   UNL     1     -13.419 -10.147  14.015  0.00  0.00    -0.389 OA
ATOM     38  H   UNL     1     -13.319  -9.580  13.233  0.00  0.00    +0.210 HD
ENDBRANCH  12   2
TORSDOF 10
ENDMDL
MODEL 8
REMARK VINA RESULT:      -6.7     10.521     14.041
REMARK  Name = 11866319
REMARK  12 active torsions:
REMARK  status: ('A' for Active; 'I' for Inactive)
REMARK    1  A    between atoms: O_1  and  C_11
REMARK    2  A    between atoms: O_2  and  C_12
REMARK    3  A    between atoms: O_6  and  C_28
REMARK    4  A    between atoms: O_6  and  C_35
REMARK    5  A    between atoms: N_7  and  C_13
REMARK    6  A    between atoms: N_8  and  C_18
REMARK    7  A    between atoms: N_9  and  C_23
REMARK    8  A    between atoms: C_15  and  C_17
REMARK    9  A    between atoms: C_18  and  C_20
REMARK   10  A    between atoms: C_18  and  C_22
REMARK   11  A    between atoms: C_20  and  C_21
REMARK   12  A    between atoms: C_33  and  C_34
REMARK                            x       y       z     vdW  Elec       q    Type
REMARK                         _______ _______ _______ _____ _____    ______ ____
ROOT
ATOM     11  C   UNL     1      14.925  10.017   5.537  0.00  0.00    +0.167 C 
ATOM     12  C   UNL     1      13.501  10.257   6.055  0.00  0.00    +0.149 C 
ATOM     13  C   UNL     1      15.220   8.514   5.371  0.00  0.00    +0.129 C 
ATOM     14  C   UNL     1      12.441   9.601   5.154  0.00  0.00    +0.074 C 
ATOM     15  C   UNL     1      12.855   8.258   4.624  0.00  0.00    +0.015 C 
ATOM     16  C   UNL     1      14.094   7.755   4.722  0.00  0.00    +0.006 C 
ENDROOT
BRANCH  13   7
ATOM      4  O   UNL     1      17.907   8.685   6.351  0.00  0.00    -0.252 OA
ATOM      7  N   UNL     1      16.429   8.290   4.617  0.00  0.00    -0.290 N 
ATOM      9  N   UNL     1      18.683   8.122   4.209  0.00  0.00    -0.269 N 
ATOM     19  C   UNL     1      17.710   8.394   5.173  0.00  0.00    +0.304 C 
ATOM     36  H   UNL     1      16.346   7.962   3.659  0.00  0.00    +0.151 HD
ATOM     40  H   UNL     1      18.349   7.897   3.275  0.00  0.00    +0.156 HD
BRANCH   9  23
ATOM     23  C   UNL     1      20.089   8.122   4.370  0.00  0.00    +0.035 A 
ATOM     29  C   UNL     1      20.758   6.915   4.484  0.00  0.00    +0.023 A 
ATOM     30  C   UNL     1      20.767   9.329   4.409  0.00  0.00    +0.023 A 
ATOM     31  C   UNL     1      22.144   6.915   4.642  0.00  0.00    +0.005 A 
ATOM     32  C   UNL     1      22.152   9.329   4.567  0.00  0.00    +0.005 A 
ATOM     33  C   UNL     1      22.841   8.122   4.684  0.00  0.00    -0.050 A 
ATOM     34  C   UNL     1      24.323   8.122   4.854  0.00  0.00    +0.044 C 
ENDBRANCH   9  23
ENDBRANCH  13   7
BRANCH  15  17
ATOM      3  O   UNL     1      12.138   6.373   3.420  0.00  0.00    -0.271 OA
ATOM      8  N   UNL     1      10.564   7.967   4.064  0.00  0.00    -0.300 N 
ATOM     17  C   UNL     1      11.837   7.428   3.974  0.00  0.00    +0.241 C 
ATOM     39  H   UNL     1      10.436   8.864   4.524  0.00  0.00    +0.150 HD
BRANCH   8  18
ATOM     18  C   UNL     1       9.397   7.332   3.497  0.00  0.00    +0.163 C 
BRANCH  18  22
ATOM      5  O   UNL     1       9.489   8.222   1.237  0.00  0.00    -0.274 OA
ATOM     10  N   UNL     1       7.796   8.919   2.626  0.00  0.00    -0.328 N 
ATOM     22  C   UNL     1       8.935   8.198   2.335  0.00  0.00    +0.231 C 
ATOM     41  H   UNL     1       7.347   8.888   3.534  0.00  0.00    +0.145 HD
ATOM     42  H   UNL     1       7.373   9.526   1.931  0.00  0.00    +0.145 HD
ENDBRANCH  18  22
BRANCH  18  20
ATOM     20  C   UNL     1       8.269   7.169   4.523  0.00  0.00    +0.067 C 
BRANCH  20  21
ATOM     21  C   UNL     1       8.744   6.568   5.822  0.00  0.00    -0.045 A 
ATOM     24  C   UNL     1       9.365   5.329   5.811  0.00  0.00    +0.007 A 
ATOM     25  C   UNL     1       8.554   7.267   7.005  0.00  0.00    +0.007 A 
ATOM     26  C   UNL     1       9.805   4.774   7.013  0.00  0.00    +0.046 A 
ATOM     27  C   UNL     1       8.993   6.712   8.205  0.00  0.00    +0.046 A 
ATOM     28  C   UNL     1       9.619   5.465   8.210  0.00  0.00    +0.120 A 
BRANCH  28   6
ATOM      6  O   UNL     1      10.048   4.923   9.382  0.00  0.00    -0.495 OA
ATOM     35  C   UNL     1       9.051   4.602  10.352  0.00  0.00    +0.277 C 
ENDBRANCH  28   6
ENDBRANCH  20  21
ENDBRANCH  18  20
ENDBRANCH   8  18
ENDBRANCH  15  17
BRANCH  11   1
ATOM      1  O   UNL     1      15.074  10.676   4.278  0.00  0.00    -0.387 OA
ATOM     37  H   UNL     1      14.916  11.627   4.399  0.00  0.00    +0.210 HD
ENDBRANCH  11   1
BRANCH  12   2
ATOM      2  O   UNL     1      13.376   9.771   7.390  0.00  0.00    -0.389 OA
ATOM     38  H   UNL     1      13.419   8.801   7.355  0.00  0.00    +0.210 HD
ENDBRANCH  12   2
TORSDOF 10
ENDMDL
MODEL 9
REMARK VINA RESULT:      -6.5     27.105     31.294
REMARK  Name = 11866319
REMARK  12 active torsions:
REMARK  status: ('A' for Active; 'I' for Inactive)
REMARK    1  A    between atoms: O_1  and  C_11
REMARK    2  A    between atoms: O_2  and  C_12
REMARK    3  A    between atoms: O_6  and  C_28
REMARK    4  A    between atoms: O_6  and  C_35
REMARK    5  A    between atoms: N_7  and  C_13
REMARK    6  A    between atoms: N_8  and  C_18
REMARK    7  A    between atoms: N_9  and  C_23
REMARK    8  A    between atoms: C_15  and  C_17
REMARK    9  A    between atoms: C_18  and  C_20
REMARK   10  A    between atoms: C_18  and  C_22
REMARK   11  A    between atoms: C_20  and  C_21
REMARK   12  A    between atoms: C_33  and  C_34
REMARK                            x       y       z     vdW  Elec       q    Type
REMARK                         _______ _______ _______ _____ _____    ______ ____
ROOT
ATOM     11  C   UNL     1      -7.202  12.140  34.329  0.00  0.00    +0.167 C 
ATOM     12  C   UNL     1      -8.469  12.898  33.914  0.00  0.00    +0.149 C 
ATOM     13  C   UNL     1      -7.543  10.855  35.109  0.00  0.00    +0.129 C 
ATOM     14  C   UNL     1      -9.429  12.017  33.097  0.00  0.00    +0.074 C 
ATOM     15  C   UNL     1      -9.503  10.600  33.588  0.00  0.00    +0.015 C 
ATOM     16  C   UNL     1      -8.669  10.069  34.495  0.00  0.00    +0.006 C 
ENDROOT
BRANCH  13   7
ATOM      4  O   UNL     1      -5.603  10.908  37.216  0.00  0.00    -0.252 OA
ATOM      7  N   UNL     1      -6.393   9.995  35.244  0.00  0.00    -0.290 N 
ATOM      9  N   UNL     1      -4.481   9.129  36.176  0.00  0.00    -0.269 N 
ATOM     19  C   UNL     1      -5.489  10.086  36.309  0.00  0.00    +0.304 C 
ATOM     36  H   UNL     1      -6.279   9.235  34.579  0.00  0.00    +0.151 HD
ATOM     40  H   UNL     1      -4.534   8.522  35.361  0.00  0.00    +0.156 HD
BRANCH   9  23
ATOM     23  C   UNL     1      -3.384   8.895  37.039  0.00  0.00    +0.035 A 
ATOM     29  C   UNL     1      -2.122   9.325  36.663  0.00  0.00    +0.023 A 
ATOM     30  C   UNL     1      -3.595   8.242  38.242  0.00  0.00    +0.023 A 
ATOM     31  C   UNL     1      -1.041   9.096  37.514  0.00  0.00    +0.005 A 
ATOM     32  C   UNL     1      -2.515   8.012  39.092  0.00  0.00    +0.005 A 
ATOM     33  C   UNL     1      -1.237   8.439  38.729  0.00  0.00    -0.050 A 
ATOM     34  C   UNL     1      -0.081   8.192  39.639  0.00  0.00    +0.044 C 
ENDBRANCH   9  23
ENDBRANCH  13   7
BRANCH  15  17
ATOM      3  O   UNL     1     -10.419   9.126  32.004  0.00  0.00    -0.271 OA
ATOM      8  N   UNL     1     -11.691   9.718  33.866  0.00  0.00    -0.300 N 
ATOM     17  C   UNL     1     -10.566   9.740  33.060  0.00  0.00    +0.241 C 
ATOM     39  H   UNL     1     -11.712  10.290  34.706  0.00  0.00    +0.150 HD
BRANCH   8  18
ATOM     18  C   UNL     1     -12.871   8.944  33.552  0.00  0.00    +0.163 C 
BRANCH  18  22
ATOM      5  O   UNL     1     -14.739  10.389  34.126  0.00  0.00    -0.274 OA
ATOM     10  N   UNL     1     -14.048  10.303  31.936  0.00  0.00    -0.328 N 
ATOM     22  C   UNL     1     -13.991   9.933  33.264  0.00  0.00    +0.231 C 
ATOM     41  H   UNL     1     -13.423   9.921  31.235  0.00  0.00    +0.145 HD
ATOM     42  H   UNL     1     -14.741  10.970  31.612  0.00  0.00    +0.145 HD
ENDBRANCH  18  22
BRANCH  18  20
ATOM     20  C   UNL     1     -13.269   8.004  34.696  0.00  0.00    +0.067 C 
BRANCH  20  21
ATOM     21  C   UNL     1     -13.678   6.635  34.211  0.00  0.00    -0.045 A 
ATOM     24  C   UNL     1     -13.986   5.651  35.137  0.00  0.00    +0.007 A 
ATOM     25  C   UNL     1     -13.742   6.387  32.849  0.00  0.00    +0.007 A 
ATOM     26  C   UNL     1     -14.365   4.385  34.688  0.00  0.00    +0.046 A 
ATOM     27  C   UNL     1     -14.121   5.123  32.401  0.00  0.00    +0.046 A 
ATOM     28  C   UNL     1     -14.433   4.121  33.321  0.00  0.00    +0.120 A 
BRANCH  28   6
ATOM      6  O   UNL     1     -14.802   2.887  32.883  0.00  0.00    -0.495 OA
ATOM     35  C   UNL     1     -14.575   1.789  33.766  0.00  0.00    +0.277 C 
ENDBRANCH  28   6
ENDBRANCH  20  21
ENDBRANCH  18  20
ENDBRANCH   8  18
ENDBRANCH  15  17
BRANCH  11   1
ATOM      1  O   UNL     1      -6.461  11.805  33.154  0.00  0.00    -0.387 OA
ATOM     37  H   UNL     1      -5.518  11.754  33.381  0.00  0.00    +0.210 HD
ENDBRANCH  11   1
BRANCH  12   2
ATOM      2  O   UNL     1      -9.136  13.408  35.068  0.00  0.00    -0.389 OA
ATOM     38  H   UNL     1      -9.826  12.770  35.314  0.00  0.00    +0.210 HD
ENDBRANCH  12   2
TORSDOF 10
ENDMDL
MODEL 10
REMARK VINA RESULT:      -6.4     26.828     30.119
REMARK  Name = 11866319
REMARK  12 active torsions:
REMARK  status: ('A' for Active; 'I' for Inactive)
REMARK    1  A    between atoms: O_1  and  C_11
REMARK    2  A    between atoms: O_2  and  C_12
REMARK    3  A    between atoms: O_6  and  C_28
REMARK    4  A    between atoms: O_6  and  C_35
REMARK    5  A    between atoms: N_7  and  C_13
REMARK    6  A    between atoms: N_8  and  C_18
REMARK    7  A    between atoms: N_9  and  C_23
REMARK    8  A    between atoms: C_15  and  C_17
REMARK    9  A    between atoms: C_18  and  C_20
REMARK   10  A    between atoms: C_18  and  C_22
REMARK   11  A    between atoms: C_20  and  C_21
REMARK   12  A    between atoms: C_33  and  C_34
REMARK                            x       y       z     vdW  Elec       q    Type
REMARK                         _______ _______ _______ _____ _____    ______ ____
ROOT
ATOM     11  C   UNL     1      -3.113 -11.428  15.484  0.00  0.00    +0.167 C 
ATOM     12  C   UNL     1      -1.810 -11.019  14.788  0.00  0.00    +0.149 C 
ATOM     13  C   UNL     1      -4.291 -10.533  15.049  0.00  0.00    +0.129 C 
ATOM     14  C   UNL     1      -1.946 -11.023  13.255  0.00  0.00    +0.074 C 
ATOM     15  C   UNL     1      -3.273 -10.512  12.773  0.00  0.00    +0.015 C 
ATOM     16  C   UNL     1      -4.329 -10.280  13.566  0.00  0.00    +0.006 C 
ENDROOT
BRANCH  13   7
ATOM      4  O   UNL     1      -6.204  -9.310  16.796  0.00  0.00    -0.252 OA
ATOM      7  N   UNL     1      -5.558 -11.085  15.461  0.00  0.00    -0.290 N 
ATOM      9  N   UNL     1      -7.582 -11.193  16.542  0.00  0.00    -0.269 N 
ATOM     19  C   UNL     1      -6.439 -10.419  16.322  0.00  0.00    +0.304 C 
ATOM     36  H   UNL     1      -5.861 -11.960  15.044  0.00  0.00    +0.151 HD
ATOM     40  H   UNL     1      -7.619 -12.094  16.071  0.00  0.00    +0.156 HD
BRANCH   9  23
ATOM     23  C   UNL     1      -8.703 -10.877  17.345  0.00  0.00    +0.035 A 
ATOM     29  C   UNL     1      -9.690 -10.050  16.835  0.00  0.00    +0.023 A 
ATOM     30  C   UNL     1      -8.790 -11.402  18.624  0.00  0.00    +0.023 A 
ATOM     31  C   UNL     1     -10.796  -9.739  17.627  0.00  0.00    +0.005 A 
ATOM     32  C   UNL     1      -9.895 -11.091  19.415  0.00  0.00    +0.005 A 
ATOM     33  C   UNL     1     -10.899 -10.259  18.917  0.00  0.00    -0.050 A 
ATOM     34  C   UNL     1     -12.080  -9.927  19.764  0.00  0.00    +0.044 C 
ENDBRANCH   9  23
ENDBRANCH  13   7
BRANCH  15  17
ATOM      3  O   UNL     1      -2.512  -9.713  10.699  0.00  0.00    -0.271 OA
ATOM      8  N   UNL     1      -4.665 -10.594  10.849  0.00  0.00    -0.300 N 
ATOM     17  C   UNL     1      -3.424 -10.227  11.343  0.00  0.00    +0.241 C 
ATOM     39  H   UNL     1      -5.355 -10.987  11.482  0.00  0.00    +0.150 HD
BRANCH   8  18
ATOM     18  C   UNL     1      -5.049 -10.409   9.468  0.00  0.00    +0.163 C 
BRANCH  18  22
ATOM      5  O   UNL     1      -7.282  -9.465   9.644  0.00  0.00    -0.274 OA
ATOM     10  N   UNL     1      -5.523  -8.055   9.198  0.00  0.00    -0.328 N 
ATOM     22  C   UNL     1      -6.082  -9.293   9.436  0.00  0.00    +0.231 C 
ATOM     41  H   UNL     1      -4.531  -7.926   9.030  0.00  0.00    +0.145 HD
ATOM     42  H   UNL     1      -6.100  -7.221   9.166  0.00  0.00    +0.145 HD
ENDBRANCH  18  22
BRANCH  18  20
ATOM     20  C   UNL     1      -5.626 -11.689   8.851  0.00  0.00    +0.067 C 
BRANCH  20  21
ATOM     21  C   UNL     1      -4.869 -12.139   7.625  0.00  0.00    -0.045 A 
ATOM     24  C   UNL     1      -4.116 -13.300   7.681  0.00  0.00    +0.007 A 
ATOM     25  C   UNL     1      -4.944 -11.384   6.465  0.00  0.00    +0.007 A 
ATOM     26  C   UNL     1      -3.416 -13.716   6.547  0.00  0.00    +0.046 A 
ATOM     27  C   UNL     1      -4.245 -11.800   5.333  0.00  0.00    +0.046 A 
ATOM     28  C   UNL     1      -3.481 -12.967   5.374  0.00  0.00    +0.120 A 
BRANCH  28   6
ATOM      6  O   UNL     1      -2.799 -13.372   4.268  0.00  0.00    -0.495 OA
ATOM     35  C   UNL     1      -2.889 -12.544   3.110  0.00  0.00    +0.277 C 
ENDBRANCH  28   6
ENDBRANCH  20  21
ENDBRANCH  18  20
ENDBRANCH   8  18
ENDBRANCH  15  17
BRANCH  11   1
ATOM      1  O   UNL     1      -3.401 -12.789  15.158  0.00  0.00    -0.387 OA
ATOM     37  H   UNL     1      -4.112 -13.108  15.738  0.00  0.00    +0.210 HD
ENDBRANCH  11   1
BRANCH  12   2
ATOM      2  O   UNL     1      -1.396  -9.730  15.238  0.00  0.00    -0.389 OA
ATOM     38  H   UNL     1      -2.190  -9.253  15.533  0.00  0.00    +0.210 HD
ENDBRANCH  12   2
TORSDOF 10
ENDMDL
