MODEL 1
REMARK VINA RESULT:      -6.2      0.000      0.000
REMARK  Name = 75536622
REMARK  9 active torsions:
REMARK  status: ('A' for Active; 'I' for Inactive)
REMARK    1  A    between atoms: O_2  and  C_8
REMARK    2  A    between atoms: O_4  and  C_20
REMARK    3  A    between atoms: O_4  and  C_26
REMARK    4  A    between atoms: N_5  and  C_7
REMARK    5  A    between atoms: N_5  and  C_12
REMARK    6  A    between atoms: N_6  and  C_11
REMARK    7  A    between atoms: C_9  and  C_11
REMARK    8  A    between atoms: C_12  and  C_13
REMARK    9  A    between atoms: C_14  and  C_17
REMARK                            x       y       z     vdW  Elec       q    Type
REMARK                         _______ _______ _______ _____ _____    ______ ____
ROOT
ATOM      1  O   UNL     1      12.421  12.618  23.097  0.00  0.00    -0.371 OA
ATOM      7  C   UNL     1      11.010  10.806  23.673  0.00  0.00    +0.111 C 
ATOM      8  C   UNL     1      11.596  11.369  24.956  0.00  0.00    +0.164 C 
ATOM      9  C   UNL     1      12.652  12.374  24.496  0.00  0.00    +0.165 C 
ATOM     10  C   UNL     1      11.207  11.964  22.708  0.00  0.00    +0.181 C 
ENDROOT
BRANCH   8   2
ATOM      2  O   UNL     1      10.554  12.067  25.642  0.00  0.00    -0.388 OA
ATOM     28  H   UNL     1      10.828  12.156  26.571  0.00  0.00    +0.210 HD
ENDBRANCH   8   2
BRANCH   7   5
ATOM      5  N   UNL     1      11.739   9.624  23.220  0.00  0.00    -0.305 NA
ATOM     27  H   UNL     1      12.488   9.914  22.591  0.00  0.00    +0.123 HD
BRANCH   5  12
ATOM     12  C   UNL     1      10.860   8.710  22.501  0.00  0.00    +0.116 C 
BRANCH  12  13
ATOM     13  C   UNL     1      11.415   8.344  21.150  0.00  0.00    -0.033 A 
ATOM     15  C   UNL     1      11.720   9.345  20.227  0.00  0.00    +0.008 A 
ATOM     16  C   UNL     1      11.626   7.006  20.822  0.00  0.00    +0.008 A 
ATOM     18  C   UNL     1      12.237   9.007  18.977  0.00  0.00    +0.046 A 
ATOM     19  C   UNL     1      12.143   6.666  19.572  0.00  0.00    +0.046 A 
ATOM     20  C   UNL     1      12.447   7.667  18.649  0.00  0.00    +0.120 A 
BRANCH  20   4
ATOM      4  O   UNL     1      12.952   7.336  17.429  0.00  0.00    -0.495 OA
ATOM     26  C   UNL     1      13.889   8.242  16.846  0.00  0.00    +0.277 C 
ENDBRANCH  20   4
ENDBRANCH  12  13
ENDBRANCH   5  12
ENDBRANCH   7   5
BRANCH   9  11
ATOM     11  C   UNL     1      14.079  11.876  24.665  0.00  0.00    +0.138 C 
BRANCH  11   6
ATOM      3  O   UNL     1      15.635  11.947  22.253  0.00  0.00    -0.270 OA
ATOM      6  N   UNL     1      14.354  10.772  23.791  0.00  0.00    -0.309 N 
ATOM     14  C   UNL     1      15.122  10.899  22.637  0.00  0.00    +0.244 C 
ATOM     29  H   UNL     1      13.892   9.896  24.007  0.00  0.00    +0.149 HD
BRANCH  14  17
ATOM     17  C   UNL     1      15.293   9.666  21.825  0.00  0.00    +0.037 A 
ATOM     21  C   UNL     1      14.973   8.423  22.370  0.00  0.00    +0.013 A 
ATOM     22  C   UNL     1      15.772   9.753  20.518  0.00  0.00    +0.013 A 
ATOM     23  C   UNL     1      15.130   7.266  21.607  0.00  0.00    +0.001 A 
ATOM     24  C   UNL     1      15.930   8.597  19.755  0.00  0.00    +0.001 A 
ATOM     25  C   UNL     1      15.610   7.352  20.300  0.00  0.00    +0.000 A 
ENDBRANCH  14  17
ENDBRANCH  11   6
ENDBRANCH   9  11
TORSDOF 8
ENDMDL
MODEL 2
REMARK VINA RESULT:      -6.2      2.904      5.991
REMARK  Name = 75536622
REMARK  9 active torsions:
REMARK  status: ('A' for Active; 'I' for Inactive)
REMARK    1  A    between atoms: O_2  and  C_8
REMARK    2  A    between atoms: O_4  and  C_20
REMARK    3  A    between atoms: O_4  and  C_26
REMARK    4  A    between atoms: N_5  and  C_7
REMARK    5  A    between atoms: N_5  and  C_12
REMARK    6  A    between atoms: N_6  and  C_11
REMARK    7  A    between atoms: C_9  and  C_11
REMARK    8  A    between atoms: C_12  and  C_13
REMARK    9  A    between atoms: C_14  and  C_17
REMARK                            x       y       z     vdW  Elec       q    Type
REMARK                         _______ _______ _______ _____ _____    ______ ____
ROOT
ATOM      1  O   UNL     1      10.795   8.272  20.135  0.00  0.00    -0.371 OA
ATOM      7  C   UNL     1      12.681   6.859  20.366  0.00  0.00    +0.111 C 
ATOM      8  C   UNL     1      11.679   6.480  21.442  0.00  0.00    +0.164 C 
ATOM      9  C   UNL     1      10.602   7.563  21.373  0.00  0.00    +0.165 C 
ATOM     10  C   UNL     1      11.803   7.601  19.371  0.00  0.00    +0.181 C 
ENDROOT
BRANCH   8   2
ATOM      2  O   UNL     1      11.102   5.224  21.075  0.00  0.00    -0.388 OA
ATOM     28  H   UNL     1      11.643   4.856  20.355  0.00  0.00    +0.210 HD
ENDBRANCH   8   2
BRANCH   7   5
ATOM      5  N   UNL     1      13.726   7.737  20.889  0.00  0.00    -0.305 NA
ATOM     27  H   UNL     1      13.295   8.574  21.282  0.00  0.00    +0.123 HD
BRANCH   5  12
ATOM     12  C   UNL     1      14.646   8.143  19.833  0.00  0.00    +0.116 C 
BRANCH  12  13
ATOM     13  C   UNL     1      16.001   7.506  19.993  0.00  0.00    -0.033 A 
ATOM     15  C   UNL     1      16.339   6.385  19.235  0.00  0.00    +0.008 A 
ATOM     16  C   UNL     1      16.919   8.039  20.897  0.00  0.00    +0.008 A 
ATOM     18  C   UNL     1      17.595   5.797  19.381  0.00  0.00    +0.046 A 
ATOM     19  C   UNL     1      18.176   7.452  21.044  0.00  0.00    +0.046 A 
ATOM     20  C   UNL     1      18.513   6.330  20.286  0.00  0.00    +0.120 A 
BRANCH  20   4
ATOM      4  O   UNL     1      19.740   5.758  20.428  0.00  0.00    -0.495 OA
ATOM     26  C   UNL     1      20.463   6.060  21.621  0.00  0.00    +0.277 C 
ENDBRANCH  20   4
ENDBRANCH  12  13
ENDBRANCH   5  12
ENDBRANCH   7   5
BRANCH   9  11
ATOM     11  C   UNL     1      10.676   8.566  22.515  0.00  0.00    +0.138 C 
BRANCH  11   6
ATOM      3  O   UNL     1      12.952  10.313  22.420  0.00  0.00    -0.270 OA
ATOM      6  N   UNL     1      10.701   9.914  22.025  0.00  0.00    -0.309 N 
ATOM     14  C   UNL     1      11.855  10.691  22.017  0.00  0.00    +0.244 C 
ATOM     29  H   UNL     1       9.810  10.315  21.754  0.00  0.00    +0.149 HD
BRANCH  14  17
ATOM     17  C   UNL     1      11.709  12.077  21.502  0.00  0.00    +0.037 A 
ATOM     21  C   UNL     1      12.493  12.510  20.433  0.00  0.00    +0.013 A 
ATOM     22  C   UNL     1      10.785  12.944  22.086  0.00  0.00    +0.013 A 
ATOM     23  C   UNL     1      12.355  13.810  19.947  0.00  0.00    +0.001 A 
ATOM     24  C   UNL     1      10.646  14.244  21.601  0.00  0.00    +0.001 A 
ATOM     25  C   UNL     1      11.431  14.678  20.532  0.00  0.00    +0.000 A 
ENDBRANCH  14  17
ENDBRANCH  11   6
ENDBRANCH   9  11
TORSDOF 8
ENDMDL
MODEL 3
REMARK VINA RESULT:      -6.1      2.774      5.503
REMARK  Name = 75536622
REMARK  9 active torsions:
REMARK  status: ('A' for Active; 'I' for Inactive)
REMARK    1  A    between atoms: O_2  and  C_8
REMARK    2  A    between atoms: O_4  and  C_20
REMARK    3  A    between atoms: O_4  and  C_26
REMARK    4  A    between atoms: N_5  and  C_7
REMARK    5  A    between atoms: N_5  and  C_12
REMARK    6  A    between atoms: N_6  and  C_11
REMARK    7  A    between atoms: C_9  and  C_11
REMARK    8  A    between atoms: C_12  and  C_13
REMARK    9  A    between atoms: C_14  and  C_17
REMARK                            x       y       z     vdW  Elec       q    Type
REMARK                         _______ _______ _______ _____ _____    ______ ____
ROOT
ATOM      1  O   UNL     1      10.910   8.190  20.200  0.00  0.00    -0.371 OA
ATOM      7  C   UNL     1      12.643   6.589  20.395  0.00  0.00    +0.111 C 
ATOM      8  C   UNL     1      11.594   6.273  21.446  0.00  0.00    +0.164 C 
ATOM      9  C   UNL     1      10.632   7.459  21.408  0.00  0.00    +0.165 C 
ATOM     10  C   UNL     1      11.856   7.450  19.420  0.00  0.00    +0.181 C 
ENDROOT
BRANCH   8   2
ATOM      2  O   UNL     1      10.899   5.095  21.027  0.00  0.00    -0.388 OA
ATOM     28  H   UNL     1      10.118   5.001  21.599  0.00  0.00    +0.210 HD
ENDBRANCH   8   2
BRANCH   7   5
ATOM      5  N   UNL     1      13.763   7.338  20.959  0.00  0.00    -0.305 NA
ATOM     27  H   UNL     1      13.404   8.148  21.464  0.00  0.00    +0.123 HD
BRANCH   5  12
ATOM     12  C   UNL     1      14.662   7.806  19.911  0.00  0.00    +0.116 C 
BRANCH  12  13
ATOM     13  C   UNL     1      16.064   7.292  20.103  0.00  0.00    -0.033 A 
ATOM     15  C   UNL     1      16.574   6.318  19.244  0.00  0.00    +0.008 A 
ATOM     16  C   UNL     1      16.854   7.792  21.137  0.00  0.00    +0.008 A 
ATOM     18  C   UNL     1      17.874   5.845  19.419  0.00  0.00    +0.046 A 
ATOM     19  C   UNL     1      18.155   7.320  21.314  0.00  0.00    +0.046 A 
ATOM     20  C   UNL     1      18.664   6.345  20.455  0.00  0.00    +0.120 A 
BRANCH  20   4
ATOM      4  O   UNL     1      19.933   5.884  20.626  0.00  0.00    -0.495 OA
ATOM     26  C   UNL     1      20.987   6.844  20.555  0.00  0.00    +0.277 C 
ENDBRANCH  20   4
ENDBRANCH  12  13
ENDBRANCH   5  12
ENDBRANCH   7   5
BRANCH   9  11
ATOM     11  C   UNL     1      10.790   8.407  22.587  0.00  0.00    +0.138 C 
BRANCH  11   6
ATOM      3  O   UNL     1      11.061  11.247  22.261  0.00  0.00    -0.270 OA
ATOM      6  N   UNL     1      12.017   9.147  22.503  0.00  0.00    -0.309 N 
ATOM     14  C   UNL     1      12.054  10.529  22.344  0.00  0.00    +0.244 C 
ATOM     29  H   UNL     1      12.873   8.604  22.482  0.00  0.00    +0.149 HD
BRANCH  14  17
ATOM     17  C   UNL     1      13.404  11.141  22.247  0.00  0.00    +0.037 A 
ATOM     21  C   UNL     1      13.554  12.414  21.697  0.00  0.00    +0.013 A 
ATOM     22  C   UNL     1      14.521  10.444  22.706  0.00  0.00    +0.013 A 
ATOM     23  C   UNL     1      14.821  12.991  21.608  0.00  0.00    +0.001 A 
ATOM     24  C   UNL     1      15.788  11.019  22.617  0.00  0.00    +0.001 A 
ATOM     25  C   UNL     1      15.938  12.293  22.067  0.00  0.00    +0.000 A 
ENDBRANCH  14  17
ENDBRANCH  11   6
ENDBRANCH   9  11
TORSDOF 8
ENDMDL
MODEL 4
REMARK VINA RESULT:      -5.6     29.235     31.387
REMARK  Name = 75536622
REMARK  9 active torsions:
REMARK  status: ('A' for Active; 'I' for Inactive)
REMARK    1  A    between atoms: O_2  and  C_8
REMARK    2  A    between atoms: O_4  and  C_20
REMARK    3  A    between atoms: O_4  and  C_26
REMARK    4  A    between atoms: N_5  and  C_7
REMARK    5  A    between atoms: N_5  and  C_12
REMARK    6  A    between atoms: N_6  and  C_11
REMARK    7  A    between atoms: C_9  and  C_11
REMARK    8  A    between atoms: C_12  and  C_13
REMARK    9  A    between atoms: C_14  and  C_17
REMARK                            x       y       z     vdW  Elec       q    Type
REMARK                         _______ _______ _______ _____ _____    ______ ____
ROOT
ATOM      1  O   UNL     1     -14.272   1.624  29.426  0.00  0.00    -0.371 OA
ATOM      7  C   UNL     1     -14.613   0.804  31.620  0.00  0.00    +0.111 C 
ATOM      8  C   UNL     1     -15.523   0.028  30.685  0.00  0.00    +0.164 C 
ATOM      9  C   UNL     1     -15.414   0.751  29.343  0.00  0.00    +0.165 C 
ATOM     10  C   UNL     1     -13.583   1.368  30.655  0.00  0.00    +0.181 C 
ENDROOT
BRANCH   8   2
ATOM      2  O   UNL     1     -14.986  -1.290  30.550  0.00  0.00    -0.388 OA
ATOM     28  H   UNL     1     -14.200  -1.342  31.121  0.00  0.00    +0.210 HD
ENDBRANCH   8   2
BRANCH   7   5
ATOM      5  N   UNL     1     -15.330   1.882  32.299  0.00  0.00    -0.305 NA
ATOM     27  H   UNL     1     -15.342   2.706  31.699  0.00  0.00    +0.123 HD
BRANCH   5  12
ATOM     12  C   UNL     1     -14.679   2.234  33.556  0.00  0.00    +0.116 C 
BRANCH  12  13
ATOM     13  C   UNL     1     -14.367   3.705  33.633  0.00  0.00    -0.033 A 
ATOM     15  C   UNL     1     -13.862   4.371  32.516  0.00  0.00    +0.008 A 
ATOM     16  C   UNL     1     -14.586   4.402  34.821  0.00  0.00    +0.008 A 
ATOM     18  C   UNL     1     -13.577   5.734  32.587  0.00  0.00    +0.046 A 
ATOM     19  C   UNL     1     -14.300   5.765  34.893  0.00  0.00    +0.046 A 
ATOM     20  C   UNL     1     -13.795   6.431  33.775  0.00  0.00    +0.120 A 
BRANCH  20   4
ATOM      4  O   UNL     1     -13.517   7.761  33.845  0.00  0.00    -0.495 OA
ATOM     26  C   UNL     1     -13.420   8.470  32.610  0.00  0.00    +0.277 C 
ENDBRANCH  20   4
ENDBRANCH  12  13
ENDBRANCH   5  12
ENDBRANCH   7   5
BRANCH   9  11
ATOM     11  C   UNL     1     -16.635   1.593  29.006  0.00  0.00    +0.138 C 
BRANCH  11   6
ATOM      3  O   UNL     1     -16.589   4.408  28.443  0.00  0.00    -0.270 OA
ATOM      6  N   UNL     1     -16.813   2.659  29.950  0.00  0.00    -0.309 N 
ATOM     14  C   UNL     1     -16.775   4.002  29.587  0.00  0.00    +0.244 C 
ATOM     29  H   UNL     1     -16.888   2.393  30.926  0.00  0.00    +0.149 HD
BRANCH  14  17
ATOM     17  C   UNL     1     -16.950   4.984  30.688  0.00  0.00    +0.037 A 
ATOM     21  C   UNL     1     -17.503   4.578  31.902  0.00  0.00    +0.013 A 
ATOM     22  C   UNL     1     -16.561   6.311  30.507  0.00  0.00    +0.013 A 
ATOM     23  C   UNL     1     -17.666   5.499  32.937  0.00  0.00    +0.001 A 
ATOM     24  C   UNL     1     -16.724   7.232  31.541  0.00  0.00    +0.001 A 
ATOM     25  C   UNL     1     -17.277   6.826  32.756  0.00  0.00    +0.000 A 
ENDBRANCH  14  17
ENDBRANCH  11   6
ENDBRANCH   9  11
TORSDOF 8
ENDMDL
MODEL 5
REMARK VINA RESULT:      -5.6      2.435      5.615
REMARK  Name = 75536622
REMARK  9 active torsions:
REMARK  status: ('A' for Active; 'I' for Inactive)
REMARK    1  A    between atoms: O_2  and  C_8
REMARK    2  A    between atoms: O_4  and  C_20
REMARK    3  A    between atoms: O_4  and  C_26
REMARK    4  A    between atoms: N_5  and  C_7
REMARK    5  A    between atoms: N_5  and  C_12
REMARK    6  A    between atoms: N_6  and  C_11
REMARK    7  A    between atoms: C_9  and  C_11
REMARK    8  A    between atoms: C_12  and  C_13
REMARK    9  A    between atoms: C_14  and  C_17
REMARK                            x       y       z     vdW  Elec       q    Type
REMARK                         _______ _______ _______ _____ _____    ______ ____
ROOT
ATOM      1  O   UNL     1      10.527   8.703  20.567  0.00  0.00    -0.371 OA
ATOM      7  C   UNL     1      12.406   7.317  20.176  0.00  0.00    +0.111 C 
ATOM      8  C   UNL     1      11.683   6.788  21.401  0.00  0.00    +0.164 C 
ATOM      9  C   UNL     1      10.626   7.846  21.719  0.00  0.00    +0.165 C 
ATOM     10  C   UNL     1      11.323   8.152  19.512  0.00  0.00    +0.181 C 
ENDROOT
BRANCH   8   2
ATOM      2  O   UNL     1      11.028   5.572  21.029  0.00  0.00    -0.388 OA
ATOM     28  H   UNL     1      10.079   5.767  20.952  0.00  0.00    +0.210 HD
ENDBRANCH   8   2
BRANCH   7   5
ATOM      5  N   UNL     1      13.549   8.150  20.542  0.00  0.00    -0.305 NA
ATOM     27  H   UNL     1      13.272   9.131  20.512  0.00  0.00    +0.123 HD
BRANCH   5  12
ATOM     12  C   UNL     1      14.658   7.954  19.616  0.00  0.00    +0.116 C 
BRANCH  12  13
ATOM     13  C   UNL     1      14.432   8.670  18.310  0.00  0.00    -0.033 A 
ATOM     15  C   UNL     1      14.437  10.064  18.269  0.00  0.00    +0.008 A 
ATOM     16  C   UNL     1      14.221   7.938  17.142  0.00  0.00    +0.008 A 
ATOM     18  C   UNL     1      14.231  10.727  17.059  0.00  0.00    +0.046 A 
ATOM     19  C   UNL     1      14.015   8.600  15.932  0.00  0.00    +0.046 A 
ATOM     20  C   UNL     1      14.019   9.995  15.891  0.00  0.00    +0.120 A 
BRANCH  20   4
ATOM      4  O   UNL     1      13.819  10.641  14.710  0.00  0.00    -0.495 OA
ATOM     26  C   UNL     1      14.065  12.046  14.688  0.00  0.00    +0.277 C 
ENDBRANCH  20   4
ENDBRANCH  12  13
ENDBRANCH   5  12
ENDBRANCH   7   5
BRANCH   9  11
ATOM     11  C   UNL     1      10.972   8.706  22.926  0.00  0.00    +0.138 C 
BRANCH  11   6
ATOM      3  O   UNL     1      11.291  10.882  24.771  0.00  0.00    -0.270 OA
ATOM      6  N   UNL     1      10.765  10.099  22.652  0.00  0.00    -0.309 N 
ATOM     14  C   UNL     1      10.944  11.090  23.612  0.00  0.00    +0.244 C 
ATOM     29  H   UNL     1      10.397  10.332  21.735  0.00  0.00    +0.149 HD
BRANCH  14  17
ATOM     17  C   UNL     1      10.663  12.483  23.176  0.00  0.00    +0.037 A 
ATOM     21  C   UNL     1      10.139  13.404  24.082  0.00  0.00    +0.013 A 
ATOM     22  C   UNL     1      10.926  12.868  21.861  0.00  0.00    +0.013 A 
ATOM     23  C   UNL     1       9.877  14.712  23.673  0.00  0.00    +0.001 A 
ATOM     24  C   UNL     1      10.664  14.175  21.453  0.00  0.00    +0.001 A 
ATOM     25  C   UNL     1      10.140  15.098  22.359  0.00  0.00    +0.000 A 
ENDBRANCH  14  17
ENDBRANCH  11   6
ENDBRANCH   9  11
TORSDOF 8
ENDMDL
MODEL 6
REMARK VINA RESULT:      -5.5     26.295     28.849
REMARK  Name = 75536622
REMARK  9 active torsions:
REMARK  status: ('A' for Active; 'I' for Inactive)
REMARK    1  A    between atoms: O_2  and  C_8
REMARK    2  A    between atoms: O_4  and  C_20
REMARK    3  A    between atoms: O_4  and  C_26
REMARK    4  A    between atoms: N_5  and  C_7
REMARK    5  A    between atoms: N_5  and  C_12
REMARK    6  A    between atoms: N_6  and  C_11
REMARK    7  A    between atoms: C_9  and  C_11
REMARK    8  A    between atoms: C_12  and  C_13
REMARK    9  A    between atoms: C_14  and  C_17
REMARK                            x       y       z     vdW  Elec       q    Type
REMARK                         _______ _______ _______ _____ _____    ______ ____
ROOT
ATOM      1  O   UNL     1      -2.796 -10.921  16.387  0.00  0.00    -0.371 OA
ATOM      7  C   UNL     1      -4.429 -12.262  15.320  0.00  0.00    +0.111 C 
ATOM      8  C   UNL     1      -3.100 -12.507  14.629  0.00  0.00    +0.164 C 
ATOM      9  C   UNL     1      -2.154 -11.459  15.216  0.00  0.00    +0.165 C 
ATOM     10  C   UNL     1      -3.985 -11.675  16.650  0.00  0.00    +0.181 C 
ENDROOT
BRANCH   8   2
ATOM      2  O   UNL     1      -2.646 -13.809  15.007  0.00  0.00    -0.388 OA
ATOM     28  H   UNL     1      -1.673 -13.788  15.003  0.00  0.00    +0.210 HD
ENDBRANCH   8   2
BRANCH   7   5
ATOM      5  N   UNL     1      -5.253 -11.306  14.582  0.00  0.00    -0.305 NA
ATOM     27  H   UNL     1      -5.871 -10.823  15.233  0.00  0.00    +0.123 HD
BRANCH   5  12
ATOM     12  C   UNL     1      -6.071 -11.982  13.583  0.00  0.00    +0.116 C 
BRANCH  12  13
ATOM     13  C   UNL     1      -6.583 -11.027  12.537  0.00  0.00    -0.033 A 
ATOM     15  C   UNL     1      -7.431 -11.486  11.528  0.00  0.00    +0.008 A 
ATOM     16  C   UNL     1      -6.214  -9.683  12.580  0.00  0.00    +0.008 A 
ATOM     18  C   UNL     1      -7.907 -10.600  10.562  0.00  0.00    +0.046 A 
ATOM     19  C   UNL     1      -6.690  -8.797  11.614  0.00  0.00    +0.046 A 
ATOM     20  C   UNL     1      -7.536  -9.256  10.604  0.00  0.00    +0.120 A 
BRANCH  20   4
ATOM      4  O   UNL     1      -8.003  -8.391   9.662  0.00  0.00    -0.495 OA
ATOM     26  C   UNL     1      -9.301  -8.649   9.129  0.00  0.00    +0.277 C 
ENDBRANCH  20   4
ENDBRANCH  12  13
ENDBRANCH   5  12
ENDBRANCH   7   5
BRANCH   9  11
ATOM     11  C   UNL     1      -1.855 -10.310  14.265  0.00  0.00    +0.138 C 
BRANCH  11   6
ATOM      3  O   UNL     1      -1.028  -9.543  11.625  0.00  0.00    -0.270 OA
ATOM      6  N   UNL     1      -2.629 -10.413  13.061  0.00  0.00    -0.309 N 
ATOM     14  C   UNL     1      -2.145 -10.015  11.818  0.00  0.00    +0.244 C 
ATOM     29  H   UNL     1      -3.591 -10.718  13.164  0.00  0.00    +0.149 HD
BRANCH  14  17
ATOM     17  C   UNL     1      -3.080 -10.162  10.673  0.00  0.00    +0.037 A 
ATOM     21  C   UNL     1      -3.437  -9.047   9.916  0.00  0.00    +0.013 A 
ATOM     22  C   UNL     1      -3.600 -11.417  10.354  0.00  0.00    +0.013 A 
ATOM     23  C   UNL     1      -4.313  -9.185   8.839  0.00  0.00    +0.001 A 
ATOM     24  C   UNL     1      -4.476 -11.556   9.278  0.00  0.00    +0.001 A 
ATOM     25  C   UNL     1      -4.833 -10.440   8.521  0.00  0.00    +0.000 A 
ENDBRANCH  14  17
ENDBRANCH  11   6
ENDBRANCH   9  11
TORSDOF 8
ENDMDL
MODEL 7
REMARK VINA RESULT:      -5.4      3.572      6.792
REMARK  Name = 75536622
REMARK  9 active torsions:
REMARK  status: ('A' for Active; 'I' for Inactive)
REMARK    1  A    between atoms: O_2  and  C_8
REMARK    2  A    between atoms: O_4  and  C_20
REMARK    3  A    between atoms: O_4  and  C_26
REMARK    4  A    between atoms: N_5  and  C_7
REMARK    5  A    between atoms: N_5  and  C_12
REMARK    6  A    between atoms: N_6  and  C_11
REMARK    7  A    between atoms: C_9  and  C_11
REMARK    8  A    between atoms: C_12  and  C_13
REMARK    9  A    between atoms: C_14  and  C_17
REMARK                            x       y       z     vdW  Elec       q    Type
REMARK                         _______ _______ _______ _____ _____    ______ ____
ROOT
ATOM      1  O   UNL     1      20.487   7.572  20.480  0.00  0.00    -0.371 OA
ATOM      7  C   UNL     1      19.268   8.076  22.446  0.00  0.00    +0.111 C 
ATOM      8  C   UNL     1      19.521   6.579  22.424  0.00  0.00    +0.164 C 
ATOM      9  C   UNL     1      20.107   6.301  21.040  0.00  0.00    +0.165 C 
ATOM     10  C   UNL     1      20.326   8.584  21.480  0.00  0.00    +0.181 C 
ENDROOT
BRANCH   8   2
ATOM      2  O   UNL     1      20.509   6.290  23.417  0.00  0.00    -0.388 OA
ATOM     28  H   UNL     1      20.356   6.896  24.162  0.00  0.00    +0.210 HD
ENDBRANCH   8   2
BRANCH   7   5
ATOM      5  N   UNL     1      17.928   8.403  21.964  0.00  0.00    -0.305 NA
ATOM     27  H   UNL     1      17.625   7.688  21.302  0.00  0.00    +0.123 HD
BRANCH   5  12
ATOM     12  C   UNL     1      17.915   9.694  21.287  0.00  0.00    +0.116 C 
BRANCH  12  13
ATOM     13  C   UNL     1      16.517  10.233  21.132  0.00  0.00    -0.033 A 
ATOM     15  C   UNL     1      16.087  10.710  19.893  0.00  0.00    +0.008 A 
ATOM     16  C   UNL     1      15.653  10.253  22.226  0.00  0.00    +0.008 A 
ATOM     18  C   UNL     1      14.792  11.206  19.749  0.00  0.00    +0.046 A 
ATOM     19  C   UNL     1      14.357  10.749  22.082  0.00  0.00    +0.046 A 
ATOM     20  C   UNL     1      13.927  11.226  20.844  0.00  0.00    +0.120 A 
BRANCH  20   4
ATOM      4  O   UNL     1      12.662  11.709  20.703  0.00  0.00    -0.495 OA
ATOM     26  C   UNL     1      11.668  11.194  21.588  0.00  0.00    +0.277 C 
ENDBRANCH  20   4
ENDBRANCH  12  13
ENDBRANCH   5  12
ENDBRANCH   7   5
BRANCH   9  11
ATOM     11  C   UNL     1      19.127   5.633  20.088  0.00  0.00    +0.138 C 
BRANCH  11   6
ATOM      3  O   UNL     1      16.983   5.454  18.187  0.00  0.00    -0.270 OA
ATOM      6  N   UNL     1      17.806   6.172  20.234  0.00  0.00    -0.309 N 
ATOM     14  C   UNL     1      16.825   6.037  19.256  0.00  0.00    +0.244 C 
ATOM     29  H   UNL     1      17.635   6.737  21.058  0.00  0.00    +0.149 HD
BRANCH  14  17
ATOM     17  C   UNL     1      15.516   6.676  19.549  0.00  0.00    +0.037 A 
ATOM     21  C   UNL     1      14.817   7.329  18.534  0.00  0.00    +0.013 A 
ATOM     22  C   UNL     1      14.986   6.622  20.838  0.00  0.00    +0.013 A 
ATOM     23  C   UNL     1      13.587   7.927  18.808  0.00  0.00    +0.001 A 
ATOM     24  C   UNL     1      13.756   7.219  21.112  0.00  0.00    +0.001 A 
ATOM     25  C   UNL     1      13.056   7.873  20.097  0.00  0.00    +0.000 A 
ENDBRANCH  14  17
ENDBRANCH  11   6
ENDBRANCH   9  11
TORSDOF 8
ENDMDL
MODEL 8
REMARK VINA RESULT:      -5.4     26.231     28.654
REMARK  Name = 75536622
REMARK  9 active torsions:
REMARK  status: ('A' for Active; 'I' for Inactive)
REMARK    1  A    between atoms: O_2  and  C_8
REMARK    2  A    between atoms: O_4  and  C_20
REMARK    3  A    between atoms: O_4  and  C_26
REMARK    4  A    between atoms: N_5  and  C_7
REMARK    5  A    between atoms: N_5  and  C_12
REMARK    6  A    between atoms: N_6  and  C_11
REMARK    7  A    between atoms: C_9  and  C_11
REMARK    8  A    between atoms: C_12  and  C_13
REMARK    9  A    between atoms: C_14  and  C_17
REMARK                            x       y       z     vdW  Elec       q    Type
REMARK                         _______ _______ _______ _____ _____    ______ ____
ROOT
ATOM      1  O   UNL     1      -3.915 -12.209  15.770  0.00  0.00    -0.371 OA
ATOM      7  C   UNL     1      -2.133 -11.201  14.582  0.00  0.00    +0.111 C 
ATOM      8  C   UNL     1      -2.196 -10.563  15.958  0.00  0.00    +0.164 C 
ATOM      9  C   UNL     1      -3.488 -11.097  16.578  0.00  0.00    +0.165 C 
ATOM     10  C   UNL     1      -2.898 -12.496  14.804  0.00  0.00    +0.181 C 
ENDROOT
BRANCH   8   2
ATOM      2  O   UNL     1      -1.082 -11.047  16.714  0.00  0.00    -0.388 OA
ATOM     28  H   UNL     1      -1.219 -10.774  17.637  0.00  0.00    +0.210 HD
ENDBRANCH   8   2
BRANCH   7   5
ATOM      5  N   UNL     1      -2.794 -10.375  13.574  0.00  0.00    -0.305 NA
ATOM     27  H   UNL     1      -3.699 -10.786  13.346  0.00  0.00    +0.123 HD
BRANCH   5  12
ATOM     12  C   UNL     1      -2.000 -10.301  12.354  0.00  0.00    +0.116 C 
BRANCH  12  13
ATOM     13  C   UNL     1      -2.863 -10.315  11.120  0.00  0.00    -0.033 A 
ATOM     15  C   UNL     1      -3.006  -9.157  10.355  0.00  0.00    +0.008 A 
ATOM     16  C   UNL     1      -3.517 -11.486  10.741  0.00  0.00    +0.008 A 
ATOM     18  C   UNL     1      -3.802  -9.172   9.211  0.00  0.00    +0.046 A 
ATOM     19  C   UNL     1      -4.314 -11.502   9.597  0.00  0.00    +0.046 A 
ATOM     20  C   UNL     1      -4.457 -10.344   8.832  0.00  0.00    +0.120 A 
BRANCH  20   4
ATOM      4  O   UNL     1      -5.234 -10.358   7.715  0.00  0.00    -0.495 OA
ATOM     26  C   UNL     1      -6.566 -10.852   7.855  0.00  0.00    +0.277 C 
ENDBRANCH  20   4
ENDBRANCH  12  13
ENDBRANCH   5  12
ENDBRANCH   7   5
BRANCH   9  11
ATOM     11  C   UNL     1      -4.612 -10.072  16.614  0.00  0.00    +0.138 C 
BRANCH  11   6
ATOM      3  O   UNL     1      -7.422 -10.138  16.030  0.00  0.00    -0.270 OA
ATOM      6  N   UNL     1      -5.223  -9.922  15.324  0.00  0.00    -0.309 N 
ATOM     14  C   UNL     1      -6.601  -9.967  15.134  0.00  0.00    +0.244 C 
ATOM     29  H   UNL     1      -4.597  -9.859  14.529  0.00  0.00    +0.149 HD
BRANCH  14  17
ATOM     17  C   UNL     1      -7.074  -9.820  13.733  0.00  0.00    +0.037 A 
ATOM     21  C   UNL     1      -6.206  -9.344  12.750  0.00  0.00    +0.013 A 
ATOM     22  C   UNL     1      -8.385 -10.159  13.400  0.00  0.00    +0.013 A 
ATOM     23  C   UNL     1      -6.649  -9.208  11.435  0.00  0.00    +0.001 A 
ATOM     24  C   UNL     1      -8.829 -10.023  12.085  0.00  0.00    +0.001 A 
ATOM     25  C   UNL     1      -7.960  -9.547  11.102  0.00  0.00    +0.000 A 
ENDBRANCH  14  17
ENDBRANCH  11   6
ENDBRANCH   9  11
TORSDOF 8
ENDMDL
MODEL 9
REMARK VINA RESULT:      -5.3     24.268     26.473
REMARK  Name = 75536622
REMARK  9 active torsions:
REMARK  status: ('A' for Active; 'I' for Inactive)
REMARK    1  A    between atoms: O_2  and  C_8
REMARK    2  A    between atoms: O_4  and  C_20
REMARK    3  A    between atoms: O_4  and  C_26
REMARK    4  A    between atoms: N_5  and  C_7
REMARK    5  A    between atoms: N_5  and  C_12
REMARK    6  A    between atoms: N_6  and  C_11
REMARK    7  A    between atoms: C_9  and  C_11
REMARK    8  A    between atoms: C_12  and  C_13
REMARK    9  A    between atoms: C_14  and  C_17
REMARK                            x       y       z     vdW  Elec       q    Type
REMARK                         _______ _______ _______ _____ _____    ______ ____
ROOT
ATOM      1  O   UNL     1     -12.360   9.766  16.237  0.00  0.00    -0.371 OA
ATOM      7  C   UNL     1     -11.357  11.677  17.211  0.00  0.00    +0.111 C 
ATOM      8  C   UNL     1     -10.299  10.962  16.390  0.00  0.00    +0.164 C 
ATOM      9  C   UNL     1     -10.949   9.640  15.980  0.00  0.00    +0.165 C 
ATOM     10  C   UNL     1     -12.641  11.118  16.619  0.00  0.00    +0.181 C 
ENDROOT
BRANCH   8   2
ATOM      2  O   UNL     1     -10.054  11.744  15.218  0.00  0.00    -0.388 OA
ATOM     28  H   UNL     1     -10.797  11.592  14.609  0.00  0.00    +0.210 HD
ENDBRANCH   8   2
BRANCH   7   5
ATOM      5  N   UNL     1     -11.254  11.345  18.630  0.00  0.00    -0.305 NA
ATOM     27  H   UNL     1     -11.510  10.367  18.765  0.00  0.00    +0.123 HD
BRANCH   5  12
ATOM     12  C   UNL     1     -12.150  12.173  19.428  0.00  0.00    +0.116 C 
BRANCH  12  13
ATOM     13  C   UNL     1     -12.846  11.374  20.499  0.00  0.00    -0.033 A 
ATOM     15  C   UNL     1     -12.108  10.811  21.540  0.00  0.00    +0.008 A 
ATOM     16  C   UNL     1     -14.229  11.201  20.451  0.00  0.00    +0.008 A 
ATOM     18  C   UNL     1     -12.754  10.075  22.533  0.00  0.00    +0.046 A 
ATOM     19  C   UNL     1     -14.875  10.464  21.443  0.00  0.00    +0.046 A 
ATOM     20  C   UNL     1     -14.137   9.901  22.484  0.00  0.00    +0.120 A 
BRANCH  20   4
ATOM      4  O   UNL     1     -14.767   9.183  23.454  0.00  0.00    -0.495 OA
ATOM     26  C   UNL     1     -15.918   9.776  24.056  0.00  0.00    +0.277 C 
ENDBRANCH  20   4
ENDBRANCH  12  13
ENDBRANCH   5  12
ENDBRANCH   7   5
BRANCH   9  11
ATOM     11  C   UNL     1     -10.427   8.440  16.756  0.00  0.00    +0.138 C 
BRANCH  11   6
ATOM      3  O   UNL     1     -10.423   8.644  19.619  0.00  0.00    -0.270 OA
ATOM      6  N   UNL     1     -11.421   7.925  17.652  0.00  0.00    -0.309 N 
ATOM     14  C   UNL     1     -11.338   8.071  19.034  0.00  0.00    +0.244 C 
ATOM     29  H   UNL     1     -12.162   7.369  17.239  0.00  0.00    +0.149 HD
BRANCH  14  17
ATOM     17  C   UNL     1     -12.435   7.458  19.826  0.00  0.00    +0.037 A 
ATOM     21  C   UNL     1     -12.139   6.706  20.962  0.00  0.00    +0.013 A 
ATOM     22  C   UNL     1     -13.762   7.635  19.432  0.00  0.00    +0.013 A 
ATOM     23  C   UNL     1     -13.170   6.132  21.707  0.00  0.00    +0.001 A 
ATOM     24  C   UNL     1     -14.792   7.061  20.176  0.00  0.00    +0.001 A 
ATOM     25  C   UNL     1     -14.496   6.309  21.314  0.00  0.00    +0.000 A 
ENDBRANCH  14  17
ENDBRANCH  11   6
ENDBRANCH   9  11
TORSDOF 8
ENDMDL
MODEL 10
REMARK VINA RESULT:      -5.3     26.219     28.936
REMARK  Name = 75536622
REMARK  9 active torsions:
REMARK  status: ('A' for Active; 'I' for Inactive)
REMARK    1  A    between atoms: O_2  and  C_8
REMARK    2  A    between atoms: O_4  and  C_20
REMARK    3  A    between atoms: O_4  and  C_26
REMARK    4  A    between atoms: N_5  and  C_7
REMARK    5  A    between atoms: N_5  and  C_12
REMARK    6  A    between atoms: N_6  and  C_11
REMARK    7  A    between atoms: C_9  and  C_11
REMARK    8  A    between atoms: C_12  and  C_13
REMARK    9  A    between atoms: C_14  and  C_17
REMARK                            x       y       z     vdW  Elec       q    Type
REMARK                         _______ _______ _______ _____ _____    ______ ____
ROOT
ATOM      1  O   UNL     1      -7.954 -11.719  17.784  0.00  0.00    -0.371 OA
ATOM      7  C   UNL     1      -5.829 -11.945  18.803  0.00  0.00    +0.111 C 
ATOM      8  C   UNL     1      -6.237 -10.485  18.891  0.00  0.00    +0.164 C 
ATOM      9  C   UNL     1      -7.495 -10.377  18.030  0.00  0.00    +0.165 C 
ATOM     10  C   UNL     1      -7.167 -12.627  18.562  0.00  0.00    +0.181 C 
ENDROOT
BRANCH   8   2
ATOM      2  O   UNL     1      -6.578 -10.210  20.253  0.00  0.00    -0.388 OA
ATOM     28  H   UNL     1      -7.531 -10.015  20.278  0.00  0.00    +0.210 HD
ENDBRANCH   8   2
BRANCH   7   5
ATOM      5  N   UNL     1      -4.918 -12.184  17.686  0.00  0.00    -0.305 NA
ATOM     27  H   UNL     1      -4.558 -13.136  17.745  0.00  0.00    +0.123 HD
BRANCH   5  12
ATOM     12  C   UNL     1      -3.791 -11.260  17.723  0.00  0.00    +0.116 C 
BRANCH  12  13
ATOM     13  C   UNL     1      -3.259 -10.969  16.344  0.00  0.00    -0.033 A 
ATOM     15  C   UNL     1      -1.915 -10.635  16.172  0.00  0.00    +0.008 A 
ATOM     16  C   UNL     1      -4.108 -11.035  15.241  0.00  0.00    +0.008 A 
ATOM     18  C   UNL     1      -1.422 -10.368  14.895  0.00  0.00    +0.046 A 
ATOM     19  C   UNL     1      -3.616 -10.768  13.964  0.00  0.00    +0.046 A 
ATOM     20  C   UNL     1      -2.272 -10.434  13.791  0.00  0.00    +0.120 A 
BRANCH  20   4
ATOM      4  O   UNL     1      -1.791 -10.175  12.544  0.00  0.00    -0.495 OA
ATOM     26  C   UNL     1      -2.722 -10.228  11.464  0.00  0.00    +0.277 C 
ENDBRANCH  20   4
ENDBRANCH  12  13
ENDBRANCH   5  12
ENDBRANCH   7   5
BRANCH   9  11
ATOM     11  C   UNL     1      -7.257  -9.699  16.689  0.00  0.00    +0.138 C 
BRANCH  11   6
ATOM      3  O   UNL     1      -9.687 -10.277  15.275  0.00  0.00    -0.270 OA
ATOM      6  N   UNL     1      -8.307  -8.773  16.378  0.00  0.00    -0.309 N 
ATOM     14  C   UNL     1      -9.456  -9.143  15.684  0.00  0.00    +0.244 C 
ATOM     29  H   UNL     1      -8.142  -7.801  16.616  0.00  0.00    +0.149 HD
BRANCH  14  17
ATOM     17  C   UNL     1     -10.437  -8.060  15.418  0.00  0.00    +0.037 A 
ATOM     21  C   UNL     1     -10.488  -6.944  16.254  0.00  0.00    +0.013 A 
ATOM     22  C   UNL     1     -11.307  -8.158  14.332  0.00  0.00    +0.013 A 
ATOM     23  C   UNL     1     -11.408  -5.926  16.003  0.00  0.00    +0.001 A 
ATOM     24  C   UNL     1     -12.227  -7.141  14.080  0.00  0.00    +0.001 A 
ATOM     25  C   UNL     1     -12.278  -6.024  14.916  0.00  0.00    +0.000 A 
ENDBRANCH  14  17
ENDBRANCH  11   6
ENDBRANCH   9  11
TORSDOF 8
ENDMDL
