MODEL 1
REMARK VINA RESULT:      -6.7      0.000      0.000
REMARK  Name = 45784082
REMARK  4 active torsions:
REMARK  status: ('A' for Active; 'I' for Inactive)
REMARK    1  A    between atoms: N_1  and  C_10
REMARK    2  A    between atoms: C_5  and  C_9
REMARK    3  A    between atoms: C_10  and  C_11
REMARK    4  A    between atoms: C_14  and  C_18
REMARK                            x       y       z     vdW  Elec       q    Type
REMARK                         _______ _______ _______ _____ _____    ______ ____
ROOT
ATOM      1  N   UNL     1      11.625   4.471   1.918  0.00  0.00    -0.297 NA
ATOM      5  C   UNL     1      10.259   5.478   3.537  0.00  0.00    +0.070 C 
ATOM      6  C   UNL     1      11.316   6.487   3.055  0.00  0.00    +0.028 C 
ATOM      7  C   UNL     1      10.776   4.114   3.057  0.00  0.00    +0.096 C 
ATOM      8  C   UNL     1      12.378   5.644   2.361  0.00  0.00    +0.085 C 
ENDROOT
BRANCH   5   9
ATOM      2  N   UNL     1      10.160   4.403   5.803  0.00  0.00    -0.340 N 
ATOM      3  N   UNL     1       9.549   6.544   5.716  0.00  0.00    -0.213 NA
ATOM      4  N   UNL     1       9.041   6.802   8.075  0.00  0.00    -0.234 NA
ATOM      9  C   UNL     1       9.978   5.512   5.022  0.00  0.00    +0.114 A 
ATOM     12  C   UNL     1       9.826   4.743   7.086  0.00  0.00    +0.085 A 
ATOM     13  C   UNL     1       9.449   6.079   7.004  0.00  0.00    +0.178 A 
ATOM     16  C   UNL     1       9.811   4.047   8.290  0.00  0.00    +0.031 A 
ATOM     21  C   UNL     1       9.394   4.776   9.400  0.00  0.00    +0.022 A 
ATOM     22  C   UNL     1       9.031   6.109   9.240  0.00  0.00    +0.113 A 
ATOM     23  H   UNL     1      10.484   3.497   5.492  0.00  0.00    +0.167 HD
ENDBRANCH   5   9
BRANCH   1  10
ATOM     10  C   UNL     1      12.494   3.377   1.509  0.00  0.00    +0.119 C 
BRANCH  10  11
ATOM     11  C   UNL     1      13.266   3.711   0.261  0.00  0.00    -0.030 A 
ATOM     14  C   UNL     1      14.656   3.825   0.286  0.00  0.00    -0.046 A 
ATOM     15  C   UNL     1      12.572   3.907  -0.932  0.00  0.00    +0.005 A 
ATOM     17  C   UNL     1      15.351   4.136  -0.882  0.00  0.00    +0.003 A 
ATOM     18  C   UNL     1      15.421   3.619   1.552  0.00  0.00    +0.044 C 
ATOM     19  C   UNL     1      13.267   4.218  -2.101  0.00  0.00    +0.000 A 
ATOM     20  C   UNL     1      14.657   4.332  -2.076  0.00  0.00    +0.000 A 
ENDBRANCH  10  11
ENDBRANCH   1  10
TORSDOF 3
ENDMDL
MODEL 2
REMARK VINA RESULT:      -6.7     22.926     26.013
REMARK  Name = 45784082
REMARK  4 active torsions:
REMARK  status: ('A' for Active; 'I' for Inactive)
REMARK    1  A    between atoms: N_1  and  C_10
REMARK    2  A    between atoms: C_5  and  C_9
REMARK    3  A    between atoms: C_10  and  C_11
REMARK    4  A    between atoms: C_14  and  C_18
REMARK                            x       y       z     vdW  Elec       q    Type
REMARK                         _______ _______ _______ _____ _____    ______ ____
ROOT
ATOM      1  N   UNL     1      -4.559 -10.433  14.392  0.00  0.00    -0.297 NA
ATOM      5  C   UNL     1      -5.696  -9.592  16.263  0.00  0.00    +0.070 C 
ATOM      6  C   UNL     1      -4.402 -10.290  16.717  0.00  0.00    +0.028 C 
ATOM      7  C   UNL     1      -5.912 -10.074  14.821  0.00  0.00    +0.096 C 
ATOM      8  C   UNL     1      -3.978 -11.145  15.529  0.00  0.00    +0.085 C 
ENDROOT
BRANCH   5   9
ATOM      2  N   UNL     1      -8.104  -9.253  16.882  0.00  0.00    -0.340 N 
ATOM      3  N   UNL     1      -6.933 -10.583  18.231  0.00  0.00    -0.213 NA
ATOM      4  N   UNL     1      -8.733 -11.093  19.778  0.00  0.00    -0.234 NA
ATOM      9  C   UNL     1      -6.894  -9.833  17.151  0.00  0.00    +0.114 A 
ATOM     12  C   UNL     1      -8.981  -9.656  17.853  0.00  0.00    +0.085 A 
ATOM     13  C   UNL     1      -8.226 -10.481  18.679  0.00  0.00    +0.178 A 
ATOM     16  C   UNL     1     -10.325  -9.397  18.099  0.00  0.00    +0.031 A 
ATOM     21  C   UNL     1     -10.859 -10.019  19.225  0.00  0.00    +0.022 A 
ATOM     22  C   UNL     1     -10.042 -10.831  20.004  0.00  0.00    +0.113 A 
ATOM     23  H   UNL     1      -8.315  -8.638  16.106  0.00  0.00    +0.167 HD
ENDBRANCH   5   9
BRANCH   1  10
ATOM     10  C   UNL     1      -4.556 -11.234  13.177  0.00  0.00    +0.119 C 
BRANCH  10  11
ATOM     11  C   UNL     1      -4.341 -10.391  11.949  0.00  0.00    -0.030 A 
ATOM     14  C   UNL     1      -3.057 -10.153  11.458  0.00  0.00    -0.046 A 
ATOM     15  C   UNL     1      -5.447  -9.844  11.301  0.00  0.00    +0.005 A 
ATOM     17  C   UNL     1      -2.880  -9.368  10.318  0.00  0.00    +0.003 A 
ATOM     18  C   UNL     1      -1.857 -10.728  12.135  0.00  0.00    +0.044 C 
ATOM     19  C   UNL     1      -5.271  -9.059  10.161  0.00  0.00    +0.000 A 
ATOM     20  C   UNL     1      -3.988  -8.821   9.670  0.00  0.00    +0.000 A 
ENDBRANCH  10  11
ENDBRANCH   1  10
TORSDOF 3
ENDMDL
MODEL 3
REMARK VINA RESULT:      -6.6      1.927      8.452
REMARK  Name = 45784082
REMARK  4 active torsions:
REMARK  status: ('A' for Active; 'I' for Inactive)
REMARK    1  A    between atoms: N_1  and  C_10
REMARK    2  A    between atoms: C_5  and  C_9
REMARK    3  A    between atoms: C_10  and  C_11
REMARK    4  A    between atoms: C_14  and  C_18
REMARK                            x       y       z     vdW  Elec       q    Type
REMARK                         _______ _______ _______ _____ _____    ______ ____
ROOT
ATOM      1  N   UNL     1      10.673   5.578   4.125  0.00  0.00    -0.297 NA
ATOM      5  C   UNL     1      11.784   4.525   2.347  0.00  0.00    +0.070 C 
ATOM      6  C   UNL     1      12.431   5.894   2.619  0.00  0.00    +0.028 C 
ATOM      7  C   UNL     1      10.436   4.579   3.080  0.00  0.00    +0.096 C 
ATOM      8  C   UNL     1      11.410   6.652   3.459  0.00  0.00    +0.085 C 
ENDROOT
BRANCH   5   9
ATOM      2  N   UNL     1      12.699   3.652   0.179  0.00  0.00    -0.340 N 
ATOM      3  N   UNL     1      10.566   4.293   0.145  0.00  0.00    -0.213 NA
ATOM      4  N   UNL     1      10.143   3.784  -2.190  0.00  0.00    -0.234 NA
ATOM      9  C   UNL     1      11.646   4.167   0.886  0.00  0.00    +0.114 A 
ATOM     12  C   UNL     1      12.270   3.433  -1.101  0.00  0.00    +0.085 A 
ATOM     13  C   UNL     1      10.941   3.840  -1.096  0.00  0.00    +0.178 A 
ATOM     16  C   UNL     1      12.882   2.932  -2.245  0.00  0.00    +0.031 A 
ATOM     21  C   UNL     1      12.075   2.868  -3.379  0.00  0.00    +0.022 A 
ATOM     22  C   UNL     1      10.754   3.295  -3.296  0.00  0.00    +0.113 A 
ATOM     23  H   UNL     1      13.627   3.466   0.537  0.00  0.00    +0.167 HD
ENDBRANCH   5   9
BRANCH   1  10
ATOM     10  C   UNL     1       9.438   6.048   4.735  0.00  0.00    +0.119 C 
BRANCH  10  11
ATOM     11  C   UNL     1       9.429   5.829   6.224  0.00  0.00    -0.030 A 
ATOM     14  C   UNL     1       8.969   6.819   7.092  0.00  0.00    -0.046 A 
ATOM     15  C   UNL     1       9.889   4.615   6.732  0.00  0.00    +0.005 A 
ATOM     17  C   UNL     1       8.970   6.594   8.469  0.00  0.00    +0.003 A 
ATOM     18  C   UNL     1       8.471   8.127   6.572  0.00  0.00    +0.044 C 
ATOM     19  C   UNL     1       9.890   4.390   8.108  0.00  0.00    +0.000 A 
ATOM     20  C   UNL     1       9.431   5.379   8.977  0.00  0.00    +0.000 A 
ENDBRANCH  10  11
ENDBRANCH   1  10
TORSDOF 3
ENDMDL
MODEL 4
REMARK VINA RESULT:      -6.6     22.393     25.390
REMARK  Name = 45784082
REMARK  4 active torsions:
REMARK  status: ('A' for Active; 'I' for Inactive)
REMARK    1  A    between atoms: N_1  and  C_10
REMARK    2  A    between atoms: C_5  and  C_9
REMARK    3  A    between atoms: C_10  and  C_11
REMARK    4  A    between atoms: C_14  and  C_18
REMARK                            x       y       z     vdW  Elec       q    Type
REMARK                         _______ _______ _______ _____ _____    ______ ____
ROOT
ATOM      1  N   UNL     1      -2.181 -10.849  13.833  0.00  0.00    -0.297 NA
ATOM      5  C   UNL     1      -3.548 -10.426  15.691  0.00  0.00    +0.070 C 
ATOM      6  C   UNL     1      -2.107 -10.690  16.162  0.00  0.00    +0.028 C 
ATOM      7  C   UNL     1      -3.584 -10.936  14.243  0.00  0.00    +0.096 C 
ATOM      8  C   UNL     1      -1.421 -11.356  14.975  0.00  0.00    +0.085 C 
ENDROOT
BRANCH   5   9
ATOM      2  N   UNL     1      -4.727 -10.724  17.887  0.00  0.00    -0.340 N 
ATOM      3  N   UNL     1      -5.540 -11.902  16.180  0.00  0.00    -0.213 NA
ATOM      4  N   UNL     1      -7.330 -12.994  17.402  0.00  0.00    -0.234 NA
ATOM      9  C   UNL     1      -4.622 -11.040  16.559  0.00  0.00    +0.114 A 
ATOM     12  C   UNL     1      -5.782 -11.430  18.397  0.00  0.00    +0.085 A 
ATOM     13  C   UNL     1      -6.269 -12.155  17.315  0.00  0.00    +0.178 A 
ATOM     16  C   UNL     1      -6.357 -11.517  19.660  0.00  0.00    +0.031 A 
ATOM     21  C   UNL     1      -7.448 -12.376  19.766  0.00  0.00    +0.022 A 
ATOM     22  C   UNL     1      -7.878 -13.068  18.639  0.00  0.00    +0.113 A 
ATOM     23  H   UNL     1      -4.134 -10.085  18.400  0.00  0.00    +0.167 HD
ENDBRANCH   5   9
BRANCH   1  10
ATOM     10  C   UNL     1      -1.911 -11.597  12.613  0.00  0.00    +0.119 C 
BRANCH  10  11
ATOM     11  C   UNL     1      -2.686 -11.056  11.441  0.00  0.00    -0.030 A 
ATOM     14  C   UNL     1      -3.530 -11.880  10.697  0.00  0.00    -0.046 A 
ATOM     15  C   UNL     1      -2.551  -9.710  11.104  0.00  0.00    +0.005 A 
ATOM     17  C   UNL     1      -4.238 -11.358   9.614  0.00  0.00    +0.003 A 
ATOM     18  C   UNL     1      -3.690 -13.325  11.039  0.00  0.00    +0.044 C 
ATOM     19  C   UNL     1      -3.260  -9.187  10.022  0.00  0.00    +0.000 A 
ATOM     20  C   UNL     1      -4.103 -10.011   9.277  0.00  0.00    +0.000 A 
ENDBRANCH  10  11
ENDBRANCH   1  10
TORSDOF 3
ENDMDL
MODEL 5
REMARK VINA RESULT:      -6.5     17.066     19.999
REMARK  Name = 45784082
REMARK  4 active torsions:
REMARK  status: ('A' for Active; 'I' for Inactive)
REMARK    1  A    between atoms: N_1  and  C_10
REMARK    2  A    between atoms: C_5  and  C_9
REMARK    3  A    between atoms: C_10  and  C_11
REMARK    4  A    between atoms: C_14  and  C_18
REMARK                            x       y       z     vdW  Elec       q    Type
REMARK                         _______ _______ _______ _____ _____    ______ ____
ROOT
ATOM      1  N   UNL     1      21.739   4.794  21.233  0.00  0.00    -0.297 NA
ATOM      5  C   UNL     1      20.062   6.348  20.712  0.00  0.00    +0.070 C 
ATOM      6  C   UNL     1      20.626   6.649  22.111  0.00  0.00    +0.028 C 
ATOM      7  C   UNL     1      20.545   4.925  20.395  0.00  0.00    +0.096 C 
ATOM      8  C   UNL     1      21.365   5.381  22.519  0.00  0.00    +0.085 C 
ENDROOT
BRANCH   5   9
ATOM      2  N   UNL     1      17.807   6.957  21.629  0.00  0.00    -0.340 N 
ATOM      3  N   UNL     1      17.836   6.243  19.519  0.00  0.00    -0.213 NA
ATOM      4  N   UNL     1      15.450   6.423  19.113  0.00  0.00    -0.234 NA
ATOM      9  C   UNL     1      18.565   6.504  20.583  0.00  0.00    +0.114 A 
ATOM     12  C   UNL     1      16.504   6.990  21.211  0.00  0.00    +0.085 A 
ATOM     13  C   UNL     1      16.550   6.540  19.896  0.00  0.00    +0.178 A 
ATOM     16  C   UNL     1      15.309   7.355  21.822  0.00  0.00    +0.031 A 
ATOM     21  C   UNL     1      14.170   7.240  21.030  0.00  0.00    +0.022 A 
ATOM     22  C   UNL     1      14.295   6.782  19.723  0.00  0.00    +0.113 A 
ATOM     23  H   UNL     1      18.145   7.222  22.545  0.00  0.00    +0.167 HD
ENDBRANCH   5   9
BRANCH   1  10
ATOM     10  C   UNL     1      22.178   3.412  21.361  0.00  0.00    +0.119 C 
BRANCH  10  11
ATOM     11  C   UNL     1      23.632   3.250  21.009  0.00  0.00    -0.030 A 
ATOM     14  C   UNL     1      24.443   2.350  21.701  0.00  0.00    -0.046 A 
ATOM     15  C   UNL     1      24.167   4.016  19.973  0.00  0.00    +0.005 A 
ATOM     17  C   UNL     1      25.788   2.217  21.357  0.00  0.00    +0.003 A 
ATOM     18  C   UNL     1      23.893   1.519  22.813  0.00  0.00    +0.044 C 
ATOM     19  C   UNL     1      25.512   3.882  19.630  0.00  0.00    +0.000 A 
ATOM     20  C   UNL     1      26.323   2.983  20.321  0.00  0.00    +0.000 A 
ENDBRANCH  10  11
ENDBRANCH   1  10
TORSDOF 3
ENDMDL
MODEL 6
REMARK VINA RESULT:      -6.5     29.312     33.559
REMARK  Name = 45784082
REMARK  4 active torsions:
REMARK  status: ('A' for Active; 'I' for Inactive)
REMARK    1  A    between atoms: N_1  and  C_10
REMARK    2  A    between atoms: C_5  and  C_9
REMARK    3  A    between atoms: C_10  and  C_11
REMARK    4  A    between atoms: C_14  and  C_18
REMARK                            x       y       z     vdW  Elec       q    Type
REMARK                         _______ _______ _______ _____ _____    ______ ____
ROOT
ATOM      1  N   UNL     1     -15.165   5.676  22.206  0.00  0.00    -0.297 NA
ATOM      5  C   UNL     1     -15.731   3.715  23.362  0.00  0.00    +0.070 C 
ATOM      6  C   UNL     1     -16.983   4.287  22.675  0.00  0.00    +0.028 C 
ATOM      7  C   UNL     1     -14.716   4.866  23.341  0.00  0.00    +0.096 C 
ATOM      8  C   UNL     1     -16.622   5.727  22.332  0.00  0.00    +0.085 C 
ENDROOT
BRANCH   5   9
ATOM      2  N   UNL     1     -15.807   3.943  25.861  0.00  0.00    -0.340 N 
ATOM      3  N   UNL     1     -16.327   1.934  25.053  0.00  0.00    -0.213 NA
ATOM      4  N   UNL     1     -16.747   0.858  27.188  0.00  0.00    -0.234 NA
ATOM      9  C   UNL     1     -15.965   3.161  24.749  0.00  0.00    +0.114 A 
ATOM     12  C   UNL     1     -16.085   3.169  26.954  0.00  0.00    +0.085 A 
ATOM     13  C   UNL     1     -16.405   1.924  26.423  0.00  0.00    +0.178 A 
ATOM     16  C   UNL     1     -16.094   3.410  28.323  0.00  0.00    +0.031 A 
ATOM     21  C   UNL     1     -16.443   2.323  29.122  0.00  0.00    +0.022 A 
ATOM     22  C   UNL     1     -16.750   1.108  28.519  0.00  0.00    +0.113 A 
ATOM     23  H   UNL     1     -15.534   4.918  25.875  0.00  0.00    +0.167 HD
ENDBRANCH   5   9
BRANCH   1  10
ATOM     10  C   UNL     1     -14.563   7.001  22.196  0.00  0.00    +0.119 C 
BRANCH  10  11
ATOM     11  C   UNL     1     -13.669   7.202  21.002  0.00  0.00    -0.030 A 
ATOM     14  C   UNL     1     -14.158   7.772  19.827  0.00  0.00    -0.046 A 
ATOM     15  C   UNL     1     -12.334   6.808  21.082  0.00  0.00    +0.005 A 
ATOM     17  C   UNL     1     -13.312   7.948  18.732  0.00  0.00    +0.003 A 
ATOM     18  C   UNL     1     -15.584   8.202  19.717  0.00  0.00    +0.044 C 
ATOM     19  C   UNL     1     -11.487   6.984  19.988  0.00  0.00    +0.000 A 
ATOM     20  C   UNL     1     -11.976   7.554  18.813  0.00  0.00    +0.000 A 
ENDBRANCH  10  11
ENDBRANCH   1  10
TORSDOF 3
ENDMDL
MODEL 7
REMARK VINA RESULT:      -6.4     27.536     31.864
REMARK  Name = 45784082
REMARK  4 active torsions:
REMARK  status: ('A' for Active; 'I' for Inactive)
REMARK    1  A    between atoms: N_1  and  C_10
REMARK    2  A    between atoms: C_5  and  C_9
REMARK    3  A    between atoms: C_10  and  C_11
REMARK    4  A    between atoms: C_14  and  C_18
REMARK                            x       y       z     vdW  Elec       q    Type
REMARK                         _______ _______ _______ _____ _____    ______ ____
ROOT
ATOM      1  N   UNL     1     -13.601   7.092  20.988  0.00  0.00    -0.297 NA
ATOM      5  C   UNL     1     -15.070   5.389  21.653  0.00  0.00    +0.070 C 
ATOM      6  C   UNL     1     -15.868   6.671  21.358  0.00  0.00    +0.028 C 
ATOM      7  C   UNL     1     -13.613   5.857  21.775  0.00  0.00    +0.096 C 
ATOM      8  C   UNL     1     -14.832   7.789  21.359  0.00  0.00    +0.085 C 
ENDROOT
BRANCH   5   9
ATOM      2  N   UNL     1     -15.793   5.233  24.051  0.00  0.00    -0.340 N 
ATOM      3  N   UNL     1     -15.760   3.314  22.920  0.00  0.00    -0.213 NA
ATOM      4  N   UNL     1     -16.509   1.888  24.736  0.00  0.00    -0.234 NA
ATOM      9  C   UNL     1     -15.542   4.610  22.858  0.00  0.00    +0.114 A 
ATOM     12  C   UNL     1     -16.199   4.275  24.940  0.00  0.00    +0.085 A 
ATOM     13  C   UNL     1     -16.170   3.091  24.211  0.00  0.00    +0.178 A 
ATOM     16  C   UNL     1     -16.584   4.307  26.276  0.00  0.00    +0.031 A 
ATOM     21  C   UNL     1     -16.935   3.078  26.830  0.00  0.00    +0.022 A 
ATOM     22  C   UNL     1     -16.880   1.937  26.038  0.00  0.00    +0.113 A 
ATOM     23  H   UNL     1     -15.697   6.221  24.243  0.00  0.00    +0.167 HD
ENDBRANCH   5   9
BRANCH   1  10
ATOM     10  C   UNL     1     -12.413   7.897  21.235  0.00  0.00    +0.119 C 
BRANCH  10  11
ATOM     11  C   UNL     1     -11.723   8.286  19.956  0.00  0.00    -0.030 A 
ATOM     14  C   UNL     1     -11.386   9.615  19.698  0.00  0.00    -0.046 A 
ATOM     15  C   UNL     1     -11.422   7.296  19.021  0.00  0.00    +0.005 A 
ATOM     17  C   UNL     1     -10.747   9.953  18.505  0.00  0.00    +0.003 A 
ATOM     18  C   UNL     1     -11.699  10.692  20.683  0.00  0.00    +0.044 C 
ATOM     19  C   UNL     1     -10.783   7.634  17.828  0.00  0.00    +0.000 A 
ATOM     20  C   UNL     1     -10.445   8.962  17.570  0.00  0.00    +0.000 A 
ENDBRANCH  10  11
ENDBRANCH   1  10
TORSDOF 3
ENDMDL
MODEL 8
REMARK VINA RESULT:      -6.3     26.229     28.651
REMARK  Name = 45784082
REMARK  4 active torsions:
REMARK  status: ('A' for Active; 'I' for Inactive)
REMARK    1  A    between atoms: N_1  and  C_10
REMARK    2  A    between atoms: C_5  and  C_9
REMARK    3  A    between atoms: C_10  and  C_11
REMARK    4  A    between atoms: C_14  and  C_18
REMARK                            x       y       z     vdW  Elec       q    Type
REMARK                         _______ _______ _______ _____ _____    ______ ____
ROOT
ATOM      1  N   UNL     1      -9.372  -8.977  16.859  0.00  0.00    -0.297 NA
ATOM      5  C   UNL     1     -10.980  -7.278  16.698  0.00  0.00    +0.070 C 
ATOM      6  C   UNL     1     -11.607  -8.519  17.357  0.00  0.00    +0.028 C 
ATOM      7  C   UNL     1      -9.681  -7.790  16.059  0.00  0.00    +0.096 C 
ATOM      8  C   UNL     1     -10.653  -9.662  17.032  0.00  0.00    +0.085 C 
ENDROOT
BRANCH   5   9
ATOM      2  N   UNL     1     -11.378  -5.602  14.873  0.00  0.00    -0.340 N 
ATOM      3  N   UNL     1     -13.168  -6.742  15.552  0.00  0.00    -0.213 NA
ATOM      4  N   UNL     1     -14.767  -5.701  14.052  0.00  0.00    -0.234 NA
ATOM      9  C   UNL     1     -11.876  -6.558  15.717  0.00  0.00    +0.114 A 
ATOM     12  C   UNL     1     -12.419  -5.139  14.115  0.00  0.00    +0.085 A 
ATOM     13  C   UNL     1     -13.520  -5.863  14.558  0.00  0.00    +0.178 A 
ATOM     16  C   UNL     1     -12.523  -4.185  13.108  0.00  0.00    +0.031 A 
ATOM     21  C   UNL     1     -13.799  -4.006  12.579  0.00  0.00    +0.022 A 
ATOM     22  C   UNL     1     -14.852  -4.768  13.074  0.00  0.00    +0.113 A 
ATOM     23  H   UNL     1     -10.417  -5.293  14.817  0.00  0.00    +0.167 HD
ENDBRANCH   5   9
BRANCH   1  10
ATOM     10  C   UNL     1      -8.370  -9.826  16.229  0.00  0.00    +0.119 C 
BRANCH  10  11
ATOM     11  C   UNL     1      -7.256 -10.178  17.178  0.00  0.00    -0.030 A 
ATOM     14  C   UNL     1      -5.937 -10.265  16.735  0.00  0.00    -0.046 A 
ATOM     15  C   UNL     1      -7.559 -10.419  18.518  0.00  0.00    +0.005 A 
ATOM     17  C   UNL     1      -4.920 -10.593  17.632  0.00  0.00    +0.003 A 
ATOM     18  C   UNL     1      -5.588 -10.011  15.305  0.00  0.00    +0.044 C 
ATOM     19  C   UNL     1      -6.542 -10.747  19.415  0.00  0.00    +0.000 A 
ATOM     20  C   UNL     1      -5.223 -10.834  18.972  0.00  0.00    +0.000 A 
ENDBRANCH  10  11
ENDBRANCH   1  10
TORSDOF 3
ENDMDL
MODEL 9
REMARK VINA RESULT:      -6.1     22.708     24.582
REMARK  Name = 45784082
REMARK  4 active torsions:
REMARK  status: ('A' for Active; 'I' for Inactive)
REMARK    1  A    between atoms: N_1  and  C_10
REMARK    2  A    between atoms: C_5  and  C_9
REMARK    3  A    between atoms: C_10  and  C_11
REMARK    4  A    between atoms: C_14  and  C_18
REMARK                            x       y       z     vdW  Elec       q    Type
REMARK                         _______ _______ _______ _____ _____    ______ ____
ROOT
ATOM      1  N   UNL     1      -4.562  -9.867  11.870  0.00  0.00    -0.297 NA
ATOM      5  C   UNL     1      -4.418  -9.419   9.572  0.00  0.00    +0.070 C 
ATOM      6  C   UNL     1      -5.241  -8.316  10.261  0.00  0.00    +0.028 C 
ATOM      7  C   UNL     1      -4.366 -10.562  10.595  0.00  0.00    +0.096 C 
ATOM      8  C   UNL     1      -5.631  -8.902  11.613  0.00  0.00    +0.085 C 
ENDROOT
BRANCH   5   9
ATOM      2  N   UNL     1      -5.840  -9.089   7.530  0.00  0.00    -0.340 N 
ATOM      3  N   UNL     1      -4.636 -10.962   7.583  0.00  0.00    -0.213 NA
ATOM      4  N   UNL     1      -5.363 -11.841   5.440  0.00  0.00    -0.234 NA
ATOM      9  C   UNL     1      -4.945  -9.857   8.225  0.00  0.00    +0.114 A 
ATOM     12  C   UNL     1      -6.126  -9.743   6.363  0.00  0.00    +0.085 A 
ATOM     13  C   UNL     1      -5.365 -10.905   6.421  0.00  0.00    +0.178 A 
ATOM     16  C   UNL     1      -6.950  -9.456   5.280  0.00  0.00    +0.031 A 
ATOM     21  C   UNL     1      -6.959 -10.409   4.263  0.00  0.00    +0.022 A 
ATOM     22  C   UNL     1      -6.171 -11.547   4.393  0.00  0.00    +0.113 A 
ATOM     23  H   UNL     1      -6.222  -8.199   7.824  0.00  0.00    +0.167 HD
ENDBRANCH   5   9
BRANCH   1  10
ATOM     10  C   UNL     1      -4.890 -10.780  12.955  0.00  0.00    +0.119 C 
BRANCH  10  11
ATOM     11  C   UNL     1      -3.885 -10.705  14.073  0.00  0.00    -0.030 A 
ATOM     14  C   UNL     1      -4.278 -10.860  15.403  0.00  0.00    -0.046 A 
ATOM     15  C   UNL     1      -2.544 -10.478  13.764  0.00  0.00    +0.005 A 
ATOM     17  C   UNL     1      -3.329 -10.787  16.423  0.00  0.00    +0.003 A 
ATOM     18  C   UNL     1      -5.707 -11.104  15.758  0.00  0.00    +0.044 C 
ATOM     19  C   UNL     1      -1.596 -10.405  14.784  0.00  0.00    +0.000 A 
ATOM     20  C   UNL     1      -1.988 -10.559  16.113  0.00  0.00    +0.000 A 
ENDBRANCH  10  11
ENDBRANCH   1  10
TORSDOF 3
ENDMDL
MODEL 10
REMARK VINA RESULT:      -6.0     26.183     28.585
REMARK  Name = 45784082
REMARK  4 active torsions:
REMARK  status: ('A' for Active; 'I' for Inactive)
REMARK    1  A    between atoms: N_1  and  C_10
REMARK    2  A    between atoms: C_5  and  C_9
REMARK    3  A    between atoms: C_10  and  C_11
REMARK    4  A    between atoms: C_14  and  C_18
REMARK                            x       y       z     vdW  Elec       q    Type
REMARK                         _______ _______ _______ _____ _____    ______ ____
ROOT
ATOM      1  N   UNL     1      -8.577  -9.904  17.388  0.00  0.00    -0.297 NA
ATOM      5  C   UNL     1      -9.967  -8.019  17.269  0.00  0.00    +0.070 C 
ATOM      6  C   UNL     1     -10.613  -9.077  18.180  0.00  0.00    +0.028 C 
ATOM      7  C   UNL     1      -8.878  -8.780  16.499  0.00  0.00    +0.096 C 
ATOM      8  C   UNL     1      -9.881 -10.374  17.858  0.00  0.00    +0.085 C 
ENDROOT
BRANCH   5   9
ATOM      2  N   UNL     1     -12.270  -7.570  16.376  0.00  0.00    -0.340 N 
ATOM      3  N   UNL     1     -10.630  -6.350  15.490  0.00  0.00    -0.213 NA
ATOM      4  N   UNL     1     -12.010  -5.072  13.956  0.00  0.00    -0.234 NA
ATOM      9  C   UNL     1     -10.930  -7.290  16.360  0.00  0.00    +0.114 A 
ATOM     12  C   UNL     1     -12.873  -6.758  15.455  0.00  0.00    +0.085 A 
ATOM     13  C   UNL     1     -11.830  -6.010  14.918  0.00  0.00    +0.178 A 
ATOM     16  C   UNL     1     -14.188  -6.593  15.036  0.00  0.00    +0.031 A 
ATOM     21  C   UNL     1     -14.388  -5.633  14.047  0.00  0.00    +0.022 A 
ATOM     22  C   UNL     1     -13.296  -4.924  13.558  0.00  0.00    +0.113 A 
ATOM     23  H   UNL     1     -12.733  -8.253  16.962  0.00  0.00    +0.167 HD
ENDBRANCH   5   9
BRANCH   1  10
ATOM     10  C   UNL     1      -7.818 -10.952  16.722  0.00  0.00    +0.119 C 
BRANCH  10  11
ATOM     11  C   UNL     1      -6.464 -11.149  17.349  0.00  0.00    -0.030 A 
ATOM     14  C   UNL     1      -5.299 -10.796  16.667  0.00  0.00    -0.046 A 
ATOM     15  C   UNL     1      -6.384 -11.694  18.630  0.00  0.00    +0.005 A 
ATOM     17  C   UNL     1      -4.055 -10.988  17.267  0.00  0.00    +0.003 A 
ATOM     18  C   UNL     1      -5.360 -10.211  15.294  0.00  0.00    +0.044 C 
ATOM     19  C   UNL     1      -5.140 -11.886  19.230  0.00  0.00    +0.000 A 
ATOM     20  C   UNL     1      -3.975 -11.533  18.549  0.00  0.00    +0.000 A 
ENDBRANCH  10  11
ENDBRANCH   1  10
TORSDOF 3
ENDMDL
