MODEL 1
REMARK VINA RESULT:      -7.0      0.000      0.000
REMARK  Name = 11883009
REMARK  13 active torsions:
REMARK  status: ('A' for Active; 'I' for Inactive)
REMARK    1  A    between atoms: O_2  and  C_15
REMARK    2  A    between atoms: O_3  and  C_20
REMARK    3  A    between atoms: N_8  and  C_26
REMARK    4  A    between atoms: C_10  and  C_18
REMARK    5  A    between atoms: C_12  and  C_20
REMARK    6  A    between atoms: C_12  and  C_21
REMARK    7  A    between atoms: C_13  and  C_23
REMARK    8  A    between atoms: C_23  and  C_24
REMARK    9  A    between atoms: C_26  and  C_29
REMARK   10  A    between atoms: C_27  and  C_28
REMARK   11  A    between atoms: C_28  and  C_30
REMARK   12  A    between atoms: C_28  and  C_31
REMARK   13  A    between atoms: C_28  and  C_32
REMARK                            x       y       z     vdW  Elec       q    Type
REMARK                         _______ _______ _______ _____ _____    ______ ____
ROOT
ATOM      1  S   UNL     1      18.017   6.322  20.368  0.00  0.00    -0.057 S 
ATOM      5  O   UNL     1      20.704   8.890  23.145  0.00  0.00    -0.275 OA
ATOM      7  N   UNL     1      18.145   8.504  21.749  0.00  0.00    -0.229 NA
ATOM      9  N   UNL     1      20.094   7.087  21.772  0.00  0.00    -0.264 N 
ATOM     10  C   UNL     1      14.716   9.481  20.281  0.00  0.00    -0.019 C 
ATOM     11  C   UNL     1      14.247   7.964  20.161  0.00  0.00    +0.011 C 
ATOM     12  C   UNL     1      12.857   7.697  19.464  0.00  0.00    +0.021 C 
ATOM     13  C   UNL     1      15.882   9.552  21.371  0.00  0.00    +0.054 C 
ATOM     14  C   UNL     1      13.530  10.350  20.775  0.00  0.00    +0.010 C 
ATOM     15  C   UNL     1      11.798   8.679  20.041  0.00  0.00    +0.123 C 
ATOM     16  C   UNL     1      15.396   7.053  19.637  0.00  0.00    +0.049 C 
ATOM     17  C   UNL     1      12.242  10.137  19.993  0.00  0.00    +0.032 C 
ATOM     18  C   UNL     1      15.230  10.059  18.939  0.00  0.00    +0.012 C 
ATOM     19  C   UNL     1      16.901   8.465  21.147  0.00  0.00    +0.058 A 
ATOM     21  C   UNL     1      12.386   6.255  19.808  0.00  0.00    +0.016 C 
ATOM     22  C   UNL     1      16.656   7.345  20.380  0.00  0.00    +0.015 A 
ATOM     25  C   UNL     1      18.821   7.431  21.403  0.00  0.00    +0.165 A 
ATOM     27  C   UNL     1      20.963   7.814  22.610  0.00  0.00    +0.224 C 
ATOM     39  H   UNL     1      20.417   6.207  21.384  0.00  0.00    +0.157 HD
ENDROOT
BRANCH  27  28
ATOM     28  C   UNL     1      22.341   7.136  22.820  0.00  0.00    +0.039 C 
ATOM     30  C   UNL     1      23.007   7.710  24.084  0.00  0.00    +0.020 C 
ATOM     31  C   UNL     1      23.258   7.415  21.619  0.00  0.00    +0.020 C 
ATOM     32  C   UNL     1      22.164   5.622  23.012  0.00  0.00    +0.020 C 
ENDBRANCH  27  28
BRANCH  15   2
ATOM      2  O   UNL     1      10.561   8.552  19.341  0.00  0.00    -0.391 OA
ATOM     36  H   UNL     1      10.704   8.867  18.432  0.00  0.00    +0.210 HD
ENDBRANCH  15   2
BRANCH  12  20
ATOM     20  C   UNL     1      12.890   7.767  17.921  0.00  0.00    +0.165 C 
BRANCH  20   3
ATOM      3  O   UNL     1      11.843   6.960  17.431  0.00  0.00    -0.394 OA
ATOM     37  H   UNL     1      12.057   6.038  17.656  0.00  0.00    +0.209 HD
ENDBRANCH  20   3
ENDBRANCH  12  20
BRANCH  13  23
ATOM     23  C   UNL     1      16.547  10.928  21.504  0.00  0.00    +0.106 C 
BRANCH  23  24
ATOM      4  O   UNL     1      17.058  12.360  23.387  0.00  0.00    -0.276 OA
ATOM      8  N   UNL     1      15.119  11.078  23.413  0.00  0.00    -0.308 N 
ATOM     24  C   UNL     1      16.301  11.549  22.860  0.00  0.00    +0.214 C 
ATOM     38  H   UNL     1      14.553  10.417  22.888  0.00  0.00    +0.149 HD
BRANCH   8  26
ATOM     26  C   UNL     1      14.632  11.497  24.707  0.00  0.00    +0.178 C 
BRANCH  26  29
ATOM      6  O   UNL     1      12.433  11.757  25.703  0.00  0.00    -0.466 OA
ATOM     29  C   UNL     1      13.197  11.915  24.592  0.00  0.00    +0.122 A 
ATOM     33  C   UNL     1      12.453  12.446  23.564  0.00  0.00    +0.046 A 
ATOM     34  C   UNL     1      11.146  12.625  24.077  0.00  0.00    +0.041 A 
ATOM     35  C   UNL     1      11.186  12.191  25.382  0.00  0.00    +0.195 A 
ENDBRANCH  26  29
ENDBRANCH   8  26
ENDBRANCH  23  24
ENDBRANCH  13  23
TORSDOF 8
ENDMDL
MODEL 2
REMARK VINA RESULT:      -6.8     16.214     20.117
REMARK  Name = 11883009
REMARK  13 active torsions:
REMARK  status: ('A' for Active; 'I' for Inactive)
REMARK    1  A    between atoms: O_2  and  C_15
REMARK    2  A    between atoms: O_3  and  C_20
REMARK    3  A    between atoms: N_8  and  C_26
REMARK    4  A    between atoms: C_10  and  C_18
REMARK    5  A    between atoms: C_12  and  C_20
REMARK    6  A    between atoms: C_12  and  C_21
REMARK    7  A    between atoms: C_13  and  C_23
REMARK    8  A    between atoms: C_23  and  C_24
REMARK    9  A    between atoms: C_26  and  C_29
REMARK   10  A    between atoms: C_27  and  C_28
REMARK   11  A    between atoms: C_28  and  C_30
REMARK   12  A    between atoms: C_28  and  C_31
REMARK   13  A    between atoms: C_28  and  C_32
REMARK                            x       y       z     vdW  Elec       q    Type
REMARK                         _______ _______ _______ _____ _____    ______ ____
ROOT
ATOM      1  S   UNL     1      15.034   7.945   6.208  0.00  0.00    -0.057 S 
ATOM      5  O   UNL     1      12.609   6.346   2.589  0.00  0.00    -0.275 OA
ATOM      7  N   UNL     1      15.111   7.451   3.671  0.00  0.00    -0.229 NA
ATOM      9  N   UNL     1      13.046   6.960   4.811  0.00  0.00    -0.264 N 
ATOM     10  C   UNL     1      18.598   9.094   3.588  0.00  0.00    -0.019 C 
ATOM     11  C   UNL     1      18.931   8.647   5.079  0.00  0.00    +0.011 C 
ATOM     12  C   UNL     1      20.285   9.168   5.698  0.00  0.00    +0.021 C 
ATOM     13  C   UNL     1      17.453   8.130   3.028  0.00  0.00    +0.054 C 
ATOM     14  C   UNL     1      19.860   8.922   2.703  0.00  0.00    +0.010 C 
ATOM     15  C   UNL     1      21.432   8.961   4.667  0.00  0.00    +0.123 C 
ATOM     16  C   UNL     1      17.702   8.831   6.017  0.00  0.00    +0.049 C 
ATOM     17  C   UNL     1      21.117   9.544   3.294  0.00  0.00    +0.032 C 
ATOM     18  C   UNL     1      18.123  10.565   3.494  0.00  0.00    +0.012 C 
ATOM     19  C   UNL     1      16.341   7.969   4.031  0.00  0.00    +0.058 A 
ATOM     21  C   UNL     1      20.632   8.315   6.952  0.00  0.00    +0.016 C 
ATOM     22  C   UNL     1      16.479   8.272   5.370  0.00  0.00    +0.015 A 
ATOM     25  C   UNL     1      14.340   7.400   4.735  0.00  0.00    +0.165 A 
ATOM     27  C   UNL     1      12.252   6.462   3.760  0.00  0.00    +0.224 C 
ATOM     39  H   UNL     1      12.643   7.010   5.742  0.00  0.00    +0.157 HD
ENDROOT
BRANCH  27  28
ATOM     28  C   UNL     1      10.822   6.052   4.196  0.00  0.00    +0.039 C 
ATOM     30  C   UNL     1      10.548   4.602   3.755  0.00  0.00    +0.020 C 
ATOM     31  C   UNL     1       9.782   6.966   3.530  0.00  0.00    +0.020 C 
ATOM     32  C   UNL     1      10.692   6.126   5.725  0.00  0.00    +0.020 C 
ENDBRANCH  27  28
BRANCH  15   2
ATOM      2  O   UNL     1      22.646   9.540   5.144  0.00  0.00    -0.391 OA
ATOM     36  H   UNL     1      23.322   9.414   4.457  0.00  0.00    +0.210 HD
ENDBRANCH  15   2
BRANCH  12  20
ATOM     20  C   UNL     1      20.244  10.632   6.190  0.00  0.00    +0.165 C 
BRANCH  20   3
ATOM      3  O   UNL     1      21.044  10.720   7.348  0.00  0.00    -0.394 OA
ATOM     37  H   UNL     1      20.890  11.597   7.740  0.00  0.00    +0.209 HD
ENDBRANCH  20   3
ENDBRANCH  12  20
BRANCH  13  23
ATOM     23  C   UNL     1      16.912   8.519   1.645  0.00  0.00    +0.106 C 
BRANCH  23  24
ATOM      4  O   UNL     1      17.873   7.393  -0.269  0.00  0.00    -0.276 OA
ATOM      8  N   UNL     1      16.134   6.387   0.901  0.00  0.00    -0.308 N 
ATOM     24  C   UNL     1      17.051   7.395   0.645  0.00  0.00    +0.214 C 
ATOM     38  H   UNL     1      15.505   6.477   1.693  0.00  0.00    +0.149 HD
BRANCH   8  26
ATOM     26  C   UNL     1      16.036   5.188   0.101  0.00  0.00    +0.178 C 
BRANCH  26  29
ATOM      6  O   UNL     1      13.755   4.451  -0.288  0.00  0.00    -0.466 OA
ATOM     29  C   UNL     1      14.838   4.396   0.529  0.00  0.00    +0.122 A 
ATOM     33  C   UNL     1      14.584   3.590   1.615  0.00  0.00    +0.046 A 
ATOM     34  C   UNL     1      13.259   3.120   1.454  0.00  0.00    +0.041 A 
ATOM     35  C   UNL     1      12.798   3.672   0.281  0.00  0.00    +0.195 A 
ENDBRANCH  26  29
ENDBRANCH   8  26
ENDBRANCH  23  24
ENDBRANCH  13  23
TORSDOF 8
ENDMDL
MODEL 3
REMARK VINA RESULT:      -6.5     28.293     31.443
REMARK  Name = 11883009
REMARK  13 active torsions:
REMARK  status: ('A' for Active; 'I' for Inactive)
REMARK    1  A    between atoms: O_2  and  C_15
REMARK    2  A    between atoms: O_3  and  C_20
REMARK    3  A    between atoms: N_8  and  C_26
REMARK    4  A    between atoms: C_10  and  C_18
REMARK    5  A    between atoms: C_12  and  C_20
REMARK    6  A    between atoms: C_12  and  C_21
REMARK    7  A    between atoms: C_13  and  C_23
REMARK    8  A    between atoms: C_23  and  C_24
REMARK    9  A    between atoms: C_26  and  C_29
REMARK   10  A    between atoms: C_27  and  C_28
REMARK   11  A    between atoms: C_28  and  C_30
REMARK   12  A    between atoms: C_28  and  C_31
REMARK   13  A    between atoms: C_28  and  C_32
REMARK                            x       y       z     vdW  Elec       q    Type
REMARK                         _______ _______ _______ _____ _____    ______ ____
ROOT
ATOM      1  S   UNL     1      -8.623 -10.298  12.863  0.00  0.00    -0.057 S 
ATOM      5  O   UNL     1      -4.002  -9.922  12.664  0.00  0.00    -0.275 OA
ATOM      7  N   UNL     1      -6.451 -10.216  14.265  0.00  0.00    -0.229 NA
ATOM      9  N   UNL     1      -6.208 -10.042  11.874  0.00  0.00    -0.264 N 
ATOM     10  C   UNL     1      -8.650 -10.188  17.433  0.00  0.00    -0.019 C 
ATOM     11  C   UNL     1      -9.799 -11.046  16.738  0.00  0.00    +0.011 C 
ATOM     12  C   UNL     1     -11.120 -11.280  17.568  0.00  0.00    +0.021 C 
ATOM     13  C   UNL     1      -7.291 -10.445  16.633  0.00  0.00    +0.054 C 
ATOM     14  C   UNL     1      -8.458 -10.672  18.893  0.00  0.00    +0.010 C 
ATOM     15  C   UNL     1     -10.745 -11.713  19.014  0.00  0.00    +0.123 C 
ATOM     16  C   UNL     1     -10.053 -10.577  15.275  0.00  0.00    +0.049 C 
ATOM     17  C   UNL     1      -9.753 -10.770  19.686  0.00  0.00    +0.032 C 
ATOM     18  C   UNL     1      -8.959  -8.671  17.448  0.00  0.00    +0.012 C 
ATOM     19  C   UNL     1      -7.510 -10.345  15.145  0.00  0.00    +0.058 A 
ATOM     21  C   UNL     1     -11.921 -12.449  16.928  0.00  0.00    +0.016 C 
ATOM     22  C   UNL     1      -8.755 -10.424  14.556  0.00  0.00    +0.015 A 
ATOM     25  C   UNL     1      -6.919 -10.173  13.037  0.00  0.00    +0.165 A 
ATOM     27  C   UNL     1      -4.811  -9.925  11.738  0.00  0.00    +0.224 C 
ATOM     39  H   UNL     1      -6.781 -10.033  11.035  0.00  0.00    +0.157 HD
ENDROOT
BRANCH  27  28
ATOM     28  C   UNL     1      -4.335  -9.791  10.269  0.00  0.00    +0.039 C 
ATOM     30  C   UNL     1      -2.926  -9.172  10.243  0.00  0.00    +0.020 C 
ATOM     31  C   UNL     1      -5.284  -8.870   9.486  0.00  0.00    +0.020 C 
ATOM     32  C   UNL     1      -4.269 -11.174   9.604  0.00  0.00    +0.020 C 
ENDBRANCH  27  28
BRANCH  15   2
ATOM      2  O   UNL     1     -11.913 -11.808  19.828  0.00  0.00    -0.391 OA
ATOM     36  H   UNL     1     -11.624 -12.007  20.736  0.00  0.00    +0.210 HD
ENDBRANCH  15   2
BRANCH  12  20
ATOM     20  C   UNL     1     -12.086 -10.075  17.587  0.00  0.00    +0.165 C 
BRANCH  20   3
ATOM      3  O   UNL     1     -13.403 -10.579  17.626  0.00  0.00    -0.394 OA
ATOM     37  H   UNL     1     -13.991  -9.879  17.295  0.00  0.00    +0.209 HD
ENDBRANCH  20   3
ENDBRANCH  12  20
BRANCH  13  23
ATOM     23  C   UNL     1      -6.110  -9.577  17.087  0.00  0.00    +0.106 C 
BRANCH  23  24
ATOM      4  O   UNL     1      -4.714 -11.202  18.212  0.00  0.00    -0.276 OA
ATOM      8  N   UNL     1      -3.905 -10.099  16.333  0.00  0.00    -0.308 N 
ATOM     24  C   UNL     1      -4.855 -10.393  17.299  0.00  0.00    +0.214 C 
ATOM     38  H   UNL     1      -4.126  -9.423  15.608  0.00  0.00    +0.149 HD
BRANCH   8  26
ATOM     26  C   UNL     1      -2.604 -10.727  16.289  0.00  0.00    +0.178 C 
BRANCH  26  29
ATOM      6  O   UNL     1      -1.457 -11.842  14.462  0.00  0.00    -0.466 OA
ATOM     29  C   UNL     1      -2.586 -11.771  15.214  0.00  0.00    +0.122 A 
ATOM     33  C   UNL     1      -3.501 -12.712  14.803  0.00  0.00    +0.046 A 
ATOM     34  C   UNL     1      -2.895 -13.407  13.729  0.00  0.00    +0.041 A 
ATOM     35  C   UNL     1      -1.653 -12.839  13.560  0.00  0.00    +0.195 A 
ENDBRANCH  26  29
ENDBRANCH   8  26
ENDBRANCH  23  24
ENDBRANCH  13  23
TORSDOF 8
ENDMDL
MODEL 4
REMARK VINA RESULT:      -6.4      2.750      6.305
REMARK  Name = 11883009
REMARK  13 active torsions:
REMARK  status: ('A' for Active; 'I' for Inactive)
REMARK    1  A    between atoms: O_2  and  C_15
REMARK    2  A    between atoms: O_3  and  C_20
REMARK    3  A    between atoms: N_8  and  C_26
REMARK    4  A    between atoms: C_10  and  C_18
REMARK    5  A    between atoms: C_12  and  C_20
REMARK    6  A    between atoms: C_12  and  C_21
REMARK    7  A    between atoms: C_13  and  C_23
REMARK    8  A    between atoms: C_23  and  C_24
REMARK    9  A    between atoms: C_26  and  C_29
REMARK   10  A    between atoms: C_27  and  C_28
REMARK   11  A    between atoms: C_28  and  C_30
REMARK   12  A    between atoms: C_28  and  C_31
REMARK   13  A    between atoms: C_28  and  C_32
REMARK                            x       y       z     vdW  Elec       q    Type
REMARK                         _______ _______ _______ _____ _____    ______ ____
ROOT
ATOM      1  S   UNL     1      17.488  11.497  21.934  0.00  0.00    -0.057 S 
ATOM      5  O   UNL     1      21.367   8.961  22.161  0.00  0.00    -0.275 OA
ATOM      7  N   UNL     1      18.516   9.169  21.474  0.00  0.00    -0.229 NA
ATOM      9  N   UNL     1      19.986  10.844  22.391  0.00  0.00    -0.264 N 
ATOM     10  C   UNL     1      14.977   7.925  20.581  0.00  0.00    -0.019 C 
ATOM     11  C   UNL     1      14.526   9.353  20.039  0.00  0.00    +0.011 C 
ATOM     12  C   UNL     1      13.017   9.512  19.607  0.00  0.00    +0.021 C 
ATOM     13  C   UNL     1      16.572   7.862  20.537  0.00  0.00    +0.054 C 
ATOM     14  C   UNL     1      14.416   6.819  19.650  0.00  0.00    +0.010 C 
ATOM     15  C   UNL     1      12.609   8.302  18.720  0.00  0.00    +0.123 C 
ATOM     16  C   UNL     1      15.039  10.499  20.959  0.00  0.00    +0.049 C 
ATOM     17  C   UNL     1      12.929   6.955  19.358  0.00  0.00    +0.032 C 
ATOM     18  C   UNL     1      14.491   7.651  22.026  0.00  0.00    +0.012 C 
ATOM     19  C   UNL     1      17.182   9.112  21.115  0.00  0.00    +0.058 A 
ATOM     21  C   UNL     1      12.871  10.793  18.737  0.00  0.00    +0.016 C 
ATOM     22  C   UNL     1      16.481  10.289  21.279  0.00  0.00    +0.015 A 
ATOM     25  C   UNL     1      18.786  10.373  21.926  0.00  0.00    +0.165 A 
ATOM     27  C   UNL     1      21.199  10.135  22.487  0.00  0.00    +0.224 C 
ATOM     39  H   UNL     1      19.964  11.814  22.691  0.00  0.00    +0.157 HD
ENDROOT
BRANCH  27  28
ATOM     28  C   UNL     1      22.369  10.973  23.062  0.00  0.00    +0.039 C 
ATOM     30  C   UNL     1      22.490  10.712  24.575  0.00  0.00    +0.020 C 
ATOM     31  C   UNL     1      22.103  12.472  22.848  0.00  0.00    +0.020 C 
ATOM     32  C   UNL     1      23.692  10.568  22.393  0.00  0.00    +0.020 C 
ENDBRANCH  27  28
BRANCH  15   2
ATOM      2  O   UNL     1      11.214   8.348  18.419  0.00  0.00    -0.391 OA
ATOM     36  H   UNL     1      10.786   7.618  18.897  0.00  0.00    +0.210 HD
ENDBRANCH  15   2
BRANCH  12  20
ATOM     20  C   UNL     1      12.031   9.693  20.782  0.00  0.00    +0.165 C 
BRANCH  20   3
ATOM      3  O   UNL     1      11.673  11.055  20.839  0.00  0.00    -0.394 OA
ATOM     37  H   UNL     1      10.701  11.099  20.863  0.00  0.00    +0.209 HD
ENDBRANCH  20   3
ENDBRANCH  12  20
BRANCH  13  23
ATOM     23  C   UNL     1      17.178   6.599  21.165  0.00  0.00    +0.106 C 
BRANCH  23  24
ATOM      4  O   UNL     1      18.254   5.451  19.326  0.00  0.00    -0.276 OA
ATOM      8  N   UNL     1      19.554   6.417  20.994  0.00  0.00    -0.308 N 
ATOM     24  C   UNL     1      18.359   6.083  20.374  0.00  0.00    +0.214 C 
ATOM     38  H   UNL     1      19.534   6.957  21.854  0.00  0.00    +0.149 HD
BRANCH   8  26
ATOM     26  C   UNL     1      20.846   6.050  20.464  0.00  0.00    +0.178 C 
BRANCH  26  29
ATOM      6  O   UNL     1      22.058   5.419  22.471  0.00  0.00    -0.466 OA
ATOM     29  C   UNL     1      21.462   4.992  21.328  0.00  0.00    +0.122 A 
ATOM     33  C   UNL     1      21.560   3.625  21.214  0.00  0.00    +0.046 A 
ATOM     34  C   UNL     1      22.262   3.183  22.361  0.00  0.00    +0.041 A 
ATOM     35  C   UNL     1      22.543   4.313  23.094  0.00  0.00    +0.195 A 
ENDBRANCH  26  29
ENDBRANCH   8  26
ENDBRANCH  23  24
ENDBRANCH  13  23
TORSDOF 8
ENDMDL
MODEL 5
REMARK VINA RESULT:      -6.4     15.820     19.844
REMARK  Name = 11883009
REMARK  13 active torsions:
REMARK  status: ('A' for Active; 'I' for Inactive)
REMARK    1  A    between atoms: O_2  and  C_15
REMARK    2  A    between atoms: O_3  and  C_20
REMARK    3  A    between atoms: N_8  and  C_26
REMARK    4  A    between atoms: C_10  and  C_18
REMARK    5  A    between atoms: C_12  and  C_20
REMARK    6  A    between atoms: C_12  and  C_21
REMARK    7  A    between atoms: C_13  and  C_23
REMARK    8  A    between atoms: C_23  and  C_24
REMARK    9  A    between atoms: C_26  and  C_29
REMARK   10  A    between atoms: C_27  and  C_28
REMARK   11  A    between atoms: C_28  and  C_30
REMARK   12  A    between atoms: C_28  and  C_31
REMARK   13  A    between atoms: C_28  and  C_32
REMARK                            x       y       z     vdW  Elec       q    Type
REMARK                         _______ _______ _______ _____ _____    ______ ____
ROOT
ATOM      1  S   UNL     1      13.925   8.280   6.964  0.00  0.00    -0.057 S 
ATOM      5  O   UNL     1      10.941   5.703   4.518  0.00  0.00    -0.275 OA
ATOM      7  N   UNL     1      13.561   7.020   4.735  0.00  0.00    -0.229 NA
ATOM      9  N   UNL     1      11.750   6.964   6.323  0.00  0.00    -0.264 N 
ATOM     10  C   UNL     1      16.924   8.462   3.519  0.00  0.00    -0.019 C 
ATOM     11  C   UNL     1      17.533   8.491   4.991  0.00  0.00    +0.011 C 
ATOM     12  C   UNL     1      18.960   9.142   5.163  0.00  0.00    +0.021 C 
ATOM     13  C   UNL     1      15.728   7.403   3.502  0.00  0.00    +0.054 C 
ATOM     14  C   UNL     1      18.012   7.990   2.520  0.00  0.00    +0.010 C 
ATOM     15  C   UNL     1      19.909   8.594   4.058  0.00  0.00    +0.123 C 
ATOM     16  C   UNL     1      16.487   8.990   6.030  0.00  0.00    +0.049 C 
ATOM     17  C   UNL     1      19.334   8.730   2.653  0.00  0.00    +0.032 C 
ATOM     18  C   UNL     1      16.395   9.844   3.061  0.00  0.00    +0.012 C 
ATOM     19  C   UNL     1      14.819   7.592   4.688  0.00  0.00    +0.058 A 
ATOM     21  C   UNL     1      19.552   8.711   6.536  0.00  0.00    +0.016 C 
ATOM     22  C   UNL     1      15.186   8.292   5.819  0.00  0.00    +0.015 A 
ATOM     25  C   UNL     1      12.995   7.323   5.882  0.00  0.00    +0.165 A 
ATOM     27  C   UNL     1      10.795   6.186   5.639  0.00  0.00    +0.224 C 
ATOM     39  H   UNL     1      11.519   7.312   7.249  0.00  0.00    +0.157 HD
ENDROOT
BRANCH  27  28
ATOM     28  C   UNL     1       9.480   5.970   6.430  0.00  0.00    +0.039 C 
ATOM     30  C   UNL     1       9.232   7.178   7.351  0.00  0.00    +0.020 C 
ATOM     31  C   UNL     1       9.588   4.709   7.302  0.00  0.00    +0.020 C 
ATOM     32  C   UNL     1       8.293   5.847   5.463  0.00  0.00    +0.020 C 
ENDBRANCH  27  28
BRANCH  15   2
ATOM      2  O   UNL     1      21.170   9.259   4.106  0.00  0.00    -0.391 OA
ATOM     36  H   UNL     1      20.998  10.211   4.203  0.00  0.00    +0.210 HD
ENDBRANCH  15   2
BRANCH  12  20
ATOM     20  C   UNL     1      18.962  10.686   5.176  0.00  0.00    +0.165 C 
BRANCH  20   3
ATOM      3  O   UNL     1      19.974  11.108   6.063  0.00  0.00    -0.394 OA
ATOM     37  H   UNL     1      20.761  11.313   5.528  0.00  0.00    +0.209 HD
ENDBRANCH  20   3
ENDBRANCH  12  20
BRANCH  13  23
ATOM     23  C   UNL     1      14.936   7.358   2.188  0.00  0.00    +0.106 C 
BRANCH  23  24
ATOM      4  O   UNL     1      15.750   5.702   0.624  0.00  0.00    -0.276 OA
ATOM      8  N   UNL     1      14.063   5.136   2.120  0.00  0.00    -0.308 N 
ATOM     24  C   UNL     1      14.987   5.993   1.541  0.00  0.00    +0.214 C 
ATOM     38  H   UNL     1      13.487   5.470   2.887  0.00  0.00    +0.149 HD
BRANCH   8  26
ATOM     26  C   UNL     1      13.888   3.765   1.699  0.00  0.00    +0.178 C 
BRANCH  26  29
ATOM      6  O   UNL     1      11.689   4.257   0.795  0.00  0.00    -0.466 OA
ATOM     29  C   UNL     1      12.910   3.709   0.565  0.00  0.00    +0.122 A 
ATOM     33  C   UNL     1      12.980   3.205  -0.712  0.00  0.00    +0.046 A 
ATOM     34  C   UNL     1      11.720   3.457  -1.305  0.00  0.00    +0.041 A 
ATOM     35  C   UNL     1      10.970   4.099  -0.347  0.00  0.00    +0.195 A 
ENDBRANCH  26  29
ENDBRANCH   8  26
ENDBRANCH  23  24
ENDBRANCH  13  23
TORSDOF 8
ENDMDL
MODEL 6
REMARK VINA RESULT:      -6.4     24.683     27.915
REMARK  Name = 11883009
REMARK  13 active torsions:
REMARK  status: ('A' for Active; 'I' for Inactive)
REMARK    1  A    between atoms: O_2  and  C_15
REMARK    2  A    between atoms: O_3  and  C_20
REMARK    3  A    between atoms: N_8  and  C_26
REMARK    4  A    between atoms: C_10  and  C_18
REMARK    5  A    between atoms: C_12  and  C_20
REMARK    6  A    between atoms: C_12  and  C_21
REMARK    7  A    between atoms: C_13  and  C_23
REMARK    8  A    between atoms: C_23  and  C_24
REMARK    9  A    between atoms: C_26  and  C_29
REMARK   10  A    between atoms: C_27  and  C_28
REMARK   11  A    between atoms: C_28  and  C_30
REMARK   12  A    between atoms: C_28  and  C_31
REMARK   13  A    between atoms: C_28  and  C_32
REMARK                            x       y       z     vdW  Elec       q    Type
REMARK                         _______ _______ _______ _____ _____    ______ ____
ROOT
ATOM      1  S   UNL     1      20.959  -4.840   1.276  0.00  0.00    -0.057 S 
ATOM      5  O   UNL     1      18.104  -5.842  -2.243  0.00  0.00    -0.275 OA
ATOM      7  N   UNL     1      19.676  -6.738   0.076  0.00  0.00    -0.229 NA
ATOM      9  N   UNL     1      19.434  -4.519  -0.833  0.00  0.00    -0.264 N 
ATOM     10  C   UNL     1      21.451  -9.239   2.412  0.00  0.00    -0.019 C 
ATOM     11  C   UNL     1      21.536  -8.187   3.604  0.00  0.00    +0.011 C 
ATOM     12  C   UNL     1      22.325  -8.629   4.897  0.00  0.00    +0.021 C 
ATOM     13  C   UNL     1      20.278  -8.779   1.431  0.00  0.00    +0.054 C 
ATOM     14  C   UNL     1      21.093 -10.636   2.983  0.00  0.00    +0.010 C 
ATOM     15  C   UNL     1      21.879 -10.063   5.303  0.00  0.00    +0.123 C 
ATOM     16  C   UNL     1      21.925  -6.770   3.086  0.00  0.00    +0.049 C 
ATOM     17  C   UNL     1      21.962 -11.064   4.156  0.00  0.00    +0.032 C 
ATOM     18  C   UNL     1      22.774  -9.352   1.616  0.00  0.00    +0.012 C 
ATOM     19  C   UNL     1      20.371  -7.306   1.128  0.00  0.00    +0.058 A 
ATOM     21  C   UNL     1      21.951  -7.679   6.070  0.00  0.00    +0.016 C 
ATOM     22  C   UNL     1      21.100  -6.420   1.894  0.00  0.00    +0.015 A 
ATOM     25  C   UNL     1      19.918  -5.445   0.052  0.00  0.00    +0.165 A 
ATOM     27  C   UNL     1      18.567  -4.749  -1.919  0.00  0.00    +0.224 C 
ATOM     39  H   UNL     1      19.754  -3.571  -0.660  0.00  0.00    +0.157 HD
ENDROOT
BRANCH  27  28
ATOM     28  C   UNL     1      18.218  -3.471  -2.723  0.00  0.00    +0.039 C 
ATOM     30  C   UNL     1      18.884  -2.252  -2.061  0.00  0.00    +0.020 C 
ATOM     31  C   UNL     1      16.697  -3.249  -2.731  0.00  0.00    +0.020 C 
ATOM     32  C   UNL     1      18.744  -3.590  -4.162  0.00  0.00    +0.020 C 
ENDBRANCH  27  28
BRANCH  15   2
ATOM      2  O   UNL     1      22.667 -10.544   6.391  0.00  0.00    -0.391 OA
ATOM     36  H   UNL     1      22.286 -11.391   6.678  0.00  0.00    +0.210 HD
ENDBRANCH  15   2
BRANCH  12  20
ATOM     20  C   UNL     1      23.862  -8.546   4.768  0.00  0.00    +0.165 C 
BRANCH  20   3
ATOM      3  O   UNL     1      24.386  -8.256   6.045  0.00  0.00    -0.394 OA
ATOM     37  H   UNL     1      24.079  -8.953   6.649  0.00  0.00    +0.209 HD
ENDBRANCH  20   3
ENDBRANCH  12  20
BRANCH  13  23
ATOM     23  C   UNL     1      20.158  -9.610   0.146  0.00  0.00    +0.106 C 
BRANCH  23  24
ATOM      4  O   UNL     1      18.178 -10.280  -1.071  0.00  0.00    -0.276 OA
ATOM      8  N   UNL     1      18.322 -10.706   1.209  0.00  0.00    -0.308 N 
ATOM     24  C   UNL     1      18.786 -10.225  -0.006  0.00  0.00    +0.214 C 
ATOM     38  H   UNL     1      18.910 -10.626   2.033  0.00  0.00    +0.149 HD
BRANCH   8  26
ATOM     26  C   UNL     1      17.034 -11.343   1.365  0.00  0.00    +0.178 C 
BRANCH  26  29
ATOM      6  O   UNL     1      18.005 -12.652   3.165  0.00  0.00    -0.466 OA
ATOM     29  C   UNL     1      16.932 -11.938   2.736  0.00  0.00    +0.122 A 
ATOM     33  C   UNL     1      15.948 -11.920   3.697  0.00  0.00    +0.046 A 
ATOM     34  C   UNL     1      16.448 -12.672   4.787  0.00  0.00    +0.041 A 
ATOM     35  C   UNL     1      17.703 -13.095   4.414  0.00  0.00    +0.195 A 
ENDBRANCH  26  29
ENDBRANCH   8  26
ENDBRANCH  23  24
ENDBRANCH  13  23
TORSDOF 8
ENDMDL
MODEL 7
REMARK VINA RESULT:      -6.2     29.834     33.219
REMARK  Name = 11883009
REMARK  13 active torsions:
REMARK  status: ('A' for Active; 'I' for Inactive)
REMARK    1  A    between atoms: O_2  and  C_15
REMARK    2  A    between atoms: O_3  and  C_20
REMARK    3  A    between atoms: N_8  and  C_26
REMARK    4  A    between atoms: C_10  and  C_18
REMARK    5  A    between atoms: C_12  and  C_20
REMARK    6  A    between atoms: C_12  and  C_21
REMARK    7  A    between atoms: C_13  and  C_23
REMARK    8  A    between atoms: C_23  and  C_24
REMARK    9  A    between atoms: C_26  and  C_29
REMARK   10  A    between atoms: C_27  and  C_28
REMARK   11  A    between atoms: C_28  and  C_30
REMARK   12  A    between atoms: C_28  and  C_31
REMARK   13  A    between atoms: C_28  and  C_32
REMARK                            x       y       z     vdW  Elec       q    Type
REMARK                         _______ _______ _______ _____ _____    ______ ____
ROOT
ATOM      1  S   UNL     1     -10.057 -12.963  19.993  0.00  0.00    -0.057 S 
ATOM      5  O   UNL     1     -13.358  -9.769  19.332  0.00  0.00    -0.275 OA
ATOM      7  N   UNL     1     -10.638 -10.747  18.791  0.00  0.00    -0.229 NA
ATOM      9  N   UNL     1     -12.356 -11.715  20.177  0.00  0.00    -0.264 N 
ATOM     10  C   UNL     1      -6.974 -10.584  17.600  0.00  0.00    -0.019 C 
ATOM     11  C   UNL     1      -6.836 -12.170  17.554  0.00  0.00    +0.011 C 
ATOM     12  C   UNL     1      -5.410 -12.756  17.220  0.00  0.00    +0.021 C 
ATOM     13  C   UNL     1      -8.528 -10.222  17.512  0.00  0.00    +0.054 C 
ATOM     14  C   UNL     1      -6.258  -9.969  16.370  0.00  0.00    +0.010 C 
ATOM     15  C   UNL     1      -4.820 -11.999  15.996  0.00  0.00    +0.123 C 
ATOM     16  C   UNL     1      -7.514 -12.837  18.787  0.00  0.00    +0.049 C 
ATOM     17  C   UNL     1      -4.841 -10.483  16.160  0.00  0.00    +0.032 C 
ATOM     18  C   UNL     1      -6.373  -9.966  18.886  0.00  0.00    +0.012 C 
ATOM     19  C   UNL     1      -9.337 -11.075  18.454  0.00  0.00    +0.058 A 
ATOM     21  C   UNL     1      -5.558 -14.250  16.812  0.00  0.00    +0.016 C 
ATOM     22  C   UNL     1      -8.870 -12.253  19.000  0.00  0.00    +0.015 A 
ATOM     25  C   UNL     1     -11.113 -11.666  19.604  0.00  0.00    +0.165 A 
ATOM     27  C   UNL     1     -13.403 -10.786  20.021  0.00  0.00    +0.224 C 
ATOM     39  H   UNL     1     -12.507 -12.522  20.775  0.00  0.00    +0.157 HD
ENDROOT
BRANCH  27  28
ATOM     28  C   UNL     1     -14.682 -11.146  20.819  0.00  0.00    +0.039 C 
ATOM     30  C   UNL     1     -14.286 -11.790  22.159  0.00  0.00    +0.020 C 
ATOM     31  C   UNL     1     -15.534 -12.153  20.029  0.00  0.00    +0.020 C 
ATOM     32  C   UNL     1     -15.498  -9.878  21.113  0.00  0.00    +0.020 C 
ENDBRANCH  27  28
BRANCH  15   2
ATOM      2  O   UNL     1      -3.478 -12.415  15.747  0.00  0.00    -0.391 OA
ATOM     36  H   UNL     1      -2.910 -11.989  16.411  0.00  0.00    +0.210 HD
ENDBRANCH  15   2
BRANCH  12  20
ATOM     20  C   UNL     1      -4.419 -12.744  18.404  0.00  0.00    +0.165 C 
BRANCH  20   3
ATOM      3  O   UNL     1      -3.978 -14.068  18.610  0.00  0.00    -0.394 OA
ATOM     37  H   UNL     1      -3.042 -14.024  18.870  0.00  0.00    +0.209 HD
ENDBRANCH  20   3
ENDBRANCH  12  20
BRANCH  13  23
ATOM     23  C   UNL     1      -8.846  -8.731  17.690  0.00  0.00    +0.106 C 
BRANCH  23  24
ATOM      4  O   UNL     1      -9.410  -8.618  15.340  0.00  0.00    -0.276 OA
ATOM      8  N   UNL     1     -10.246  -7.014  16.799  0.00  0.00    -0.308 N 
ATOM     24  C   UNL     1      -9.515  -8.145  16.468  0.00  0.00    +0.214 C 
ATOM     38  H   UNL     1     -10.282  -6.711  17.767  0.00  0.00    +0.149 HD
BRANCH   8  26
ATOM     26  C   UNL     1     -10.989  -6.243  15.828  0.00  0.00    +0.178 C 
BRANCH  26  29
ATOM      6  O   UNL     1     -12.926  -6.608  14.411  0.00  0.00    -0.466 OA
ATOM     29  C   UNL     1     -12.326  -6.880  15.598  0.00  0.00    +0.122 A 
ATOM     33  C   UNL     1     -13.112  -7.715  16.357  0.00  0.00    +0.046 A 
ATOM     34  C   UNL     1     -14.271  -7.972  15.586  0.00  0.00    +0.041 A 
ATOM     35  C   UNL     1     -14.110  -7.276  14.411  0.00  0.00    +0.195 A 
ENDBRANCH  26  29
ENDBRANCH   8  26
ENDBRANCH  23  24
ENDBRANCH  13  23
TORSDOF 8
ENDMDL
MODEL 8
REMARK VINA RESULT:      -6.2     28.810     31.632
REMARK  Name = 11883009
REMARK  13 active torsions:
REMARK  status: ('A' for Active; 'I' for Inactive)
REMARK    1  A    between atoms: O_2  and  C_15
REMARK    2  A    between atoms: O_3  and  C_20
REMARK    3  A    between atoms: N_8  and  C_26
REMARK    4  A    between atoms: C_10  and  C_18
REMARK    5  A    between atoms: C_12  and  C_20
REMARK    6  A    between atoms: C_12  and  C_21
REMARK    7  A    between atoms: C_13  and  C_23
REMARK    8  A    between atoms: C_23  and  C_24
REMARK    9  A    between atoms: C_26  and  C_29
REMARK   10  A    between atoms: C_27  and  C_28
REMARK   11  A    between atoms: C_28  and  C_30
REMARK   12  A    between atoms: C_28  and  C_31
REMARK   13  A    between atoms: C_28  and  C_32
REMARK                            x       y       z     vdW  Elec       q    Type
REMARK                         _______ _______ _______ _____ _____    ______ ____
ROOT
ATOM      1  S   UNL     1      -7.659 -11.570  12.421  0.00  0.00    -0.057 S 
ATOM      5  O   UNL     1      -3.733 -11.743   9.953  0.00  0.00    -0.275 OA
ATOM      7  N   UNL     1      -5.077 -11.604  12.565  0.00  0.00    -0.229 NA
ATOM      9  N   UNL     1      -6.043 -11.686  10.359  0.00  0.00    -0.264 N 
ATOM     10  C   UNL     1      -5.411 -11.026  16.363  0.00  0.00    -0.019 C 
ATOM     11  C   UNL     1      -6.795 -11.809  16.440  0.00  0.00    +0.011 C 
ATOM     12  C   UNL     1      -7.541 -11.812  17.830  0.00  0.00    +0.021 C 
ATOM     13  C   UNL     1      -4.643 -11.511  15.048  0.00  0.00    +0.054 C 
ATOM     14  C   UNL     1      -4.545 -11.388  17.598  0.00  0.00    +0.010 C 
ATOM     15  C   UNL     1      -6.521 -12.146  18.957  0.00  0.00    +0.123 C 
ATOM     16  C   UNL     1      -7.717 -11.456  15.236  0.00  0.00    +0.049 C 
ATOM     17  C   UNL     1      -5.280 -11.263  18.924  0.00  0.00    +0.032 C 
ATOM     18  C   UNL     1      -5.592  -9.489  16.316  0.00  0.00    +0.012 C 
ATOM     19  C   UNL     1      -5.565 -11.527  13.857  0.00  0.00    +0.058 A 
ATOM     21  C   UNL     1      -8.614 -12.939  17.829  0.00  0.00    +0.016 C 
ATOM     22  C   UNL     1      -6.940 -11.520  13.964  0.00  0.00    +0.015 A 
ATOM     25  C   UNL     1      -6.089 -11.624  11.727  0.00  0.00    +0.165 A 
ATOM     27  C   UNL     1      -4.894 -11.742   9.547  0.00  0.00    +0.224 C 
ATOM     39  H   UNL     1      -6.955 -11.691   9.912  0.00  0.00    +0.157 HD
ENDROOT
BRANCH  27  28
ATOM     28  C   UNL     1      -5.202 -11.802   8.030  0.00  0.00    +0.039 C 
ATOM     30  C   UNL     1      -6.611 -12.383   7.816  0.00  0.00    +0.020 C 
ATOM     31  C   UNL     1      -4.189 -12.714   7.319  0.00  0.00    +0.020 C 
ATOM     32  C   UNL     1      -5.163 -10.391   7.424  0.00  0.00    +0.020 C 
ENDBRANCH  27  28
BRANCH  15   2
ATOM      2  O   UNL     1      -7.135 -12.030  20.240  0.00  0.00    -0.391 OA
ATOM     36  H   UNL     1      -6.602 -11.410  20.766  0.00  0.00    +0.210 HD
ENDBRANCH  15   2
BRANCH  12  20
ATOM     20  C   UNL     1      -8.307 -10.509  18.150  0.00  0.00    +0.165 C 
BRANCH  20   3
ATOM      3  O   UNL     1      -9.552 -10.866  18.705  0.00  0.00    -0.394 OA
ATOM     37  H   UNL     1      -9.412 -11.665  19.241  0.00  0.00    +0.209 HD
ENDBRANCH  20   3
ENDBRANCH  12  20
BRANCH  13  23
ATOM     23  C   UNL     1      -3.349 -10.743  14.747  0.00  0.00    +0.106 C 
BRANCH  23  24
ATOM      4  O   UNL     1      -1.096 -11.458  15.268  0.00  0.00    -0.276 OA
ATOM      8  N   UNL     1      -2.407 -12.743  13.841  0.00  0.00    -0.308 N 
ATOM     24  C   UNL     1      -2.150 -11.661  14.670  0.00  0.00    +0.214 C 
ATOM     38  H   UNL     1      -3.320 -12.828  13.404  0.00  0.00    +0.149 HD
BRANCH   8  26
ATOM     26  C   UNL     1      -1.438 -13.782  13.578  0.00  0.00    +0.178 C 
BRANCH  26  29
ATOM      6  O   UNL     1      -3.143 -15.067  14.735  0.00  0.00    -0.466 OA
ATOM     29  C   UNL     1      -1.886 -15.060  14.221  0.00  0.00    +0.122 A 
ATOM     33  C   UNL     1      -1.278 -16.279  14.412  0.00  0.00    +0.046 A 
ATOM     34  C   UNL     1      -2.223 -17.087  15.089  0.00  0.00    +0.041 A 
ATOM     35  C   UNL     1      -3.341 -16.304  15.262  0.00  0.00    +0.195 A 
ENDBRANCH  26  29
ENDBRANCH   8  26
ENDBRANCH  23  24
ENDBRANCH  13  23
TORSDOF 8
ENDMDL
MODEL 9
REMARK VINA RESULT:      -6.2     27.887     31.307
REMARK  Name = 11883009
REMARK  13 active torsions:
REMARK  status: ('A' for Active; 'I' for Inactive)
REMARK    1  A    between atoms: O_2  and  C_15
REMARK    2  A    between atoms: O_3  and  C_20
REMARK    3  A    between atoms: N_8  and  C_26
REMARK    4  A    between atoms: C_10  and  C_18
REMARK    5  A    between atoms: C_12  and  C_20
REMARK    6  A    between atoms: C_12  and  C_21
REMARK    7  A    between atoms: C_13  and  C_23
REMARK    8  A    between atoms: C_23  and  C_24
REMARK    9  A    between atoms: C_26  and  C_29
REMARK   10  A    between atoms: C_27  and  C_28
REMARK   11  A    between atoms: C_28  and  C_30
REMARK   12  A    between atoms: C_28  and  C_31
REMARK   13  A    between atoms: C_28  and  C_32
REMARK                            x       y       z     vdW  Elec       q    Type
REMARK                         _______ _______ _______ _____ _____    ______ ____
ROOT
ATOM      1  S   UNL     1      -5.236  -9.460   9.847  0.00  0.00    -0.057 S 
ATOM      5  O   UNL     1      -9.660  -8.066   9.968  0.00  0.00    -0.275 OA
ATOM      7  N   UNL     1      -7.312  -9.161  11.359  0.00  0.00    -0.229 NA
ATOM      9  N   UNL     1      -7.551  -8.523   9.048  0.00  0.00    -0.264 N 
ATOM     10  C   UNL     1      -5.349 -10.912  14.179  0.00  0.00    -0.019 C 
ATOM     11  C   UNL     1      -3.950 -10.363  13.653  0.00  0.00    +0.011 C 
ATOM     12  C   UNL     1      -2.654 -10.878  14.392  0.00  0.00    +0.021 C 
ATOM     13  C   UNL     1      -6.498  -9.958  13.610  0.00  0.00    +0.054 C 
ATOM     14  C   UNL     1      -5.379 -10.845  15.728  0.00  0.00    +0.010 C 
ATOM     15  C   UNL     1      -2.872 -10.784  15.929  0.00  0.00    +0.123 C 
ATOM     16  C   UNL     1      -3.856 -10.439  12.100  0.00  0.00    +0.049 C 
ATOM     17  C   UNL     1      -4.157 -11.459  16.396  0.00  0.00    +0.032 C 
ATOM     18  C   UNL     1      -5.626 -12.371  13.740  0.00  0.00    +0.012 C 
ATOM     19  C   UNL     1      -6.300  -9.688  12.141  0.00  0.00    +0.058 A 
ATOM     21  C   UNL     1      -1.462  -9.943  14.037  0.00  0.00    +0.016 C 
ATOM     22  C   UNL     1      -5.102  -9.894  11.488  0.00  0.00    +0.015 A 
ATOM     25  C   UNL     1      -6.867  -9.007  10.132  0.00  0.00    +0.165 A 
ATOM     27  C   UNL     1      -8.888  -8.082   9.012  0.00  0.00    +0.224 C 
ATOM     39  H   UNL     1      -7.005  -8.491   8.192  0.00  0.00    +0.157 HD
ENDROOT
BRANCH  27  28
ATOM     28  C   UNL     1      -9.349  -7.597   7.614  0.00  0.00    +0.039 C 
ATOM     30  C   UNL     1      -9.927  -6.175   7.730  0.00  0.00    +0.020 C 
ATOM     31  C   UNL     1     -10.446  -8.524   7.066  0.00  0.00    +0.020 C 
ATOM     32  C   UNL     1      -8.156  -7.556   6.646  0.00  0.00    +0.020 C 
ENDBRANCH  27  28
BRANCH  15   2
ATOM      2  O   UNL     1      -1.770 -11.362  16.628  0.00  0.00    -0.391 OA
ATOM     36  H   UNL     1      -2.103 -12.135  17.115  0.00  0.00    +0.210 HD
ENDBRANCH  15   2
BRANCH  12  20
ATOM     20  C   UNL     1      -2.205 -12.298  13.985  0.00  0.00    +0.165 C 
BRANCH  20   3
ATOM      3  O   UNL     1      -1.283 -12.171  12.925  0.00  0.00    -0.394 OA
ATOM     37  H   UNL     1      -0.914 -11.272  12.968  0.00  0.00    +0.209 HD
ENDBRANCH  20   3
ENDBRANCH  12  20
BRANCH  13  23
ATOM     23  C   UNL     1      -7.926 -10.434  13.907  0.00  0.00    +0.106 C 
BRANCH  23  24
ATOM      4  O   UNL     1      -8.446  -8.910  15.713  0.00  0.00    -0.276 OA
ATOM      8  N   UNL     1      -8.662 -11.200  16.046  0.00  0.00    -0.308 N 
ATOM     24  C   UNL     1      -8.367 -10.065  15.305  0.00  0.00    +0.214 C 
ATOM     38  H   UNL     1      -8.580 -12.114  15.611  0.00  0.00    +0.149 HD
BRANCH   8  26
ATOM     26  C   UNL     1      -9.106 -11.151  17.420  0.00  0.00    +0.178 C 
BRANCH  26  29
ATOM      6  O   UNL     1      -7.308 -10.086  18.656  0.00  0.00    -0.466 OA
ATOM     29  C   UNL     1      -7.923 -11.253  18.334  0.00  0.00    +0.122 A 
ATOM     33  C   UNL     1      -7.296 -12.314  18.945  0.00  0.00    +0.046 A 
ATOM     34  C   UNL     1      -6.226 -11.763  19.690  0.00  0.00    +0.041 A 
ATOM     35  C   UNL     1      -6.276 -10.404  19.481  0.00  0.00    +0.195 A 
ENDBRANCH  26  29
ENDBRANCH   8  26
ENDBRANCH  23  24
ENDBRANCH  13  23
TORSDOF 8
ENDMDL
MODEL 10
REMARK VINA RESULT:      -6.1     28.246     31.945
REMARK  Name = 11883009
REMARK  13 active torsions:
REMARK  status: ('A' for Active; 'I' for Inactive)
REMARK    1  A    between atoms: O_2  and  C_15
REMARK    2  A    between atoms: O_3  and  C_20
REMARK    3  A    between atoms: N_8  and  C_26
REMARK    4  A    between atoms: C_10  and  C_18
REMARK    5  A    between atoms: C_12  and  C_20
REMARK    6  A    between atoms: C_12  and  C_21
REMARK    7  A    between atoms: C_13  and  C_23
REMARK    8  A    between atoms: C_23  and  C_24
REMARK    9  A    between atoms: C_26  and  C_29
REMARK   10  A    between atoms: C_27  and  C_28
REMARK   11  A    between atoms: C_28  and  C_30
REMARK   12  A    between atoms: C_28  and  C_31
REMARK   13  A    between atoms: C_28  and  C_32
REMARK                            x       y       z     vdW  Elec       q    Type
REMARK                         _______ _______ _______ _____ _____    ______ ____
ROOT
ATOM      1  S   UNL     1      -6.729 -10.550  10.899  0.00  0.00    -0.057 S 
ATOM      5  O   UNL     1     -10.920  -8.917  12.040  0.00  0.00    -0.275 OA
ATOM      7  N   UNL     1      -8.237  -9.796  12.860  0.00  0.00    -0.229 NA
ATOM      9  N   UNL     1      -9.194  -9.691  10.652  0.00  0.00    -0.264 N 
ATOM     10  C   UNL     1      -5.463 -10.964  15.270  0.00  0.00    -0.019 C 
ATOM     11  C   UNL     1      -4.307 -10.631  14.227  0.00  0.00    +0.011 C 
ATOM     12  C   UNL     1      -2.836 -11.035  14.633  0.00  0.00    +0.021 C 
ATOM     13  C   UNL     1      -6.748 -10.103  14.874  0.00  0.00    +0.054 C 
ATOM     14  C   UNL     1      -5.010 -10.544  16.693  0.00  0.00    +0.010 C 
ATOM     15  C   UNL     1      -2.567 -10.581  16.096  0.00  0.00    +0.123 C 
ATOM     16  C   UNL     1      -4.700 -11.064  12.784  0.00  0.00    +0.049 C 
ATOM     17  C   UNL     1      -3.631 -11.057  17.078  0.00  0.00    +0.032 C 
ATOM     18  C   UNL     1      -5.837 -12.467  15.292  0.00  0.00    +0.012 C 
ATOM     19  C   UNL     1      -7.023 -10.187  13.395  0.00  0.00    +0.058 A 
ATOM     21  C   UNL     1      -1.831 -10.275  13.720  0.00  0.00    +0.016 C 
ATOM     22  C   UNL     1      -6.084 -10.604  12.473  0.00  0.00    +0.015 A 
ATOM     25  C   UNL     1      -8.199  -9.952  11.555  0.00  0.00    +0.165 A 
ATOM     27  C   UNL     1     -10.484  -9.195  10.925  0.00  0.00    +0.224 C 
ATOM     39  H   UNL     1      -8.943  -9.886   9.687  0.00  0.00    +0.157 HD
ENDROOT
BRANCH  27  28
ATOM     28  C   UNL     1     -11.366  -9.016   9.663  0.00  0.00    +0.039 C 
ATOM     30  C   UNL     1     -11.878 -10.391   9.197  0.00  0.00    +0.020 C 
ATOM     31  C   UNL     1     -10.542  -8.394   8.524  0.00  0.00    +0.020 C 
ATOM     32  C   UNL     1     -12.580  -8.131   9.984  0.00  0.00    +0.020 C 
ENDBRANCH  27  28
BRANCH  15   2
ATOM      2  O   UNL     1      -1.292 -11.044  16.538  0.00  0.00    -0.391 OA
ATOM     36  H   UNL     1      -0.660 -10.906  15.811  0.00  0.00    +0.210 HD
ENDBRANCH  15   2
BRANCH  12  20
ATOM     20  C   UNL     1      -2.511 -12.534  14.452  0.00  0.00    +0.165 C 
BRANCH  20   3
ATOM      3  O   UNL     1      -1.489 -12.640  13.487  0.00  0.00    -0.394 OA
ATOM     37  H   UNL     1      -0.639 -12.576  13.956  0.00  0.00    +0.209 HD
ENDBRANCH  20   3
ENDBRANCH  12  20
BRANCH  13  23
ATOM     23  C   UNL     1      -8.005 -10.416  15.698  0.00  0.00    +0.106 C 
BRANCH  23  24
ATOM      4  O   UNL     1      -8.243  -8.947  17.605  0.00  0.00    -0.276 OA
ATOM      8  N   UNL     1      -9.328  -8.430  15.616  0.00  0.00    -0.308 N 
ATOM     24  C   UNL     1      -8.517  -9.201  16.435  0.00  0.00    +0.214 C 
ATOM     38  H   UNL     1      -9.481  -8.718  14.654  0.00  0.00    +0.149 HD
BRANCH   8  26
ATOM     26  C   UNL     1      -9.961  -7.208  16.056  0.00  0.00    +0.178 C 
BRANCH  26  29
ATOM      6  O   UNL     1     -11.916  -8.457  15.341  0.00  0.00    -0.466 OA
ATOM     29  C   UNL     1     -11.422  -7.252  15.726  0.00  0.00    +0.122 A 
ATOM     33  C   UNL     1     -12.414  -6.300  15.727  0.00  0.00    +0.046 A 
ATOM     34  C   UNL     1     -13.595  -6.962  15.315  0.00  0.00    +0.041 A 
ATOM     35  C   UNL     1     -13.240  -8.273  15.093  0.00  0.00    +0.195 A 
ENDBRANCH  26  29
ENDBRANCH   8  26
ENDBRANCH  23  24
ENDBRANCH  13  23
TORSDOF 8
ENDMDL
