REMARK  Name = 11884160
REMARK  10 active torsions:
REMARK  status: ('A' for Active; 'I' for Inactive)
REMARK    1  A    between atoms: O_3  and  C_13
REMARK    2  A    between atoms: O_3  and  C_17
REMARK    3  A    between atoms: N_7  and  C_12
REMARK    4  A    between atoms: N_8  and  C_18
REMARK    5  A    between atoms: N_9  and  C_19
REMARK    6  A    between atoms: C_22  and  C_23
REMARK    7  A    between atoms: C_23  and  C_28
REMARK    8  A    between atoms: C_23  and  C_29
REMARK    9  A    between atoms: C_32  and  C_33
REMARK   10  A    between atoms: C_33  and  C_34
REMARK                            x       y       z     vdW  Elec       q    Type
REMARK                         _______ _______ _______ _____ _____    ______ ____
ROOT
ATOM      1  O   UNL     1       0.566   1.769   1.329  0.00  0.00    -0.368 OA
ATOM      2  O   UNL     1      -0.340   3.366  -1.127  0.00  0.00    -0.368 OA
ATOM     10  C   UNL     1      -0.763   2.088  -0.609  0.00  0.00    +0.173 C 
ATOM     11  C   UNL     1       0.474   1.406  -0.058  0.00  0.00    +0.192 C 
ATOM     12  C   UNL     1      -1.639   2.284   0.606  0.00  0.00    +0.131 C 
ATOM     13  C   UNL     1       1.581   2.030  -0.875  0.00  0.00    +0.235 C 
ATOM     14  C   UNL     1      -0.617   2.487   1.711  0.00  0.00    +0.185 C 
ATOM     15  C   UNL     1       1.090   3.450  -1.045  0.00  0.00    +0.207 C 
ENDROOT
BRANCH  12   7
ATOM      4  O   UNL     1      -4.335   1.866  -0.269  0.00  0.00    -0.252 OA
ATOM      7  N   UNL     1      -2.457   1.121   0.855  0.00  0.00    -0.292 N 
ATOM      8  N   UNL     1      -4.311  -0.233   0.782  0.00  0.00    -0.269 N 
ATOM     16  C   UNL     1      -3.772   0.995   0.389  0.00  0.00    +0.304 C 
ATOM     35  H   UNL     1      -2.038   0.330   1.335  0.00  0.00    +0.151 HD
ATOM     36  H   UNL     1      -3.708  -0.842   1.328  0.00  0.00    +0.156 HD
BRANCH   8  18
ATOM     18  C   UNL     1      -5.605  -0.738   0.513  0.00  0.00    +0.035 A 
ATOM     20  C   UNL     1      -6.510   0.021  -0.229  0.00  0.00    +0.023 A 
ATOM     21  C   UNL     1      -5.975  -1.996   0.990  0.00  0.00    +0.023 A 
ATOM     22  C   UNL     1      -8.156  -1.735  -0.017  0.00  0.00    -0.045 A 
ATOM     24  C   UNL     1      -7.785  -0.478  -0.494  0.00  0.00    +0.006 A 
ATOM     25  C   UNL     1      -7.250  -2.494   0.725  0.00  0.00    +0.006 A 
BRANCH  22  23
ATOM     23  C   UNL     1      -9.519  -2.269  -0.299  0.00  0.00    +0.013 C 
ATOM     28  C   UNL     1     -10.631  -1.399   0.318  0.00  0.00    +0.012 C 
ATOM     29  C   UNL     1      -9.778  -2.456  -1.806  0.00  0.00    +0.012 C 
ENDBRANCH  22  23
ENDBRANCH   8  18
ENDBRANCH  12   7
BRANCH  13   3
ATOM      3  O   UNL     1       2.842   1.976  -0.247  0.00  0.00    -0.442 OA
BRANCH   3  17
ATOM      5  O   UNL     1       3.304   0.018  -1.336  0.00  0.00    -0.226 OA
ATOM      9  N   UNL     1       4.838   0.997   0.137  0.00  0.00    -0.251 N 
ATOM     17  C   UNL     1       3.647   0.899  -0.556  0.00  0.00    +0.405 C 
ATOM     37  H   UNL     1       4.939   1.808   0.743  0.00  0.00    +0.158 HD
BRANCH   9  19
ATOM     19  C   UNL     1       5.936   0.109   0.111  0.00  0.00    +0.036 A 
ATOM     26  C   UNL     1       7.066   0.373   0.885  0.00  0.00    +0.024 A 
ATOM     27  C   UNL     1       5.892  -1.032  -0.690  0.00  0.00    +0.024 A 
ATOM     30  C   UNL     1       8.151  -0.503   0.858  0.00  0.00    +0.013 A 
ATOM     31  C   UNL     1       6.977  -1.909  -0.718  0.00  0.00    +0.013 A 
ATOM     32  C   UNL     1       8.106  -1.644   0.057  0.00  0.00    +0.017 A 
BRANCH  32  33
ATOM      6  O   UNL     1       9.084  -3.777  -0.180  0.00  0.00    -0.292 OA
ATOM     33  C   UNL     1       9.237  -2.557   0.029  0.00  0.00    +0.160 C 
ATOM     34  C   UNL     1      10.652  -2.037   0.260  0.00  0.00    +0.091 C 
ENDBRANCH  32  33
ENDBRANCH   9  19
ENDBRANCH   3  17
ENDBRANCH  13   3
TORSDOF 7
