MODEL 1
REMARK VINA RESULT:      -6.3      0.000      0.000
REMARK  Name = 45783442
REMARK  9 active torsions:
REMARK  status: ('A' for Active; 'I' for Inactive)
REMARK    1  A    between atoms: O_3  and  C_22
REMARK    2  A    between atoms: O_3  and  C_25
REMARK    3  A    between atoms: O_4  and  C_26
REMARK    4  A    between atoms: O_4  and  C_27
REMARK    5  A    between atoms: N_5  and  C_13
REMARK    6  A    between atoms: C_9  and  C_14
REMARK    7  A    between atoms: C_13  and  C_15
REMARK    8  A    between atoms: C_17  and  C_20
REMARK    9  A    between atoms: C_25  and  C_26
REMARK                            x       y       z     vdW  Elec       q    Type
REMARK                         _______ _______ _______ _____ _____    ______ ____
ROOT
ATOM      1  O   UNL     1      14.192   6.528  20.328  0.00  0.00    -0.336 OA
ATOM      6  N   UNL     1      15.856   7.498  19.184  0.00  0.00    -0.189 NA
ATOM      7  N   UNL     1      15.348   6.353  21.099  0.00  0.00    -0.054 NA
ATOM     14  C   UNL     1      14.580   7.211  19.219  0.00  0.00    +0.245 A 
ATOM     17  C   UNL     1      16.286   6.952  20.359  0.00  0.00    +0.221 A 
ENDROOT
BRANCH  17  20
ATOM      8  N   UNL     1      17.985   8.061  21.563  0.00  0.00    -0.252 NA
ATOM     20  C   UNL     1      17.660   7.021  20.763  0.00  0.00    +0.115 A 
ATOM     21  C   UNL     1      18.563   6.059  20.337  0.00  0.00    +0.077 A 
ATOM     22  C   UNL     1      19.883   6.173  20.758  0.00  0.00    +0.124 A 
ATOM     23  C   UNL     1      19.278   8.139  21.952  0.00  0.00    +0.115 A 
ATOM     24  C   UNL     1      20.255   7.230  21.581  0.00  0.00    +0.065 A 
BRANCH  22   3
ATOM      3  O   UNL     1      20.807   5.254  20.367  0.00  0.00    -0.490 OA
BRANCH   3  25
ATOM     25  C   UNL     1      22.014   5.182  21.127  0.00  0.00    +0.257 C 
BRANCH  25  26
ATOM     26  C   UNL     1      22.002   3.914  21.957  0.00  0.00    +0.200 C 
BRANCH  26   4
ATOM      4  O   UNL     1      21.878   4.261  23.332  0.00  0.00    -0.380 OA
ATOM     27  C   UNL     1      22.765   5.311  23.687  0.00  0.00    +0.194 C 
ENDBRANCH  26   4
ENDBRANCH  25  26
ENDBRANCH   3  25
ENDBRANCH  22   3
ENDBRANCH  17  20
BRANCH  14   9
ATOM      5  N   UNL     1      12.686   8.702  18.599  0.00  0.00    -0.284 NA
ATOM      9  C   UNL     1      13.496   7.530  18.211  0.00  0.00    +0.146 C 
ATOM     10  C   UNL     1      14.061   7.889  16.824  0.00  0.00    +0.030 C 
ATOM     11  C   UNL     1      13.466   9.250  16.491  0.00  0.00    +0.017 C 
ATOM     12  C   UNL     1      12.223   9.316  17.355  0.00  0.00    +0.085 C 
BRANCH   5  13
ATOM     13  C   UNL     1      11.582   8.367  19.490  0.00  0.00    +0.159 C 
BRANCH  13  15
ATOM      2  O   UNL     1      10.711   8.919  21.695  0.00  0.00    -0.467 OA
ATOM     15  C   UNL     1      11.496   9.314  20.658  0.00  0.00    +0.119 A 
ATOM     16  C   UNL     1      12.058  10.542  20.918  0.00  0.00    +0.046 A 
ATOM     18  C   UNL     1      11.591  10.925  22.196  0.00  0.00    +0.041 A 
ATOM     19  C   UNL     1      10.774   9.905  22.628  0.00  0.00    +0.195 A 
ENDBRANCH  13  15
ENDBRANCH   5  13
ENDBRANCH  14   9
TORSDOF 8
ENDMDL
MODEL 2
REMARK VINA RESULT:      -6.2      2.032      2.469
REMARK  Name = 45783442
REMARK  9 active torsions:
REMARK  status: ('A' for Active; 'I' for Inactive)
REMARK    1  A    between atoms: O_3  and  C_22
REMARK    2  A    between atoms: O_3  and  C_25
REMARK    3  A    between atoms: O_4  and  C_26
REMARK    4  A    between atoms: O_4  and  C_27
REMARK    5  A    between atoms: N_5  and  C_13
REMARK    6  A    between atoms: C_9  and  C_14
REMARK    7  A    between atoms: C_13  and  C_15
REMARK    8  A    between atoms: C_17  and  C_20
REMARK    9  A    between atoms: C_25  and  C_26
REMARK                            x       y       z     vdW  Elec       q    Type
REMARK                         _______ _______ _______ _____ _____    ______ ____
ROOT
ATOM      1  O   UNL     1      16.249   5.976  18.559  0.00  0.00    -0.336 OA
ATOM      6  N   UNL     1      16.720   7.087  20.447  0.00  0.00    -0.189 NA
ATOM      7  N   UNL     1      17.544   5.589  18.926  0.00  0.00    -0.054 NA
ATOM     14  C   UNL     1      15.838   6.857  19.508  0.00  0.00    +0.245 A 
ATOM     17  C   UNL     1      17.750   6.286  20.047  0.00  0.00    +0.221 A 
ENDROOT
BRANCH  17  20
ATOM      8  N   UNL     1      19.033   6.967  21.907  0.00  0.00    -0.252 NA
ATOM     20  C   UNL     1      18.974   6.206  20.791  0.00  0.00    +0.115 A 
ATOM     21  C   UNL     1      20.005   5.387  20.355  0.00  0.00    +0.077 A 
ATOM     22  C   UNL     1      21.169   5.348  21.112  0.00  0.00    +0.124 A 
ATOM     23  C   UNL     1      20.181   6.902  22.618  0.00  0.00    +0.115 A 
ATOM     24  C   UNL     1      21.268   6.116  22.267  0.00  0.00    +0.065 A 
BRANCH  22   3
ATOM      3  O   UNL     1      22.209   4.559  20.727  0.00  0.00    -0.490 OA
BRANCH   3  25
ATOM     25  C   UNL     1      22.209   3.210  21.194  0.00  0.00    +0.257 C 
BRANCH  25  26
ATOM     26  C   UNL     1      23.599   2.856  21.685  0.00  0.00    +0.200 C 
BRANCH  26   4
ATOM      4  O   UNL     1      23.845   1.478  21.429  0.00  0.00    -0.380 OA
ATOM     27  C   UNL     1      25.224   1.163  21.551  0.00  0.00    +0.194 C 
ENDBRANCH  26   4
ENDBRANCH  25  26
ENDBRANCH   3  25
ENDBRANCH  22   3
ENDBRANCH  17  20
BRANCH  14   9
ATOM      5  N   UNL     1      14.276   8.725  20.028  0.00  0.00    -0.284 NA
ATOM      9  C   UNL     1      14.446   7.431  19.337  0.00  0.00    +0.146 C 
ATOM     10  C   UNL     1      14.101   7.726  17.865  0.00  0.00    +0.030 C 
ATOM     11  C   UNL     1      13.691   9.191  17.839  0.00  0.00    +0.017 C 
ATOM     12  C   UNL     1      13.274   9.471  19.268  0.00  0.00    +0.085 C 
BRANCH   5  13
ATOM     13  C   UNL     1      13.908   8.583  21.430  0.00  0.00    +0.159 C 
BRANCH  13  15
ATOM      2  O   UNL     1      12.475   6.618  21.329  0.00  0.00    -0.467 OA
ATOM     15  C   UNL     1      12.552   7.949  21.594  0.00  0.00    +0.119 A 
ATOM     16  C   UNL     1      11.323   8.439  21.968  0.00  0.00    +0.046 A 
ATOM     18  C   UNL     1      10.433   7.340  21.931  0.00  0.00    +0.041 A 
ATOM     19  C   UNL     1      11.182   6.255  21.536  0.00  0.00    +0.195 A 
ENDBRANCH  13  15
ENDBRANCH   5  13
ENDBRANCH  14   9
TORSDOF 8
ENDMDL
MODEL 3
REMARK VINA RESULT:      -6.1     26.260     29.813
REMARK  Name = 45783442
REMARK  9 active torsions:
REMARK  status: ('A' for Active; 'I' for Inactive)
REMARK    1  A    between atoms: O_3  and  C_22
REMARK    2  A    between atoms: O_3  and  C_25
REMARK    3  A    between atoms: O_4  and  C_26
REMARK    4  A    between atoms: O_4  and  C_27
REMARK    5  A    between atoms: N_5  and  C_13
REMARK    6  A    between atoms: C_9  and  C_14
REMARK    7  A    between atoms: C_13  and  C_15
REMARK    8  A    between atoms: C_17  and  C_20
REMARK    9  A    between atoms: C_25  and  C_26
REMARK                            x       y       z     vdW  Elec       q    Type
REMARK                         _______ _______ _______ _____ _____    ______ ____
ROOT
ATOM      1  O   UNL     1      -4.220 -11.340  17.919  0.00  0.00    -0.336 OA
ATOM      6  N   UNL     1      -5.543 -10.555  16.290  0.00  0.00    -0.189 NA
ATOM      7  N   UNL     1      -5.439 -11.017  18.529  0.00  0.00    -0.054 NA
ATOM     14  C   UNL     1      -4.367 -11.038  16.603  0.00  0.00    +0.245 A 
ATOM     17  C   UNL     1      -6.166 -10.562  17.504  0.00  0.00    +0.221 A 
ENDROOT
BRANCH  17  20
ATOM      8  N   UNL     1      -8.302 -10.857  18.462  0.00  0.00    -0.252 NA
ATOM     20  C   UNL     1      -7.517 -10.104  17.660  0.00  0.00    +0.115 A 
ATOM     21  C   UNL     1      -7.946  -8.957  17.010  0.00  0.00    +0.077 A 
ATOM     22  C   UNL     1      -9.264  -8.558  17.195  0.00  0.00    +0.124 A 
ATOM     23  C   UNL     1      -9.578 -10.438  18.618  0.00  0.00    +0.115 A 
ATOM     24  C   UNL     1     -10.103  -9.307  18.013  0.00  0.00    +0.065 A 
BRANCH  22   3
ATOM      3  O   UNL     1      -9.733  -7.439  16.580  0.00  0.00    -0.490 OA
BRANCH   3  25
ATOM     25  C   UNL     1     -10.775  -7.613  15.619  0.00  0.00    +0.257 C 
BRANCH  25  26
ATOM     26  C   UNL     1     -11.720  -6.430  15.693  0.00  0.00    +0.200 C 
BRANCH  26   4
ATOM      4  O   UNL     1     -11.562  -5.636  14.524  0.00  0.00    -0.380 OA
ATOM     27  C   UNL     1     -12.814  -5.202  14.015  0.00  0.00    +0.194 C 
ENDBRANCH  26   4
ENDBRANCH  25  26
ENDBRANCH   3  25
ENDBRANCH  22   3
ENDBRANCH  17  20
BRANCH  14   9
ATOM      5  N   UNL     1      -3.219 -10.533  14.453  0.00  0.00    -0.284 NA
ATOM      9  C   UNL     1      -3.170 -11.301  15.713  0.00  0.00    +0.146 C 
ATOM     10  C   UNL     1      -1.839 -10.888  16.370  0.00  0.00    +0.030 C 
ATOM     11  C   UNL     1      -1.184  -9.937  15.379  0.00  0.00    +0.017 C 
ATOM     12  C   UNL     1      -1.831 -10.298  14.057  0.00  0.00    +0.085 C 
BRANCH   5  13
ATOM     13  C   UNL     1      -3.983 -11.197  13.405  0.00  0.00    +0.159 C 
BRANCH  13  15
ATOM      2  O   UNL     1      -5.772  -9.675  12.763  0.00  0.00    -0.467 OA
ATOM     15  C   UNL     1      -4.569 -10.213  12.428  0.00  0.00    +0.119 A 
ATOM     16  C   UNL     1      -4.138  -9.716  11.220  0.00  0.00    +0.046 A 
ATOM     18  C   UNL     1      -5.140  -8.816  10.785  0.00  0.00    +0.041 A 
ATOM     19  C   UNL     1      -6.112  -8.826  11.758  0.00  0.00    +0.195 A 
ENDBRANCH  13  15
ENDBRANCH   5  13
ENDBRANCH  14   9
TORSDOF 8
ENDMDL
MODEL 4
REMARK VINA RESULT:      -5.9     31.448     33.398
REMARK  Name = 45783442
REMARK  9 active torsions:
REMARK  status: ('A' for Active; 'I' for Inactive)
REMARK    1  A    between atoms: O_3  and  C_22
REMARK    2  A    between atoms: O_3  and  C_25
REMARK    3  A    between atoms: O_4  and  C_26
REMARK    4  A    between atoms: O_4  and  C_27
REMARK    5  A    between atoms: N_5  and  C_13
REMARK    6  A    between atoms: C_9  and  C_14
REMARK    7  A    between atoms: C_13  and  C_15
REMARK    8  A    between atoms: C_17  and  C_20
REMARK    9  A    between atoms: C_25  and  C_26
REMARK                            x       y       z     vdW  Elec       q    Type
REMARK                         _______ _______ _______ _____ _____    ______ ____
ROOT
ATOM      1  O   UNL     1     -18.000   3.104  26.593  0.00  0.00    -0.336 OA
ATOM      6  N   UNL     1     -16.787   1.221  26.621  0.00  0.00    -0.189 NA
ATOM      7  N   UNL     1     -17.220   3.161  27.754  0.00  0.00    -0.054 NA
ATOM     14  C   UNL     1     -17.684   1.932  25.985  0.00  0.00    +0.245 A 
ATOM     17  C   UNL     1     -16.532   2.016  27.699  0.00  0.00    +0.221 A 
ENDROOT
BRANCH  17  20
ATOM      8  N   UNL     1     -15.445   0.307  28.911  0.00  0.00    -0.252 NA
ATOM     20  C   UNL     1     -15.585   1.637  28.708  0.00  0.00    +0.115 A 
ATOM     21  C   UNL     1     -14.880   2.606  29.405  0.00  0.00    +0.077 A 
ATOM     22  C   UNL     1     -13.975   2.183  30.372  0.00  0.00    +0.124 A 
ATOM     23  C   UNL     1     -14.556  -0.066  29.858  0.00  0.00    +0.115 A 
ATOM     24  C   UNL     1     -13.804   0.824  30.609  0.00  0.00    +0.065 A 
BRANCH  22   3
ATOM      3  O   UNL     1     -13.259   3.096  31.083  0.00  0.00    -0.490 OA
BRANCH   3  25
ATOM     25  C   UNL     1     -13.344   3.022  32.506  0.00  0.00    +0.257 C 
BRANCH  25  26
ATOM     26  C   UNL     1     -14.011   4.279  33.028  0.00  0.00    +0.200 C 
BRANCH  26   4
ATOM      4  O   UNL     1     -14.274   4.123  34.418  0.00  0.00    -0.380 OA
ATOM     27  C   UNL     1     -14.179   5.359  35.109  0.00  0.00    +0.194 C 
ENDBRANCH  26   4
ENDBRANCH  25  26
ENDBRANCH   3  25
ENDBRANCH  22   3
ENDBRANCH  17  20
BRANCH  14   9
ATOM      5  N   UNL     1     -17.557   1.859  23.500  0.00  0.00    -0.284 NA
ATOM      9  C   UNL     1     -18.404   1.630  24.687  0.00  0.00    +0.146 C 
ATOM     10  C   UNL     1     -18.839   0.156  24.577  0.00  0.00    +0.030 C 
ATOM     11  C   UNL     1     -18.239  -0.339  23.269  0.00  0.00    +0.017 C 
ATOM     12  C   UNL     1     -18.025   0.931  22.471  0.00  0.00    +0.085 C 
BRANCH   5  13
ATOM     13  C   UNL     1     -17.574   3.242  23.040  0.00  0.00    +0.159 C 
BRANCH  13  15
ATOM      2  O   UNL     1     -15.696   4.398  22.011  0.00  0.00    -0.467 OA
ATOM     15  C   UNL     1     -16.220   3.890  23.157  0.00  0.00    +0.119 A 
ATOM     16  C   UNL     1     -15.360   4.090  24.212  0.00  0.00    +0.046 A 
ATOM     18  C   UNL     1     -14.236   4.764  23.680  0.00  0.00    +0.041 A 
ATOM     19  C   UNL     1     -14.488   4.928  22.337  0.00  0.00    +0.195 A 
ENDBRANCH  13  15
ENDBRANCH   5  13
ENDBRANCH  14   9
TORSDOF 8
ENDMDL
MODEL 5
REMARK VINA RESULT:      -5.7     15.800     19.593
REMARK  Name = 45783442
REMARK  9 active torsions:
REMARK  status: ('A' for Active; 'I' for Inactive)
REMARK    1  A    between atoms: O_3  and  C_22
REMARK    2  A    between atoms: O_3  and  C_25
REMARK    3  A    between atoms: O_4  and  C_26
REMARK    4  A    between atoms: O_4  and  C_27
REMARK    5  A    between atoms: N_5  and  C_13
REMARK    6  A    between atoms: C_9  and  C_14
REMARK    7  A    between atoms: C_13  and  C_15
REMARK    8  A    between atoms: C_17  and  C_20
REMARK    9  A    between atoms: C_25  and  C_26
REMARK                            x       y       z     vdW  Elec       q    Type
REMARK                         _______ _______ _______ _____ _____    ______ ____
ROOT
ATOM      1  O   UNL     1      10.805   7.039   3.921  0.00  0.00    -0.336 OA
ATOM      6  N   UNL     1      10.889   4.805   3.776  0.00  0.00    -0.189 NA
ATOM      7  N   UNL     1      11.336   6.750   2.658  0.00  0.00    -0.054 NA
ATOM     14  C   UNL     1      10.569   5.839   4.512  0.00  0.00    +0.245 A 
ATOM     17  C   UNL     1      11.354   5.413   2.647  0.00  0.00    +0.221 A 
ENDROOT
BRANCH  17  20
ATOM      8  N   UNL     1      13.137   4.301   1.573  0.00  0.00    -0.252 NA
ATOM     20  C   UNL     1      11.833   4.657   1.526  0.00  0.00    +0.115 A 
ATOM     21  C   UNL     1      10.979   4.336   0.483  0.00  0.00    +0.077 A 
ATOM     22  C   UNL     1      11.495   3.602  -0.578  0.00  0.00    +0.124 A 
ATOM     23  C   UNL     1      13.603   3.588   0.523  0.00  0.00    +0.115 A 
ATOM     24  C   UNL     1      12.831   3.217  -0.566  0.00  0.00    +0.065 A 
BRANCH  22   3
ATOM      3  O   UNL     1      10.696   3.261  -1.626  0.00  0.00    -0.490 OA
BRANCH   3  25
ATOM     25  C   UNL     1      11.333   2.690  -2.769  0.00  0.00    +0.257 C 
BRANCH  25  26
ATOM     26  C   UNL     1      10.407   2.811  -3.964  0.00  0.00    +0.200 C 
BRANCH  26   4
ATOM      4  O   UNL     1       9.132   3.260  -3.519  0.00  0.00    -0.380 OA
ATOM     27  C   UNL     1       8.680   4.376  -4.272  0.00  0.00    +0.194 C 
ENDBRANCH  26   4
ENDBRANCH  25  26
ENDBRANCH   3  25
ENDBRANCH  22   3
ENDBRANCH  17  20
BRANCH  14   9
ATOM      5  N   UNL     1      10.591   6.930   6.749  0.00  0.00    -0.284 NA
ATOM      9  C   UNL     1       9.984   5.879   5.908  0.00  0.00    +0.146 C 
ATOM     10  C   UNL     1       8.477   6.198   5.912  0.00  0.00    +0.030 C 
ATOM     11  C   UNL     1       8.328   7.404   6.829  0.00  0.00    +0.017 C 
ATOM     12  C   UNL     1       9.563   7.341   7.705  0.00  0.00    +0.085 C 
BRANCH   5  13
ATOM     13  C   UNL     1      11.815   6.498   7.412  0.00  0.00    +0.159 C 
BRANCH  13  15
ATOM      2  O   UNL     1      12.809   8.665   6.917  0.00  0.00    -0.467 OA
ATOM     15  C   UNL     1      13.003   7.321   6.989  0.00  0.00    +0.119 A 
ATOM     16  C   UNL     1      14.295   7.000   6.644  0.00  0.00    +0.046 A 
ATOM     18  C   UNL     1      14.936   8.224   6.341  0.00  0.00    +0.041 A 
ATOM     19  C   UNL     1      13.990   9.207   6.522  0.00  0.00    +0.195 A 
ENDBRANCH  13  15
ENDBRANCH   5  13
ENDBRANCH  14   9
TORSDOF 8
ENDMDL
MODEL 6
REMARK VINA RESULT:      -5.7     26.728     30.098
REMARK  Name = 45783442
REMARK  9 active torsions:
REMARK  status: ('A' for Active; 'I' for Inactive)
REMARK    1  A    between atoms: O_3  and  C_22
REMARK    2  A    between atoms: O_3  and  C_25
REMARK    3  A    between atoms: O_4  and  C_26
REMARK    4  A    between atoms: O_4  and  C_27
REMARK    5  A    between atoms: N_5  and  C_13
REMARK    6  A    between atoms: C_9  and  C_14
REMARK    7  A    between atoms: C_13  and  C_15
REMARK    8  A    between atoms: C_17  and  C_20
REMARK    9  A    between atoms: C_25  and  C_26
REMARK                            x       y       z     vdW  Elec       q    Type
REMARK                         _______ _______ _______ _____ _____    ______ ____
ROOT
ATOM      1  O   UNL     1      -5.142  -9.753  15.812  0.00  0.00    -0.336 OA
ATOM      6  N   UNL     1      -5.209 -11.679  16.953  0.00  0.00    -0.189 NA
ATOM      7  N   UNL     1      -6.316  -9.713  16.575  0.00  0.00    -0.054 NA
ATOM     14  C   UNL     1      -4.551 -10.943  16.095  0.00  0.00    +0.245 A 
ATOM     17  C   UNL     1      -6.284 -10.883  17.220  0.00  0.00    +0.221 A 
ENDROOT
BRANCH  17  20
ATOM      8  N   UNL     1      -7.102 -12.459  18.774  0.00  0.00    -0.252 NA
ATOM     20  C   UNL     1      -7.312 -11.286  18.135  0.00  0.00    +0.115 A 
ATOM     21  C   UNL     1      -8.433 -10.492  18.322  0.00  0.00    +0.077 A 
ATOM     22  C   UNL     1      -9.399 -10.931  19.220  0.00  0.00    +0.124 A 
ATOM     23  C   UNL     1      -8.063 -12.853  19.639  0.00  0.00    +0.115 A 
ATOM     24  C   UNL     1      -9.218 -12.132  19.895  0.00  0.00    +0.065 A 
BRANCH  22   3
ATOM      3  O   UNL     1     -10.518 -10.187  19.438  0.00  0.00    -0.490 OA
BRANCH   3  25
ATOM     25  C   UNL     1     -11.751 -10.705  18.939  0.00  0.00    +0.257 C 
BRANCH  25  26
ATOM     26  C   UNL     1     -12.202  -9.864  17.761  0.00  0.00    +0.200 C 
BRANCH  26   4
ATOM      4  O   UNL     1     -11.544  -8.603  17.813  0.00  0.00    -0.380 OA
ATOM     27  C   UNL     1     -11.245  -8.117  16.513  0.00  0.00    +0.194 C 
ENDBRANCH  26   4
ENDBRANCH  25  26
ENDBRANCH   3  25
ENDBRANCH  22   3
ENDBRANCH  17  20
BRANCH  14   9
ATOM      5  N   UNL     1      -3.105 -10.482  14.122  0.00  0.00    -0.284 NA
ATOM      9  C   UNL     1      -3.244 -11.232  15.386  0.00  0.00    +0.146 C 
ATOM     10  C   UNL     1      -2.013 -10.824  16.218  0.00  0.00    +0.030 C 
ATOM     11  C   UNL     1      -1.214  -9.894  15.317  0.00  0.00    +0.017 C 
ATOM     12  C   UNL     1      -1.673 -10.268  13.922  0.00  0.00    +0.085 C 
BRANCH   5  13
ATOM     13  C   UNL     1      -3.723 -11.153  12.985  0.00  0.00    +0.159 C 
BRANCH  13  15
ATOM      2  O   UNL     1      -5.002  -9.427  11.840  0.00  0.00    -0.467 OA
ATOM     15  C   UNL     1      -3.902 -10.224  11.813  0.00  0.00    +0.119 A 
ATOM     16  C   UNL     1      -3.166  -9.994  10.674  0.00  0.00    +0.046 A 
ATOM     18  C   UNL     1      -3.859  -8.992   9.955  0.00  0.00    +0.041 A 
ATOM     19  C   UNL     1      -4.969  -8.680  10.706  0.00  0.00    +0.195 A 
ENDBRANCH  13  15
ENDBRANCH   5  13
ENDBRANCH  14   9
TORSDOF 8
ENDMDL
MODEL 7
REMARK VINA RESULT:      -5.6     15.677     19.217
REMARK  Name = 45783442
REMARK  9 active torsions:
REMARK  status: ('A' for Active; 'I' for Inactive)
REMARK    1  A    between atoms: O_3  and  C_22
REMARK    2  A    between atoms: O_3  and  C_25
REMARK    3  A    between atoms: O_4  and  C_26
REMARK    4  A    between atoms: O_4  and  C_27
REMARK    5  A    between atoms: N_5  and  C_13
REMARK    6  A    between atoms: C_9  and  C_14
REMARK    7  A    between atoms: C_13  and  C_15
REMARK    8  A    between atoms: C_17  and  C_20
REMARK    9  A    between atoms: C_25  and  C_26
REMARK                            x       y       z     vdW  Elec       q    Type
REMARK                         _______ _______ _______ _____ _____    ______ ____
ROOT
ATOM      1  O   UNL     1      11.158   7.435   3.609  0.00  0.00    -0.336 OA
ATOM      6  N   UNL     1      11.151   5.213   3.321  0.00  0.00    -0.189 NA
ATOM      7  N   UNL     1      11.984   7.183   2.507  0.00  0.00    -0.054 NA
ATOM     14  C   UNL     1      10.709   6.223   4.027  0.00  0.00    +0.245 A 
ATOM     17  C   UNL     1      11.929   5.851   2.400  0.00  0.00    +0.221 A 
ENDROOT
BRANCH  17  20
ATOM      8  N   UNL     1      13.814   4.579   1.771  0.00  0.00    -0.252 NA
ATOM     20  C   UNL     1      12.640   5.129   1.385  0.00  0.00    +0.115 A 
ATOM     21  C   UNL     1      12.121   5.028   0.104  0.00  0.00    +0.077 A 
ATOM     22  C   UNL     1      12.852   4.318  -0.841  0.00  0.00    +0.124 A 
ATOM     23  C   UNL     1      14.496   3.895   0.825  0.00  0.00    +0.115 A 
ATOM     24  C   UNL     1      14.063   3.737  -0.482  0.00  0.00    +0.065 A 
BRANCH  22   3
ATOM      3  O   UNL     1      12.383   4.190  -2.112  0.00  0.00    -0.490 OA
BRANCH   3  25
ATOM     25  C   UNL     1      11.068   3.658  -2.269  0.00  0.00    +0.257 C 
BRANCH  25  26
ATOM     26  C   UNL     1      11.157   2.152  -2.424  0.00  0.00    +0.200 C 
BRANCH  26   4
ATOM      4  O   UNL     1       9.934   1.668  -2.966  0.00  0.00    -0.380 OA
ATOM     27  C   UNL     1       9.352   2.605  -3.859  0.00  0.00    +0.194 C 
ENDBRANCH  26   4
ENDBRANCH  25  26
ENDBRANCH   3  25
ENDBRANCH  22   3
ENDBRANCH  17  20
BRANCH  14   9
ATOM      5  N   UNL     1      10.302   7.034   6.345  0.00  0.00    -0.284 NA
ATOM      9  C   UNL     1       9.783   6.224   5.225  0.00  0.00    +0.146 C 
ATOM     10  C   UNL     1       8.404   6.834   4.910  0.00  0.00    +0.030 C 
ATOM     11  C   UNL     1       8.211   7.937   5.941  0.00  0.00    +0.017 C 
ATOM     12  C   UNL     1       9.136   7.533   7.072  0.00  0.00    +0.085 C 
BRANCH   5  13
ATOM     13  C   UNL     1      11.214   6.298   7.211  0.00  0.00    +0.159 C 
BRANCH  13  15
ATOM      2  O   UNL     1      10.559   5.681   9.473  0.00  0.00    -0.467 OA
ATOM     15  C   UNL     1      10.478   5.379   8.150  0.00  0.00    +0.119 A 
ATOM     16  C   UNL     1       9.709   4.255   7.957  0.00  0.00    +0.046 A 
ATOM     18  C   UNL     1       9.291   3.839   9.243  0.00  0.00    +0.041 A 
ATOM     19  C   UNL     1       9.834   4.739  10.132  0.00  0.00    +0.195 A 
ENDBRANCH  13  15
ENDBRANCH   5  13
ENDBRANCH  14   9
TORSDOF 8
ENDMDL
MODEL 8
REMARK VINA RESULT:      -5.5     26.621     30.160
REMARK  Name = 45783442
REMARK  9 active torsions:
REMARK  status: ('A' for Active; 'I' for Inactive)
REMARK    1  A    between atoms: O_3  and  C_22
REMARK    2  A    between atoms: O_3  and  C_25
REMARK    3  A    between atoms: O_4  and  C_26
REMARK    4  A    between atoms: O_4  and  C_27
REMARK    5  A    between atoms: N_5  and  C_13
REMARK    6  A    between atoms: C_9  and  C_14
REMARK    7  A    between atoms: C_13  and  C_15
REMARK    8  A    between atoms: C_17  and  C_20
REMARK    9  A    between atoms: C_25  and  C_26
REMARK                            x       y       z     vdW  Elec       q    Type
REMARK                         _______ _______ _______ _____ _____    ______ ____
ROOT
ATOM      1  O   UNL     1      -4.074 -11.225  17.970  0.00  0.00    -0.336 OA
ATOM      6  N   UNL     1      -5.461 -10.616  16.319  0.00  0.00    -0.189 NA
ATOM      7  N   UNL     1      -5.293 -10.910  18.582  0.00  0.00    -0.054 NA
ATOM     14  C   UNL     1      -4.260 -11.026  16.639  0.00  0.00    +0.245 A 
ATOM     17  C   UNL     1      -6.059 -10.561  17.544  0.00  0.00    +0.221 A 
ENDROOT
BRANCH  17  20
ATOM      8  N   UNL     1      -8.178 -10.913  18.521  0.00  0.00    -0.252 NA
ATOM     20  C   UNL     1      -7.425 -10.150  17.698  0.00  0.00    +0.115 A 
ATOM     21  C   UNL     1      -7.899  -9.034  17.025  0.00  0.00    +0.077 A 
ATOM     22  C   UNL     1      -9.231  -8.680  17.209  0.00  0.00    +0.124 A 
ATOM     23  C   UNL     1      -9.468 -10.538  18.675  0.00  0.00    +0.115 A 
ATOM     24  C   UNL     1     -10.037  -9.441  18.048  0.00  0.00    +0.065 A 
BRANCH  22   3
ATOM      3  O   UNL     1      -9.743  -7.593  16.572  0.00  0.00    -0.490 OA
BRANCH   3  25
ATOM     25  C   UNL     1     -11.157  -7.402  16.648  0.00  0.00    +0.257 C 
BRANCH  25  26
ATOM     26  C   UNL     1     -11.494  -6.005  16.164  0.00  0.00    +0.200 C 
BRANCH  26   4
ATOM      4  O   UNL     1     -12.769  -6.028  15.533  0.00  0.00    -0.380 OA
ATOM     27  C   UNL     1     -12.738  -5.379  14.270  0.00  0.00    +0.194 C 
ENDBRANCH  26   4
ENDBRANCH  25  26
ENDBRANCH   3  25
ENDBRANCH  22   3
ENDBRANCH  17  20
BRANCH  14   9
ATOM      5  N   UNL     1      -3.186 -10.647  14.425  0.00  0.00    -0.284 NA
ATOM      9  C   UNL     1      -3.070 -11.302  15.743  0.00  0.00    +0.146 C 
ATOM     10  C   UNL     1      -1.749 -10.769  16.329  0.00  0.00    +0.030 C 
ATOM     11  C   UNL     1      -1.166  -9.873  15.245  0.00  0.00    +0.017 C 
ATOM     12  C   UNL     1      -1.821 -10.377  13.975  0.00  0.00    +0.085 C 
BRANCH   5  13
ATOM     13  C   UNL     1      -3.937 -11.435  13.457  0.00  0.00    +0.159 C 
BRANCH  13  15
ATOM      2  O   UNL     1      -4.341 -13.755  14.074  0.00  0.00    -0.467 OA
ATOM     15  C   UNL     1      -3.508 -12.878  13.453  0.00  0.00    +0.119 A 
ATOM     16  C   UNL     1      -2.413 -13.534  12.939  0.00  0.00    +0.046 A 
ATOM     18  C   UNL     1      -2.584 -14.900  13.265  0.00  0.00    +0.041 A 
ATOM     19  C   UNL     1      -3.772 -14.983  13.955  0.00  0.00    +0.195 A 
ENDBRANCH  13  15
ENDBRANCH   5  13
ENDBRANCH  14   9
TORSDOF 8
ENDMDL
MODEL 9
REMARK VINA RESULT:      -5.5     16.345     20.182
REMARK  Name = 45783442
REMARK  9 active torsions:
REMARK  status: ('A' for Active; 'I' for Inactive)
REMARK    1  A    between atoms: O_3  and  C_22
REMARK    2  A    between atoms: O_3  and  C_25
REMARK    3  A    between atoms: O_4  and  C_26
REMARK    4  A    between atoms: O_4  and  C_27
REMARK    5  A    between atoms: N_5  and  C_13
REMARK    6  A    between atoms: C_9  and  C_14
REMARK    7  A    between atoms: C_13  and  C_15
REMARK    8  A    between atoms: C_17  and  C_20
REMARK    9  A    between atoms: C_25  and  C_26
REMARK                            x       y       z     vdW  Elec       q    Type
REMARK                         _______ _______ _______ _____ _____    ______ ____
ROOT
ATOM      1  O   UNL     1      11.945   2.928   2.339  0.00  0.00    -0.336 OA
ATOM      6  N   UNL     1      11.897   5.085   1.733  0.00  0.00    -0.189 NA
ATOM      7  N   UNL     1      10.946   3.529   3.116  0.00  0.00    -0.054 NA
ATOM     14  C   UNL     1      12.453   3.913   1.553  0.00  0.00    +0.245 A 
ATOM     17  C   UNL     1      10.978   4.799   2.700  0.00  0.00    +0.221 A 
ENDROOT
BRANCH  17  20
ATOM      8  N   UNL     1       9.788   6.813   2.387  0.00  0.00    -0.252 NA
ATOM     20  C   UNL     1      10.107   5.807   3.233  0.00  0.00    +0.115 A 
ATOM     21  C   UNL     1       9.646   5.714   4.537  0.00  0.00    +0.077 A 
ATOM     22  C   UNL     1       8.805   6.718   5.003  0.00  0.00    +0.124 A 
ATOM     23  C   UNL     1       8.968   7.771   2.876  0.00  0.00    +0.115 A 
ATOM     24  C   UNL     1       8.455   7.770   4.163  0.00  0.00    +0.065 A 
BRANCH  22   3
ATOM      3  O   UNL     1       8.325   6.672   6.275  0.00  0.00    -0.490 OA
BRANCH   3  25
ATOM     25  C   UNL     1       9.241   6.984   7.326  0.00  0.00    +0.257 C 
BRANCH  25  26
ATOM     26  C   UNL     1       9.575   5.714   8.084  0.00  0.00    +0.200 C 
BRANCH  26   4
ATOM      4  O   UNL     1      10.952   5.736   8.442  0.00  0.00    -0.380 OA
ATOM     27  C   UNL     1      11.742   6.352   7.435  0.00  0.00    +0.194 C 
ENDBRANCH  26   4
ENDBRANCH  25  26
ENDBRANCH   3  25
ENDBRANCH  22   3
ENDBRANCH  17  20
BRANCH  14   9
ATOM      5  N   UNL     1      13.476   4.200  -0.697  0.00  0.00    -0.284 NA
ATOM      9  C   UNL     1      13.565   3.513   0.607  0.00  0.00    +0.146 C 
ATOM     10  C   UNL     1      14.962   3.876   1.144  0.00  0.00    +0.030 C 
ATOM     11  C   UNL     1      15.604   4.716   0.048  0.00  0.00    +0.017 C 
ATOM     12  C   UNL     1      14.844   4.315  -1.200  0.00  0.00    +0.085 C 
BRANCH   5  13
ATOM     13  C   UNL     1      12.599   3.523  -1.644  0.00  0.00    +0.159 C 
BRANCH  13  15
ATOM      2  O   UNL     1      10.357   4.375  -1.222  0.00  0.00    -0.467 OA
ATOM     15  C   UNL     1      11.435   4.389  -2.050  0.00  0.00    +0.119 A 
ATOM     16  C   UNL     1      11.213   5.227  -3.118  0.00  0.00    +0.046 A 
ATOM     18  C   UNL     1       9.916   5.761  -2.936  0.00  0.00    +0.041 A 
ATOM     19  C   UNL     1       9.437   5.213  -1.768  0.00  0.00    +0.195 A 
ENDBRANCH  13  15
ENDBRANCH   5  13
ENDBRANCH  14   9
TORSDOF 8
ENDMDL
MODEL 10
REMARK VINA RESULT:      -5.5     27.124     29.433
REMARK  Name = 45783442
REMARK  9 active torsions:
REMARK  status: ('A' for Active; 'I' for Inactive)
REMARK    1  A    between atoms: O_3  and  C_22
REMARK    2  A    between atoms: O_3  and  C_25
REMARK    3  A    between atoms: O_4  and  C_26
REMARK    4  A    between atoms: O_4  and  C_27
REMARK    5  A    between atoms: N_5  and  C_13
REMARK    6  A    between atoms: C_9  and  C_14
REMARK    7  A    between atoms: C_13  and  C_15
REMARK    8  A    between atoms: C_17  and  C_20
REMARK    9  A    between atoms: C_25  and  C_26
REMARK                            x       y       z     vdW  Elec       q    Type
REMARK                         _______ _______ _______ _____ _____    ______ ____
ROOT
ATOM      1  O   UNL     1      -3.493 -11.089  17.247  0.00  0.00    -0.336 OA
ATOM      6  N   UNL     1      -4.954 -10.481  15.661  0.00  0.00    -0.189 NA
ATOM      7  N   UNL     1      -2.782 -11.090  16.040  0.00  0.00    -0.054 NA
ATOM     14  C   UNL     1      -4.762 -10.719  16.934  0.00  0.00    +0.245 A 
ATOM     17  C   UNL     1      -3.711 -10.721  15.153  0.00  0.00    +0.221 A 
ENDROOT
BRANCH  17  20
ATOM      8  N   UNL     1      -2.122 -10.598  13.414  0.00  0.00    -0.252 NA
ATOM     20  C   UNL     1      -3.430 -10.587  13.753  0.00  0.00    +0.115 A 
ATOM     21  C   UNL     1      -4.466 -10.455  12.842  0.00  0.00    +0.077 A 
ATOM     22  C   UNL     1      -4.138 -10.326  11.497  0.00  0.00    +0.124 A 
ATOM     23  C   UNL     1      -1.841 -10.472  12.098  0.00  0.00    +0.115 A 
ATOM     24  C   UNL     1      -2.803 -10.334  11.109  0.00  0.00    +0.065 A 
BRANCH  22   3
ATOM      3  O   UNL     1      -5.119 -10.195  10.563  0.00  0.00    -0.490 OA
BRANCH   3  25
ATOM     25  C   UNL     1      -4.756  -9.595   9.319  0.00  0.00    +0.257 C 
BRANCH  25  26
ATOM     26  C   UNL     1      -5.001 -10.588   8.201  0.00  0.00    +0.200 C 
BRANCH  26   4
ATOM      4  O   UNL     1      -5.517  -9.896   7.070  0.00  0.00    -0.380 OA
ATOM     27  C   UNL     1      -5.593 -10.740   5.931  0.00  0.00    +0.194 C 
ENDBRANCH  26   4
ENDBRANCH  25  26
ENDBRANCH   3  25
ENDBRANCH  22   3
ENDBRANCH  17  20
BRANCH  14   9
ATOM      5  N   UNL     1      -7.149 -10.614  17.632  0.00  0.00    -0.284 NA
ATOM      9  C   UNL     1      -5.744 -10.639  18.084  0.00  0.00    +0.146 C 
ATOM     10  C   UNL     1      -5.659 -11.857  19.024  0.00  0.00    +0.030 C 
ATOM     11  C   UNL     1      -7.075 -12.412  19.084  0.00  0.00    +0.017 C 
ATOM     12  C   UNL     1      -7.939 -11.229  18.697  0.00  0.00    +0.085 C 
BRANCH   5  13
ATOM     13  C   UNL     1      -7.622  -9.275  17.302  0.00  0.00    +0.159 C 
BRANCH  13  15
ATOM      2  O   UNL     1      -9.553  -8.391  16.113  0.00  0.00    -0.467 OA
ATOM     15  C   UNL     1      -8.524  -9.279  16.097  0.00  0.00    +0.119 A 
ATOM     16  C   UNL     1      -8.539 -10.013  14.934  0.00  0.00    +0.046 A 
ATOM     18  C   UNL     1      -9.646  -9.547  14.188  0.00  0.00    +0.041 A 
ATOM     19  C   UNL     1     -10.232  -8.560  14.948  0.00  0.00    +0.195 A 
ENDBRANCH  13  15
ENDBRANCH   5  13
ENDBRANCH  14   9
TORSDOF 8
ENDMDL
