REMARK  Name = 51137078
REMARK  2 active torsions:
REMARK  status: ('A' for Active; 'I' for Inactive)
REMARK    1  A    between atoms: N_2  and  C_9
REMARK    2  A    between atoms: C_4  and  C_8
REMARK                            x       y       z     vdW  Elec       q    Type
REMARK                         _______ _______ _______ _____ _____    ______ ____
ROOT
ATOM      1  S   UNL     1       0.805  -1.876  -0.222  0.00  0.00    -0.072 S 
ATOM      3  N   UNL     1       0.250   0.608   0.192  0.00  0.00    -0.244 NA
ATOM      8  C   UNL     1      -0.282  -0.583   0.046  0.00  0.00    +0.084 A 
ATOM     10  C   UNL     1       2.126  -0.770  -0.141  0.00  0.00    +0.039 A 
ATOM     11  C   UNL     1       1.630   0.517   0.087  0.00  0.00    +0.078 A 
ATOM     12  C   UNL     1       3.501  -1.024  -0.270  0.00  0.00    +0.017 A 
ATOM     13  C   UNL     1       2.546   1.587   0.189  0.00  0.00    +0.029 A 
ATOM     14  C   UNL     1       4.385   0.053  -0.166  0.00  0.00    +0.001 A 
ATOM     15  C   UNL     1       3.916   1.342   0.061  0.00  0.00    +0.002 A 
ENDROOT
BRANCH   8   4
ATOM      2  N   UNL     1      -3.865   0.078  -0.338  0.00  0.00    -0.305 NA
ATOM      4  C   UNL     1      -1.765  -0.868   0.102  0.00  0.00    +0.060 C 
ATOM      5  C   UNL     1      -2.446  -0.488   1.428  0.00  0.00    +0.027 C 
ATOM      6  C   UNL     1      -2.559  -0.114  -0.973  0.00  0.00    +0.094 C 
ATOM      7  C   UNL     1      -3.561   0.473   1.037  0.00  0.00    +0.085 C 
ATOM      9  C   UNL     1      -4.680   1.065  -1.031  0.00  0.00    +0.104 C 
ENDBRANCH   8   4
TORSDOF 1
