MODEL 1
REMARK VINA RESULT:      -7.6      0.000      0.000
REMARK  Name = 11883375
REMARK  7 active torsions:
REMARK  status: ('A' for Active; 'I' for Inactive)
REMARK    1  A    between atoms: O_3  and  C_13
REMARK    2  A    between atoms: O_3  and  C_17
REMARK    3  A    between atoms: N_7  and  C_12
REMARK    4  A    between atoms: N_8  and  C_18
REMARK    5  A    between atoms: N_9  and  C_19
REMARK    6  A    between atoms: C_24  and  C_30
REMARK    7  A    between atoms: C_30  and  C_31
REMARK                            x       y       z     vdW  Elec       q    Type
REMARK                         _______ _______ _______ _____ _____    ______ ____
ROOT
ATOM      1  O   UNL     1     -16.715   5.074  25.195  0.00  0.00    -0.368 OA
ATOM      2  O   UNL     1     -16.621   2.251  23.999  0.00  0.00    -0.368 OA
ATOM     10  C   UNL     1     -15.777   2.908  24.968  0.00  0.00    +0.173 C 
ATOM     11  C   UNL     1     -15.657   4.355  24.538  0.00  0.00    +0.192 C 
ATOM     12  C   UNL     1     -16.481   2.984  26.302  0.00  0.00    +0.131 C 
ATOM     13  C   UNL     1     -15.881   4.272  23.047  0.00  0.00    +0.235 C 
ATOM     14  C   UNL     1     -17.370   4.202  26.129  0.00  0.00    +0.185 C 
ATOM     15  C   UNL     1     -16.914   3.173  22.940  0.00  0.00    +0.207 C 
ENDROOT
BRANCH  12   7
ATOM      4  O   UNL     1     -16.931   2.452  29.082  0.00  0.00    -0.252 OA
ATOM      7  N   UNL     1     -15.539   3.170  27.380  0.00  0.00    -0.292 N 
ATOM      8  N   UNL     1     -14.739   3.162  29.534  0.00  0.00    -0.269 N 
ATOM     16  C   UNL     1     -15.839   2.884  28.718  0.00  0.00    +0.304 C 
ATOM     32  H   UNL     1     -14.638   3.588  27.170  0.00  0.00    +0.151 HD
ATOM     33  H   UNL     1     -13.906   3.516  29.071  0.00  0.00    +0.156 HD
BRANCH   8  18
ATOM     18  C   UNL     1     -14.638   3.009  30.937  0.00  0.00    +0.035 A 
ATOM     20  C   UNL     1     -14.702   1.735  31.504  0.00  0.00    +0.023 A 
ATOM     21  C   UNL     1     -14.475   4.128  31.752  0.00  0.00    +0.023 A 
ATOM     25  C   UNL     1     -14.603   1.583  32.887  0.00  0.00    +0.002 A 
ATOM     26  C   UNL     1     -14.376   3.976  33.134  0.00  0.00    +0.002 A 
ATOM     29  C   UNL     1     -14.439   2.703  33.702  0.00  0.00    +0.000 A 
ENDBRANCH   8  18
ENDBRANCH  12   7
BRANCH  13   3
ATOM      3  O   UNL     1     -16.330   5.480  22.476  0.00  0.00    -0.442 OA
BRANCH   3  17
ATOM      5  O   UNL     1     -15.783   5.973  20.311  0.00  0.00    -0.226 OA
ATOM      9  N   UNL     1     -14.456   6.680  22.105  0.00  0.00    -0.251 N 
ATOM     17  C   UNL     1     -15.529   6.049  21.507  0.00  0.00    +0.405 C 
ATOM     34  H   UNL     1     -14.417   6.634  23.121  0.00  0.00    +0.158 HD
BRANCH   9  19
ATOM     19  C   UNL     1     -13.401   7.383  21.480  0.00  0.00    +0.037 A 
ATOM     22  C   UNL     1     -13.348   8.775  21.555  0.00  0.00    +0.034 A 
ATOM     23  C   UNL     1     -12.412   6.684  20.787  0.00  0.00    +0.023 A 
ATOM     24  C   UNL     1     -12.308   9.468  20.938  0.00  0.00    +0.019 A 
ATOM     27  C   UNL     1     -11.371   7.379  20.170  0.00  0.00    +0.002 A 
ATOM     28  C   UNL     1     -11.319   8.770  20.245  0.00  0.00    +0.011 A 
BRANCH  24  30
ATOM      6  O   UNL     1     -12.326  11.515  22.110  0.00  0.00    -0.292 OA
ATOM     30  C   UNL     1     -12.253  10.919  21.017  0.00  0.00    +0.160 C 
ATOM     31  C   UNL     1     -12.103  11.753  19.749  0.00  0.00    +0.091 C 
ENDBRANCH  24  30
ENDBRANCH   9  19
ENDBRANCH   3  17
ENDBRANCH  13   3
TORSDOF 6
ENDMDL
MODEL 2
REMARK VINA RESULT:      -7.5     27.071     30.375
REMARK  Name = 11883375
REMARK  7 active torsions:
REMARK  status: ('A' for Active; 'I' for Inactive)
REMARK    1  A    between atoms: O_3  and  C_13
REMARK    2  A    between atoms: O_3  and  C_17
REMARK    3  A    between atoms: N_7  and  C_12
REMARK    4  A    between atoms: N_8  and  C_18
REMARK    5  A    between atoms: N_9  and  C_19
REMARK    6  A    between atoms: C_24  and  C_30
REMARK    7  A    between atoms: C_30  and  C_31
REMARK                            x       y       z     vdW  Elec       q    Type
REMARK                         _______ _______ _______ _____ _____    ______ ____
ROOT
ATOM      1  O   UNL     1      13.244   9.141  20.433  0.00  0.00    -0.368 OA
ATOM      2  O   UNL     1      11.295   6.781  20.647  0.00  0.00    -0.368 OA
ATOM     10  C   UNL     1      11.975   7.556  21.658  0.00  0.00    +0.173 C 
ATOM     11  C   UNL     1      13.351   7.879  21.114  0.00  0.00    +0.192 C 
ATOM     12  C   UNL     1      11.317   8.907  21.806  0.00  0.00    +0.131 C 
ATOM     13  C   UNL     1      13.595   6.743  20.150  0.00  0.00    +0.235 C 
ATOM     14  C   UNL     1      11.940   9.695  20.667  0.00  0.00    +0.185 C 
ATOM     15  C   UNL     1      12.214   6.504  19.581  0.00  0.00    +0.207 C 
ENDROOT
BRANCH  12   7
ATOM      4  O   UNL     1      10.998  11.659  22.538  0.00  0.00    -0.252 OA
ATOM      7  N   UNL     1      11.624   9.501  23.085  0.00  0.00    -0.292 N 
ATOM      8  N   UNL     1      11.821  11.147  24.676  0.00  0.00    -0.269 N 
ATOM     16  C   UNL     1      11.438  10.861  23.363  0.00  0.00    +0.304 C 
ATOM     32  H   UNL     1      12.055   8.921  23.798  0.00  0.00    +0.151 HD
ATOM     33  H   UNL     1      12.165  10.367  25.230  0.00  0.00    +0.156 HD
BRANCH   8  18
ATOM     18  C   UNL     1      11.786  12.397  25.338  0.00  0.00    +0.035 A 
ATOM     20  C   UNL     1      12.964  12.953  25.838  0.00  0.00    +0.023 A 
ATOM     21  C   UNL     1      10.576  13.073  25.490  0.00  0.00    +0.023 A 
ATOM     25  C   UNL     1      12.930  14.185  26.491  0.00  0.00    +0.002 A 
ATOM     26  C   UNL     1      10.543  14.305  26.143  0.00  0.00    +0.002 A 
ATOM     29  C   UNL     1      11.721  14.861  26.643  0.00  0.00    +0.000 A 
ENDBRANCH   8  18
ENDBRANCH  12   7
BRANCH  13   3
ATOM      3  O   UNL     1      14.536   7.048  19.146  0.00  0.00    -0.442 OA
BRANCH   3  17
ATOM      5  O   UNL     1      16.462   5.828  18.964  0.00  0.00    -0.226 OA
ATOM      9  N   UNL     1      16.348   7.754  20.290  0.00  0.00    -0.251 N 
ATOM     17  C   UNL     1      15.861   6.788  19.431  0.00  0.00    +0.405 C 
ATOM     34  H   UNL     1      15.691   8.479  20.570  0.00  0.00    +0.158 HD
BRANCH   9  19
ATOM     19  C   UNL     1      17.650   7.863  20.830  0.00  0.00    +0.037 A 
ATOM     22  C   UNL     1      18.442   6.724  20.977  0.00  0.00    +0.034 A 
ATOM     23  C   UNL     1      18.141   9.109  21.217  0.00  0.00    +0.023 A 
ATOM     24  C   UNL     1      19.726   6.832  21.510  0.00  0.00    +0.019 A 
ATOM     27  C   UNL     1      19.426   9.217  21.751  0.00  0.00    +0.002 A 
ATOM     28  C   UNL     1      20.218   8.078  21.898  0.00  0.00    +0.011 A 
BRANCH  24  30
ATOM      6  O   UNL     1      21.043   5.331  22.766  0.00  0.00    -0.292 OA
ATOM     30  C   UNL     1      20.552   5.646  21.663  0.00  0.00    +0.160 C 
ATOM     31  C   UNL     1      20.842   4.750  20.464  0.00  0.00    +0.091 C 
ENDBRANCH  24  30
ENDBRANCH   9  19
ENDBRANCH   3  17
ENDBRANCH  13   3
TORSDOF 6
ENDMDL
MODEL 3
REMARK VINA RESULT:      -7.4      1.515      1.862
REMARK  Name = 11883375
REMARK  7 active torsions:
REMARK  status: ('A' for Active; 'I' for Inactive)
REMARK    1  A    between atoms: O_3  and  C_13
REMARK    2  A    between atoms: O_3  and  C_17
REMARK    3  A    between atoms: N_7  and  C_12
REMARK    4  A    between atoms: N_8  and  C_18
REMARK    5  A    between atoms: N_9  and  C_19
REMARK    6  A    between atoms: C_24  and  C_30
REMARK    7  A    between atoms: C_30  and  C_31
REMARK                            x       y       z     vdW  Elec       q    Type
REMARK                         _______ _______ _______ _____ _____    ______ ____
ROOT
ATOM      1  O   UNL     1     -16.701   5.016  25.197  0.00  0.00    -0.368 OA
ATOM      2  O   UNL     1     -16.828   2.111  24.221  0.00  0.00    -0.368 OA
ATOM     10  C   UNL     1     -15.925   2.777  25.129  0.00  0.00    +0.173 C 
ATOM     11  C   UNL     1     -15.707   4.175  24.589  0.00  0.00    +0.192 C 
ATOM     12  C   UNL     1     -16.603   3.004  26.460  0.00  0.00    +0.131 C 
ATOM     13  C   UNL     1     -15.957   3.995  23.110  0.00  0.00    +0.235 C 
ATOM     14  C   UNL     1     -17.404   4.268  26.201  0.00  0.00    +0.185 C 
ATOM     15  C   UNL     1     -17.068   2.969  23.096  0.00  0.00    +0.207 C 
ENDROOT
BRANCH  12   7
ATOM      4  O   UNL     1     -16.994   2.529  29.258  0.00  0.00    -0.252 OA
ATOM      7  N   UNL     1     -15.636   3.203  27.512  0.00  0.00    -0.292 N 
ATOM      8  N   UNL     1     -14.787   3.229  29.647  0.00  0.00    -0.269 N 
ATOM     16  C   UNL     1     -15.908   2.945  28.862  0.00  0.00    +0.304 C 
ATOM     32  H   UNL     1     -14.736   3.609  27.274  0.00  0.00    +0.151 HD
ATOM     33  H   UNL     1     -13.962   3.567  29.159  0.00  0.00    +0.156 HD
BRANCH   8  18
ATOM     18  C   UNL     1     -14.655   3.101  31.050  0.00  0.00    +0.035 A 
ATOM     20  C   UNL     1     -14.470   4.237  31.839  0.00  0.00    +0.023 A 
ATOM     21  C   UNL     1     -14.712   1.841  31.645  0.00  0.00    +0.023 A 
ATOM     25  C   UNL     1     -14.340   4.111  33.222  0.00  0.00    +0.002 A 
ATOM     26  C   UNL     1     -14.582   1.715  33.027  0.00  0.00    +0.002 A 
ATOM     29  C   UNL     1     -14.396   2.851  33.817  0.00  0.00    +0.000 A 
ENDBRANCH   8  18
ENDBRANCH  12   7
BRANCH  13   3
ATOM      3  O   UNL     1     -16.326   5.186  22.452  0.00  0.00    -0.442 OA
BRANCH   3  17
ATOM      5  O   UNL     1     -15.929   5.079  20.202  0.00  0.00    -0.226 OA
ATOM      9  N   UNL     1     -14.584   6.359  21.628  0.00  0.00    -0.251 N 
ATOM     17  C   UNL     1     -15.625   5.510  21.308  0.00  0.00    +0.405 C 
ATOM     34  H   UNL     1     -14.493   6.607  22.611  0.00  0.00    +0.158 HD
BRANCH   9  19
ATOM     19  C   UNL     1     -13.626   6.928  20.758  0.00  0.00    +0.037 A 
ATOM     22  C   UNL     1     -14.041   7.648  19.638  0.00  0.00    +0.034 A 
ATOM     23  C   UNL     1     -12.266   6.767  21.020  0.00  0.00    +0.023 A 
ATOM     24  C   UNL     1     -13.096   8.208  18.779  0.00  0.00    +0.019 A 
ATOM     27  C   UNL     1     -11.320   7.328  20.161  0.00  0.00    +0.002 A 
ATOM     28  C   UNL     1     -11.734   8.048  19.041  0.00  0.00    +0.011 A 
BRANCH  24  30
ATOM      6  O   UNL     1     -14.166  10.026  17.723  0.00  0.00    -0.292 OA
ATOM     30  C   UNL     1     -13.527   8.960  17.612  0.00  0.00    +0.160 C 
ATOM     31  C   UNL     1     -13.206   8.454  16.210  0.00  0.00    +0.091 C 
ENDBRANCH  24  30
ENDBRANCH   9  19
ENDBRANCH   3  17
ENDBRANCH  13   3
TORSDOF 6
ENDMDL
MODEL 4
REMARK VINA RESULT:      -7.4     18.621     20.484
REMARK  Name = 11883375
REMARK  7 active torsions:
REMARK  status: ('A' for Active; 'I' for Inactive)
REMARK    1  A    between atoms: O_3  and  C_13
REMARK    2  A    between atoms: O_3  and  C_17
REMARK    3  A    between atoms: N_7  and  C_12
REMARK    4  A    between atoms: N_8  and  C_18
REMARK    5  A    between atoms: N_9  and  C_19
REMARK    6  A    between atoms: C_24  and  C_30
REMARK    7  A    between atoms: C_30  and  C_31
REMARK                            x       y       z     vdW  Elec       q    Type
REMARK                         _______ _______ _______ _____ _____    ______ ____
ROOT
ATOM      1  O   UNL     1      -6.403 -12.078  17.414  0.00  0.00    -0.368 OA
ATOM      2  O   UNL     1      -4.919 -11.586  20.053  0.00  0.00    -0.368 OA
ATOM     10  C   UNL     1      -5.947 -10.830  19.378  0.00  0.00    +0.173 C 
ATOM     11  C   UNL     1      -5.669 -10.938  17.893  0.00  0.00    +0.192 C 
ATOM     12  C   UNL     1      -7.286 -11.509  19.547  0.00  0.00    +0.131 C 
ATOM     13  C   UNL     1      -4.179 -11.177  17.856  0.00  0.00    +0.235 C 
ATOM     14  C   UNL     1      -7.245 -12.575  18.466  0.00  0.00    +0.185 C 
ATOM     15  C   UNL     1      -3.963 -12.036  19.082  0.00  0.00    +0.207 C 
ENDROOT
BRANCH  12   7
ATOM      4  O   UNL     1     -10.068 -11.994  20.025  0.00  0.00    -0.252 OA
ATOM      7  N   UNL     1      -8.372 -10.585  19.331  0.00  0.00    -0.292 N 
ATOM      8  N   UNL     1     -10.537  -9.815  19.288  0.00  0.00    -0.269 N 
ATOM     16  C   UNL     1      -9.711 -10.901  19.592  0.00  0.00    +0.304 C 
ATOM     32  H   UNL     1      -8.166  -9.684  18.910  0.00  0.00    +0.151 HD
ATOM     33  H   UNL     1     -10.079  -8.978  18.937  0.00  0.00    +0.156 HD
BRANCH   8  18
ATOM     18  C   UNL     1     -11.944  -9.733  19.413  0.00  0.00    +0.035 A 
ATOM     20  C   UNL     1     -12.531  -9.712  20.678  0.00  0.00    +0.023 A 
ATOM     21  C   UNL     1     -12.743  -9.672  18.272  0.00  0.00    +0.023 A 
ATOM     25  C   UNL     1     -13.918  -9.631  20.801  0.00  0.00    +0.002 A 
ATOM     26  C   UNL     1     -14.130  -9.591  18.395  0.00  0.00    +0.002 A 
ATOM     29  C   UNL     1     -14.717  -9.570  19.661  0.00  0.00    +0.000 A 
ENDBRANCH   8  18
ENDBRANCH  12   7
BRANCH  13   3
ATOM      3  O   UNL     1      -3.739 -11.815  16.678  0.00  0.00    -0.442 OA
BRANCH   3  17
ATOM      5  O   UNL     1      -2.244 -10.213  16.023  0.00  0.00    -0.226 OA
ATOM      9  N   UNL     1      -3.632 -11.302  14.484  0.00  0.00    -0.251 N 
ATOM     17  C   UNL     1      -3.117 -11.023  15.735  0.00  0.00    +0.405 C 
ATOM     34  H   UNL     1      -4.358 -12.014  14.446  0.00  0.00    +0.158 HD
BRANCH   9  19
ATOM     19  C   UNL     1      -3.276 -10.719  13.246  0.00  0.00    +0.037 A 
ATOM     22  C   UNL     1      -4.268 -10.265  12.377  0.00  0.00    +0.034 A 
ATOM     23  C   UNL     1      -1.931 -10.601  12.894  0.00  0.00    +0.023 A 
ATOM     24  C   UNL     1      -3.916  -9.691  11.156  0.00  0.00    +0.019 A 
ATOM     27  C   UNL     1      -1.580 -10.026  11.672  0.00  0.00    +0.002 A 
ATOM     28  C   UNL     1      -2.572  -9.572  10.803  0.00  0.00    +0.011 A 
BRANCH  24  30
ATOM      6  O   UNL     1      -5.972  -8.639  10.674  0.00  0.00    -0.292 OA
ATOM     30  C   UNL     1      -4.950  -9.217  10.251  0.00  0.00    +0.160 C 
ATOM     31  C   UNL     1      -4.806  -9.418   8.746  0.00  0.00    +0.091 C 
ENDBRANCH  24  30
ENDBRANCH   9  19
ENDBRANCH   3  17
ENDBRANCH  13   3
TORSDOF 6
ENDMDL
MODEL 5
REMARK VINA RESULT:      -7.4      2.641      3.377
REMARK  Name = 11883375
REMARK  7 active torsions:
REMARK  status: ('A' for Active; 'I' for Inactive)
REMARK    1  A    between atoms: O_3  and  C_13
REMARK    2  A    between atoms: O_3  and  C_17
REMARK    3  A    between atoms: N_7  and  C_12
REMARK    4  A    between atoms: N_8  and  C_18
REMARK    5  A    between atoms: N_9  and  C_19
REMARK    6  A    between atoms: C_24  and  C_30
REMARK    7  A    between atoms: C_30  and  C_31
REMARK                            x       y       z     vdW  Elec       q    Type
REMARK                         _______ _______ _______ _____ _____    ______ ____
ROOT
ATOM      1  O   UNL     1     -15.750   6.439  23.838  0.00  0.00    -0.368 OA
ATOM      2  O   UNL     1     -16.347   3.727  22.536  0.00  0.00    -0.368 OA
ATOM     10  C   UNL     1     -15.654   4.071  23.754  0.00  0.00    +0.173 C 
ATOM     11  C   UNL     1     -14.886   5.348  23.478  0.00  0.00    +0.192 C 
ATOM     12  C   UNL     1     -16.646   4.469  24.821  0.00  0.00    +0.131 C 
ATOM     13  C   UNL     1     -14.665   5.279  21.986  0.00  0.00    +0.235 C 
ATOM     14  C   UNL     1     -16.928   5.920  24.474  0.00  0.00    +0.185 C 
ATOM     15  C   UNL     1     -15.947   4.638  21.502  0.00  0.00    +0.207 C 
ENDROOT
BRANCH  12   7
ATOM      4  O   UNL     1     -16.504   2.091  26.412  0.00  0.00    -0.252 OA
ATOM      7  N   UNL     1     -16.074   4.346  26.140  0.00  0.00    -0.292 N 
ATOM      8  N   UNL     1     -15.431   3.326  28.096  0.00  0.00    -0.269 N 
ATOM     16  C   UNL     1     -16.044   3.141  26.853  0.00  0.00    +0.304 C 
ATOM     32  H   UNL     1     -15.734   5.184  26.601  0.00  0.00    +0.151 HD
ATOM     33  H   UNL     1     -15.103   4.265  28.307  0.00  0.00    +0.156 HD
BRANCH   8  18
ATOM     18  C   UNL     1     -15.207   2.360  29.105  0.00  0.00    +0.035 A 
ATOM     20  C   UNL     1     -14.197   2.560  30.047  0.00  0.00    +0.023 A 
ATOM     21  C   UNL     1     -15.994   1.211  29.159  0.00  0.00    +0.023 A 
ATOM     25  C   UNL     1     -13.975   1.608  31.042  0.00  0.00    +0.002 A 
ATOM     26  C   UNL     1     -15.772   0.259  30.154  0.00  0.00    +0.002 A 
ATOM     29  C   UNL     1     -14.762   0.458  31.096  0.00  0.00    +0.000 A 
ENDBRANCH   8  18
ENDBRANCH  12   7
BRANCH  13   3
ATOM      3  O   UNL     1     -14.444   6.537  21.390  0.00  0.00    -0.442 OA
BRANCH   3  17
ATOM      5  O   UNL     1     -12.194   6.155  21.240  0.00  0.00    -0.226 OA
ATOM      9  N   UNL     1     -13.259   7.762  19.913  0.00  0.00    -0.251 N 
ATOM     17  C   UNL     1     -13.187   6.770  20.870  0.00  0.00    +0.405 C 
ATOM     34  H   UNL     1     -14.182   8.156  19.742  0.00  0.00    +0.158 HD
BRANCH   9  19
ATOM     19  C   UNL     1     -12.208   8.303  19.138  0.00  0.00    +0.037 A 
ATOM     22  C   UNL     1     -12.199   8.129  17.754  0.00  0.00    +0.034 A 
ATOM     23  C   UNL     1     -11.177   9.009  19.759  0.00  0.00    +0.023 A 
ATOM     24  C   UNL     1     -11.161   8.661  16.991  0.00  0.00    +0.019 A 
ATOM     27  C   UNL     1     -10.138   9.542  18.994  0.00  0.00    +0.002 A 
ATOM     28  C   UNL     1     -10.130   9.368  17.611  0.00  0.00    +0.011 A 
BRANCH  24  30
ATOM      6  O   UNL     1     -10.184   7.952  14.964  0.00  0.00    -0.292 OA
ATOM     30  C   UNL     1     -11.152   8.481  15.548  0.00  0.00    +0.160 C 
ATOM     31  C   UNL     1     -12.338   8.941  14.708  0.00  0.00    +0.091 C 
ENDBRANCH  24  30
ENDBRANCH   9  19
ENDBRANCH   3  17
ENDBRANCH  13   3
TORSDOF 6
ENDMDL
MODEL 6
REMARK VINA RESULT:      -7.1     16.264     19.460
REMARK  Name = 11883375
REMARK  7 active torsions:
REMARK  status: ('A' for Active; 'I' for Inactive)
REMARK    1  A    between atoms: O_3  and  C_13
REMARK    2  A    between atoms: O_3  and  C_17
REMARK    3  A    between atoms: N_7  and  C_12
REMARK    4  A    between atoms: N_8  and  C_18
REMARK    5  A    between atoms: N_9  and  C_19
REMARK    6  A    between atoms: C_24  and  C_30
REMARK    7  A    between atoms: C_30  and  C_31
REMARK                            x       y       z     vdW  Elec       q    Type
REMARK                         _______ _______ _______ _____ _____    ______ ____
ROOT
ATOM      1  O   UNL     1      -9.683  -8.556  17.754  0.00  0.00    -0.368 OA
ATOM      2  O   UNL     1     -11.432 -10.779  16.567  0.00  0.00    -0.368 OA
ATOM     10  C   UNL     1     -11.665  -9.364  16.734  0.00  0.00    +0.173 C 
ATOM     11  C   UNL     1     -11.029  -8.966  18.050  0.00  0.00    +0.192 C 
ATOM     12  C   UNL     1     -10.884  -8.584  15.703  0.00  0.00    +0.131 C 
ATOM     13  C   UNL     1     -11.062 -10.257  18.832  0.00  0.00    +0.235 C 
ATOM     14  C   UNL     1      -9.503  -8.514  16.330  0.00  0.00    +0.185 C 
ATOM     15  C   UNL     1     -10.810 -11.289  17.756  0.00  0.00    +0.207 C 
ENDROOT
BRANCH  12   7
ATOM      4  O   UNL     1     -11.979  -7.523  13.277  0.00  0.00    -0.252 OA
ATOM      7  N   UNL     1     -11.441  -7.267  15.511  0.00  0.00    -0.292 N 
ATOM      8  N   UNL     1     -12.426  -5.512  14.403  0.00  0.00    -0.269 N 
ATOM     16  C   UNL     1     -11.959  -6.824  14.288  0.00  0.00    +0.304 C 
ATOM     32  H   UNL     1     -11.399  -6.606  16.281  0.00  0.00    +0.151 HD
ATOM     33  H   UNL     1     -12.334  -5.074  15.315  0.00  0.00    +0.156 HD
BRANCH   8  18
ATOM     18  C   UNL     1     -13.018  -4.710  13.399  0.00  0.00    +0.035 A 
ATOM     20  C   UNL     1     -12.219  -4.118  12.420  0.00  0.00    +0.023 A 
ATOM     21  C   UNL     1     -14.398  -4.513  13.386  0.00  0.00    +0.023 A 
ATOM     25  C   UNL     1     -12.803  -3.327  11.430  0.00  0.00    +0.002 A 
ATOM     26  C   UNL     1     -14.981  -3.723  12.396  0.00  0.00    +0.002 A 
ATOM     29  C   UNL     1     -14.183  -3.130  11.417  0.00  0.00    +0.000 A 
ENDBRANCH   8  18
ENDBRANCH  12   7
BRANCH  13   3
ATOM      3  O   UNL     1     -10.098 -10.317  19.860  0.00  0.00    -0.442 OA
BRANCH   3  17
ATOM      5  O   UNL     1      -8.978 -12.311  19.834  0.00  0.00    -0.226 OA
ATOM      9  N   UNL     1      -7.956 -10.318  19.152  0.00  0.00    -0.251 N 
ATOM     17  C   UNL     1      -8.987 -11.103  19.629  0.00  0.00    +0.405 C 
ATOM     34  H   UNL     1      -8.158  -9.326  19.047  0.00  0.00    +0.158 HD
BRANCH   9  19
ATOM     19  C   UNL     1      -6.650 -10.721  18.791  0.00  0.00    +0.037 A 
ATOM     22  C   UNL     1      -6.170 -10.465  17.506  0.00  0.00    +0.034 A 
ATOM     23  C   UNL     1      -5.842 -11.377  19.719  0.00  0.00    +0.023 A 
ATOM     24  C   UNL     1      -4.883 -10.864  17.150  0.00  0.00    +0.019 A 
ATOM     27  C   UNL     1      -4.554 -11.776  19.363  0.00  0.00    +0.002 A 
ATOM     28  C   UNL     1      -4.074 -11.520  18.079  0.00  0.00    +0.011 A 
BRANCH  24  30
ATOM      6  O   UNL     1      -3.164 -10.655  15.549  0.00  0.00    -0.292 OA
ATOM     30  C   UNL     1      -4.382 -10.596  15.812  0.00  0.00    +0.160 C 
ATOM     31  C   UNL     1      -5.346 -10.231  14.688  0.00  0.00    +0.091 C 
ENDBRANCH  24  30
ENDBRANCH   9  19
ENDBRANCH   3  17
ENDBRANCH  13   3
TORSDOF 6
ENDMDL
MODEL 7
REMARK VINA RESULT:      -7.1     18.428     20.622
REMARK  Name = 11883375
REMARK  7 active torsions:
REMARK  status: ('A' for Active; 'I' for Inactive)
REMARK    1  A    between atoms: O_3  and  C_13
REMARK    2  A    between atoms: O_3  and  C_17
REMARK    3  A    between atoms: N_7  and  C_12
REMARK    4  A    between atoms: N_8  and  C_18
REMARK    5  A    between atoms: N_9  and  C_19
REMARK    6  A    between atoms: C_24  and  C_30
REMARK    7  A    between atoms: C_30  and  C_31
REMARK                            x       y       z     vdW  Elec       q    Type
REMARK                         _______ _______ _______ _____ _____    ______ ____
ROOT
ATOM      1  O   UNL     1      -6.220 -11.267  16.553  0.00  0.00    -0.368 OA
ATOM      2  O   UNL     1      -5.454 -11.604  19.504  0.00  0.00    -0.368 OA
ATOM     10  C   UNL     1      -5.962 -10.469  18.771  0.00  0.00    +0.173 C 
ATOM     11  C   UNL     1      -5.330 -10.515  17.395  0.00  0.00    +0.192 C 
ATOM     12  C   UNL     1      -7.437 -10.646  18.498  0.00  0.00    +0.131 C 
ATOM     13  C   UNL     1      -4.042 -11.259  17.653  0.00  0.00    +0.235 C 
ATOM     14  C   UNL     1      -7.433 -11.540  17.271  0.00  0.00    +0.185 C 
ATOM     15  C   UNL     1      -4.457 -12.260  18.708  0.00  0.00    +0.207 C 
ENDROOT
BRANCH  12   7
ATOM      4  O   UNL     1      -9.809 -10.223  16.947  0.00  0.00    -0.252 OA
ATOM      7  N   UNL     1      -8.074  -9.381  18.222  0.00  0.00    -0.292 N 
ATOM      8  N   UNL     1      -9.620  -7.918  17.355  0.00  0.00    -0.269 N 
ATOM     16  C   UNL     1      -9.237  -9.259  17.451  0.00  0.00    +0.304 C 
ATOM     32  H   UNL     1      -7.624  -8.531  18.547  0.00  0.00    +0.151 HD
ATOM     33  H   UNL     1      -9.033  -7.241  17.836  0.00  0.00    +0.156 HD
BRANCH   8  18
ATOM     18  C   UNL     1     -10.734  -7.381  16.669  0.00  0.00    +0.035 A 
ATOM     20  C   UNL     1     -12.004  -7.921  16.873  0.00  0.00    +0.023 A 
ATOM     21  C   UNL     1     -10.564  -6.313  15.789  0.00  0.00    +0.023 A 
ATOM     25  C   UNL     1     -13.103  -7.392  16.195  0.00  0.00    +0.002 A 
ATOM     26  C   UNL     1     -11.662  -5.784  15.113  0.00  0.00    +0.002 A 
ATOM     29  C   UNL     1     -12.933  -6.324  15.316  0.00  0.00    +0.000 A 
ENDBRANCH   8  18
ENDBRANCH  12   7
BRANCH  13   3
ATOM      3  O   UNL     1      -3.514 -11.886  16.506  0.00  0.00    -0.442 OA
BRANCH   3  17
ATOM      5  O   UNL     1      -2.116 -10.256  15.720  0.00  0.00    -0.226 OA
ATOM      9  N   UNL     1      -3.681 -11.307  14.332  0.00  0.00    -0.251 N 
ATOM     17  C   UNL     1      -3.016 -11.062  15.517  0.00  0.00    +0.405 C 
ATOM     34  H   UNL     1      -4.404 -12.022  14.362  0.00  0.00    +0.158 HD
BRANCH   9  19
ATOM     19  C   UNL     1      -3.483 -10.685  13.078  0.00  0.00    +0.037 A 
ATOM     22  C   UNL     1      -4.566 -10.136  12.392  0.00  0.00    +0.034 A 
ATOM     23  C   UNL     1      -2.203 -10.622  12.527  0.00  0.00    +0.023 A 
ATOM     24  C   UNL     1      -4.370  -9.524  11.155  0.00  0.00    +0.019 A 
ATOM     27  C   UNL     1      -2.008 -10.009  11.289  0.00  0.00    +0.002 A 
ATOM     28  C   UNL     1      -3.091  -9.460  10.602  0.00  0.00    +0.011 A 
BRANCH  24  30
ATOM      6  O   UNL     1      -5.375  -7.923   9.743  0.00  0.00    -0.292 OA
ATOM     30  C   UNL     1      -5.499  -8.951  10.439  0.00  0.00    +0.160 C 
ATOM     31  C   UNL     1      -6.876  -9.600  10.528  0.00  0.00    +0.091 C 
ENDBRANCH  24  30
ENDBRANCH   9  19
ENDBRANCH   3  17
ENDBRANCH  13   3
TORSDOF 6
ENDMDL
MODEL 8
REMARK VINA RESULT:      -7.0     16.512     19.781
REMARK  Name = 11883375
REMARK  7 active torsions:
REMARK  status: ('A' for Active; 'I' for Inactive)
REMARK    1  A    between atoms: O_3  and  C_13
REMARK    2  A    between atoms: O_3  and  C_17
REMARK    3  A    between atoms: N_7  and  C_12
REMARK    4  A    between atoms: N_8  and  C_18
REMARK    5  A    between atoms: N_9  and  C_19
REMARK    6  A    between atoms: C_24  and  C_30
REMARK    7  A    between atoms: C_30  and  C_31
REMARK                            x       y       z     vdW  Elec       q    Type
REMARK                         _______ _______ _______ _____ _____    ______ ____
ROOT
ATOM      1  O   UNL     1     -11.403  -8.513  14.802  0.00  0.00    -0.368 OA
ATOM      2  O   UNL     1     -10.507  -7.251  17.451  0.00  0.00    -0.368 OA
ATOM     10  C   UNL     1     -10.479  -6.753  16.096  0.00  0.00    +0.173 C 
ATOM     11  C   UNL     1     -10.151  -7.930  15.201  0.00  0.00    +0.192 C 
ATOM     12  C   UNL     1     -11.869  -6.347  15.664  0.00  0.00    +0.131 C 
ATOM     13  C   UNL     1      -9.382  -8.840  16.129  0.00  0.00    +0.235 C 
ATOM     14  C   UNL     1     -12.479  -7.674  15.251  0.00  0.00    +0.185 C 
ATOM     15  C   UNL     1     -10.089  -8.623  17.448  0.00  0.00    +0.207 C 
ENDROOT
BRANCH  12   7
ATOM      4  O   UNL     1     -14.042  -5.630  13.940  0.00  0.00    -0.252 OA
ATOM      7  N   UNL     1     -11.823  -5.423  14.557  0.00  0.00    -0.292 N 
ATOM      8  N   UNL     1     -12.592  -4.203  12.768  0.00  0.00    -0.269 N 
ATOM     16  C   UNL     1     -12.936  -5.126  13.760  0.00  0.00    +0.304 C 
ATOM     32  H   UNL     1     -10.929  -5.017  14.301  0.00  0.00    +0.151 HD
ATOM     33  H   UNL     1     -11.628  -3.883  12.757  0.00  0.00    +0.156 HD
BRANCH   8  18
ATOM     18  C   UNL     1     -13.429  -3.651  11.769  0.00  0.00    +0.035 A 
ATOM     20  C   UNL     1     -14.641  -3.059  12.125  0.00  0.00    +0.023 A 
ATOM     21  C   UNL     1     -13.042  -3.698  10.430  0.00  0.00    +0.023 A 
ATOM     25  C   UNL     1     -15.466  -2.515  11.140  0.00  0.00    +0.002 A 
ATOM     26  C   UNL     1     -13.866  -3.154   9.446  0.00  0.00    +0.002 A 
ATOM     29  C   UNL     1     -15.079  -2.562   9.801  0.00  0.00    +0.000 A 
ENDBRANCH   8  18
ENDBRANCH  12   7
BRANCH  13   3
ATOM      3  O   UNL     1      -9.400 -10.193  15.734  0.00  0.00    -0.442 OA
BRANCH   3  17
ATOM      5  O   UNL     1      -8.326 -12.181  16.094  0.00  0.00    -0.226 OA
ATOM      9  N   UNL     1      -7.230 -10.128  16.346  0.00  0.00    -0.251 N 
ATOM     17  C   UNL     1      -8.299 -10.956  16.067  0.00  0.00    +0.405 C 
ATOM     34  H   UNL     1      -7.403  -9.128  16.268  0.00  0.00    +0.158 HD
BRANCH   9  19
ATOM     19  C   UNL     1      -5.919 -10.497  16.728  0.00  0.00    +0.037 A 
ATOM     22  C   UNL     1      -4.864 -10.359  15.826  0.00  0.00    +0.034 A 
ATOM     23  C   UNL     1      -5.683 -11.000  18.007  0.00  0.00    +0.023 A 
ATOM     24  C   UNL     1      -3.573 -10.724  16.203  0.00  0.00    +0.019 A 
ATOM     27  C   UNL     1      -4.390 -11.365  18.384  0.00  0.00    +0.002 A 
ATOM     28  C   UNL     1      -3.335 -11.227  17.482  0.00  0.00    +0.011 A 
BRANCH  24  30
ATOM      6  O   UNL     1      -2.662 -10.595  14.030  0.00  0.00    -0.292 OA
ATOM     30  C   UNL     1      -2.472 -10.580  15.263  0.00  0.00    +0.160 C 
ATOM     31  C   UNL     1      -1.045 -10.406  15.771  0.00  0.00    +0.091 C 
ENDBRANCH  24  30
ENDBRANCH   9  19
ENDBRANCH   3  17
ENDBRANCH  13   3
TORSDOF 6
ENDMDL
MODEL 9
REMARK VINA RESULT:      -7.0     15.873     19.514
REMARK  Name = 11883375
REMARK  7 active torsions:
REMARK  status: ('A' for Active; 'I' for Inactive)
REMARK    1  A    between atoms: O_3  and  C_13
REMARK    2  A    between atoms: O_3  and  C_17
REMARK    3  A    between atoms: N_7  and  C_12
REMARK    4  A    between atoms: N_8  and  C_18
REMARK    5  A    between atoms: N_9  and  C_19
REMARK    6  A    between atoms: C_24  and  C_30
REMARK    7  A    between atoms: C_30  and  C_31
REMARK                            x       y       z     vdW  Elec       q    Type
REMARK                         _______ _______ _______ _____ _____    ______ ____
ROOT
ATOM      1  O   UNL     1     -12.938  -7.978  14.991  0.00  0.00    -0.368 OA
ATOM      2  O   UNL     1     -11.132  -5.800  16.178  0.00  0.00    -0.368 OA
ATOM     10  C   UNL     1     -11.515  -6.089  14.816  0.00  0.00    +0.173 C 
ATOM     11  C   UNL     1     -11.585  -7.597  14.689  0.00  0.00    +0.192 C 
ATOM     12  C   UNL     1     -12.936  -5.638  14.570  0.00  0.00    +0.131 C 
ATOM     13  C   UNL     1     -10.622  -8.059  15.756  0.00  0.00    +0.235 C 
ATOM     14  C   UNL     1     -13.743  -6.797  15.129  0.00  0.00    +0.185 C 
ATOM     15  C   UNL     1     -10.839  -7.035  16.847  0.00  0.00    +0.207 C 
ENDROOT
BRANCH  12   7
ATOM      4  O   UNL     1     -13.987  -3.288  13.312  0.00  0.00    -0.252 OA
ATOM      7  N   UNL     1     -13.190  -5.454  13.162  0.00  0.00    -0.292 N 
ATOM      8  N   UNL     1     -13.846  -4.381  11.239  0.00  0.00    -0.269 N 
ATOM     16  C   UNL     1     -13.707  -4.268  12.625  0.00  0.00    +0.304 C 
ATOM     32  H   UNL     1     -13.048  -6.241  12.536  0.00  0.00    +0.151 HD
ATOM     33  H   UNL     1     -13.566  -5.265  10.823  0.00  0.00    +0.156 HD
BRANCH   8  18
ATOM     18  C   UNL     1     -14.331  -3.408  10.333  0.00  0.00    +0.035 A 
ATOM     20  C   UNL     1     -13.735  -3.265   9.079  0.00  0.00    +0.023 A 
ATOM     21  C   UNL     1     -15.403  -2.592  10.692  0.00  0.00    +0.023 A 
ATOM     25  C   UNL     1     -14.212  -2.306   8.186  0.00  0.00    +0.002 A 
ATOM     26  C   UNL     1     -15.880  -1.633   9.800  0.00  0.00    +0.002 A 
ATOM     29  C   UNL     1     -15.284  -1.490   8.546  0.00  0.00    +0.000 A 
ENDBRANCH   8  18
ENDBRANCH  12   7
BRANCH  13   3
ATOM      3  O   UNL     1     -10.867  -9.372  16.205  0.00  0.00    -0.442 OA
BRANCH   3  17
ATOM      5  O   UNL     1      -9.843 -11.389  16.548  0.00  0.00    -0.226 OA
ATOM      9  N   UNL     1      -8.628  -9.389  16.484  0.00  0.00    -0.251 N 
ATOM     17  C   UNL     1      -9.764 -10.172  16.427  0.00  0.00    +0.405 C 
ATOM     34  H   UNL     1      -8.766  -8.388  16.359  0.00  0.00    +0.158 HD
BRANCH   9  19
ATOM     19  C   UNL     1      -7.294  -9.804  16.694  0.00  0.00    +0.037 A 
ATOM     22  C   UNL     1      -6.918 -10.351  17.921  0.00  0.00    +0.034 A 
ATOM     23  C   UNL     1      -6.352  -9.666  15.674  0.00  0.00    +0.023 A 
ATOM     24  C   UNL     1      -5.601 -10.760  18.128  0.00  0.00    +0.019 A 
ATOM     27  C   UNL     1      -5.035 -10.076  15.882  0.00  0.00    +0.002 A 
ATOM     28  C   UNL     1      -4.659 -10.622  17.108  0.00  0.00    +0.011 A 
BRANCH  24  30
ATOM      6  O   UNL     1      -5.901 -11.168  20.432  0.00  0.00    -0.292 OA
ATOM     30  C   UNL     1      -5.209 -11.330  19.406  0.00  0.00    +0.160 C 
ATOM     31  C   UNL     1      -3.927 -12.148  19.523  0.00  0.00    +0.091 C 
ENDBRANCH  24  30
ENDBRANCH   9  19
ENDBRANCH   3  17
ENDBRANCH  13   3
TORSDOF 6
ENDMDL
MODEL 10
REMARK VINA RESULT:      -6.9     17.567     20.406
REMARK  Name = 11883375
REMARK  7 active torsions:
REMARK  status: ('A' for Active; 'I' for Inactive)
REMARK    1  A    between atoms: O_3  and  C_13
REMARK    2  A    between atoms: O_3  and  C_17
REMARK    3  A    between atoms: N_7  and  C_12
REMARK    4  A    between atoms: N_8  and  C_18
REMARK    5  A    between atoms: N_9  and  C_19
REMARK    6  A    between atoms: C_24  and  C_30
REMARK    7  A    between atoms: C_30  and  C_31
REMARK                            x       y       z     vdW  Elec       q    Type
REMARK                         _______ _______ _______ _____ _____    ______ ____
ROOT
ATOM      1  O   UNL     1     -10.191 -10.677  15.870  0.00  0.00    -0.368 OA
ATOM      2  O   UNL     1      -8.953  -8.397  17.509  0.00  0.00    -0.368 OA
ATOM     10  C   UNL     1      -9.521  -8.423  16.182  0.00  0.00    +0.173 C 
ATOM     11  C   UNL     1      -9.134  -9.751  15.564  0.00  0.00    +0.192 C 
ATOM     12  C   UNL     1     -11.028  -8.486  16.263  0.00  0.00    +0.131 C 
ATOM     13  C   UNL     1      -7.860 -10.094  16.298  0.00  0.00    +0.235 C 
ATOM     14  C   UNL     1     -11.277  -9.968  16.487  0.00  0.00    +0.185 C 
ATOM     15  C   UNL     1      -8.140  -9.566  17.687  0.00  0.00    +0.207 C 
ENDROOT
BRANCH  12   7
ATOM      4  O   UNL     1     -11.826  -5.807  15.638  0.00  0.00    -0.252 OA
ATOM      7  N   UNL     1     -11.637  -8.031  15.037  0.00  0.00    -0.292 N 
ATOM      8  N   UNL     1     -12.565  -6.557  13.539  0.00  0.00    -0.269 N 
ATOM     16  C   UNL     1     -11.999  -6.698  14.809  0.00  0.00    +0.304 C 
ATOM     32  H   UNL     1     -11.874  -8.720  14.329  0.00  0.00    +0.151 HD
ATOM     33  H   UNL     1     -12.634  -7.399  12.974  0.00  0.00    +0.156 HD
BRANCH   8  18
ATOM     18  C   UNL     1     -13.055  -5.375  12.934  0.00  0.00    +0.035 A 
ATOM     20  C   UNL     1     -14.331  -4.908  13.253  0.00  0.00    +0.023 A 
ATOM     21  C   UNL     1     -12.265  -4.678  12.020  0.00  0.00    +0.023 A 
ATOM     25  C   UNL     1     -14.815  -3.744  12.656  0.00  0.00    +0.002 A 
ATOM     26  C   UNL     1     -12.749  -3.515  11.425  0.00  0.00    +0.002 A 
ATOM     29  C   UNL     1     -14.025  -3.047  11.743  0.00  0.00    +0.000 A 
ENDBRANCH   8  18
ENDBRANCH  12   7
BRANCH  13   3
ATOM      3  O   UNL     1      -7.567 -11.473  16.304  0.00  0.00    -0.442 OA
BRANCH   3  17
ATOM      5  O   UNL     1      -5.868 -12.990  16.100  0.00  0.00    -0.226 OA
ATOM      9  N   UNL     1      -5.556 -10.723  15.609  0.00  0.00    -0.251 N 
ATOM     17  C   UNL     1      -6.269 -11.837  16.007  0.00  0.00    +0.405 C 
ATOM     34  H   UNL     1      -6.067  -9.843  15.595  0.00  0.00    +0.158 HD
BRANCH   9  19
ATOM     19  C   UNL     1      -4.199 -10.652  15.219  0.00  0.00    +0.037 A 
ATOM     22  C   UNL     1      -3.861 -10.644  13.865  0.00  0.00    +0.034 A 
ATOM     23  C   UNL     1      -3.198 -10.591  16.188  0.00  0.00    +0.023 A 
ATOM     24  C   UNL     1      -2.523 -10.576  13.481  0.00  0.00    +0.019 A 
ATOM     27  C   UNL     1      -1.858 -10.522  15.803  0.00  0.00    +0.002 A 
ATOM     28  C   UNL     1      -1.521 -10.514  14.450  0.00  0.00    +0.011 A 
BRANCH  24  30
ATOM      6  O   UNL     1      -2.629 -11.416  11.279  0.00  0.00    -0.292 OA
ATOM     30  C   UNL     1      -2.170 -10.567  12.071  0.00  0.00    +0.160 C 
ATOM     31  C   UNL     1      -1.221  -9.508  11.521  0.00  0.00    +0.091 C 
ENDBRANCH  24  30
ENDBRANCH   9  19
ENDBRANCH   3  17
ENDBRANCH  13   3
TORSDOF 6
ENDMDL
