MODEL 1
REMARK VINA RESULT:      -6.9      0.000      0.000
REMARK  Name = 75536374
REMARK  10 active torsions:
REMARK  status: ('A' for Active; 'I' for Inactive)
REMARK    1  A    between atoms: O_2  and  C_12
REMARK    2  A    between atoms: O_5  and  C_25
REMARK    3  A    between atoms: O_6  and  C_32
REMARK    4  A    between atoms: O_6  and  C_33
REMARK    5  A    between atoms: N_7  and  C_16
REMARK    6  A    between atoms: N_9  and  C_22
REMARK    7  A    between atoms: C_10  and  C_15
REMARK    8  A    between atoms: C_11  and  C_16
REMARK    9  A    between atoms: C_15  and  C_17
REMARK   10  A    between atoms: C_20  and  C_21
REMARK                            x       y       z     vdW  Elec       q    Type
REMARK                         _______ _______ _______ _____ _____    ______ ____
ROOT
ATOM      1  O   UNL     1      13.569  11.669  24.661  0.00  0.00    -0.369 OA
ATOM     10  C   UNL     1      13.955  12.595  23.642  0.00  0.00    +0.125 C 
ATOM     11  C   UNL     1      12.250  11.860  25.190  0.00  0.00    +0.164 C 
ATOM     12  C   UNL     1      12.062  13.287  25.720  0.00  0.00    +0.145 C 
ATOM     13  C   UNL     1      13.895  14.029  24.166  0.00  0.00    +0.034 C 
ATOM     14  C   UNL     1      12.506  14.345  24.712  0.00  0.00    +0.036 C 
ENDROOT
BRANCH  12   2
ATOM      2  O   UNL     1      12.855  13.449  26.899  0.00  0.00    -0.389 OA
ATOM     34  H   UNL     1      12.350  13.085  27.646  0.00  0.00    +0.210 HD
ENDBRANCH  12   2
BRANCH  10  15
ATOM     15  C   UNL     1      15.370  12.235  23.207  0.00  0.00    +0.090 C 
BRANCH  15  17
ATOM      3  O   UNL     1      14.949   8.757  22.362  0.00  0.00    -0.354 OA
ATOM      8  N   UNL     1      14.626   9.892  23.095  0.00  0.00    -0.083 NA
ATOM     17  C   UNL     1      15.441  10.845  22.633  0.00  0.00    +0.087 A 
ATOM     18  C   UNL     1      16.291  10.375  21.618  0.00  0.00    +0.076 A 
ATOM     20  C   UNL     1      15.943   9.058  21.486  0.00  0.00    +0.168 A 
BRANCH  20  21
ATOM     21  C   UNL     1      16.385   7.977  20.653  0.00  0.00    +0.023 A 
ATOM     23  C   UNL     1      17.680   7.478  20.786  0.00  0.00    +0.057 A 
ATOM     24  C   UNL     1      15.519   7.428  19.707  0.00  0.00    +0.012 A 
ATOM     25  C   UNL     1      18.110   6.429  19.973  0.00  0.00    +0.118 A 
ATOM     26  C   UNL     1      15.949   6.379  18.895  0.00  0.00    +0.004 A 
ATOM     29  C   UNL     1      17.245   5.878  19.028  0.00  0.00    +0.045 A 
BRANCH  25   5
ATOM      5  O   UNL     1      19.375   5.942  20.102  0.00  0.00    -0.507 OA
ATOM     37  H   UNL     1      19.690   6.119  21.005  0.00  0.00    +0.292 HD
ENDBRANCH  25   5
ENDBRANCH  20  21
ENDBRANCH  15  17
ENDBRANCH  10  15
BRANCH  11  16
ATOM     16  C   UNL     1      11.185  11.456  24.173  0.00  0.00    +0.140 C 
BRANCH  16   7
ATOM      4  O   UNL     1      11.283  11.680  21.319  0.00  0.00    -0.253 OA
ATOM      7  N   UNL     1      11.695  10.483  23.255  0.00  0.00    -0.297 N 
ATOM      9  N   UNL     1      12.264   9.550  21.224  0.00  0.00    -0.269 N 
ATOM     19  C   UNL     1      11.710  10.664  21.861  0.00  0.00    +0.304 C 
ATOM     35  H   UNL     1      12.023   9.598  23.629  0.00  0.00    +0.150 HD
ATOM     36  H   UNL     1      12.574   8.789  21.823  0.00  0.00    +0.156 HD
BRANCH   9  22
ATOM     22  C   UNL     1      12.453   9.349  19.836  0.00  0.00    +0.035 A 
ATOM     27  C   UNL     1      13.285  10.204  19.114  0.00  0.00    +0.027 A 
ATOM     28  C   UNL     1      11.808   8.293  19.191  0.00  0.00    +0.027 A 
ATOM     30  C   UNL     1      13.473  10.003  17.746  0.00  0.00    +0.047 A 
ATOM     31  C   UNL     1      11.996   8.092  17.823  0.00  0.00    +0.047 A 
ATOM     32  C   UNL     1      12.828   8.948  17.101  0.00  0.00    +0.120 A 
BRANCH  32   6
ATOM      6  O   UNL     1      13.012   8.752  15.766  0.00  0.00    -0.495 OA
ATOM     33  C   UNL     1      14.354   8.791  15.284  0.00  0.00    +0.277 C 
ENDBRANCH  32   6
ENDBRANCH   9  22
ENDBRANCH  16   7
ENDBRANCH  11  16
TORSDOF 9
ENDMDL
MODEL 2
REMARK VINA RESULT:      -6.9     28.302     30.422
REMARK  Name = 75536374
REMARK  10 active torsions:
REMARK  status: ('A' for Active; 'I' for Inactive)
REMARK    1  A    between atoms: O_2  and  C_12
REMARK    2  A    between atoms: O_5  and  C_25
REMARK    3  A    between atoms: O_6  and  C_32
REMARK    4  A    between atoms: O_6  and  C_33
REMARK    5  A    between atoms: N_7  and  C_16
REMARK    6  A    between atoms: N_9  and  C_22
REMARK    7  A    between atoms: C_10  and  C_15
REMARK    8  A    between atoms: C_11  and  C_16
REMARK    9  A    between atoms: C_15  and  C_17
REMARK   10  A    between atoms: C_20  and  C_21
REMARK                            x       y       z     vdW  Elec       q    Type
REMARK                         _______ _______ _______ _____ _____    ______ ____
ROOT
ATOM      1  O   UNL     1      -4.394  -9.343  11.624  0.00  0.00    -0.369 OA
ATOM     10  C   UNL     1      -4.179 -10.756  11.583  0.00  0.00    +0.125 C 
ATOM     11  C   UNL     1      -5.444  -8.860  10.775  0.00  0.00    +0.164 C 
ATOM     12  C   UNL     1      -5.224  -9.287   9.318  0.00  0.00    +0.145 C 
ATOM     13  C   UNL     1      -3.840 -11.209  10.163  0.00  0.00    +0.034 C 
ATOM     14  C   UNL     1      -4.930 -10.779   9.186  0.00  0.00    +0.036 C 
ENDROOT
BRANCH  12   2
ATOM      2  O   UNL     1      -4.101  -8.574   8.794  0.00  0.00    -0.389 OA
ATOM     34  H   UNL     1      -4.079  -7.702   9.223  0.00  0.00    +0.210 HD
ENDBRANCH  12   2
BRANCH  10  15
ATOM     15  C   UNL     1      -3.039 -11.075  12.542  0.00  0.00    +0.090 C 
BRANCH  15  17
ATOM      3  O   UNL     1      -3.455 -10.635  16.095  0.00  0.00    -0.354 OA
ATOM      8  N   UNL     1      -2.754 -10.461  14.908  0.00  0.00    -0.083 NA
ATOM     17  C   UNL     1      -3.497 -11.064  13.976  0.00  0.00    +0.087 A 
ATOM     18  C   UNL     1      -4.667 -11.631  14.510  0.00  0.00    +0.076 A 
ATOM     20  C   UNL     1      -4.592 -11.334  15.844  0.00  0.00    +0.168 A 
BRANCH  20  21
ATOM     21  C   UNL     1      -5.426 -11.592  16.982  0.00  0.00    +0.023 A 
ATOM     23  C   UNL     1      -5.605 -10.608  17.954  0.00  0.00    +0.057 A 
ATOM     24  C   UNL     1      -6.058 -12.829  17.117  0.00  0.00    +0.012 A 
ATOM     25  C   UNL     1      -6.414 -10.860  19.062  0.00  0.00    +0.118 A 
ATOM     26  C   UNL     1      -6.867 -13.081  18.224  0.00  0.00    +0.004 A 
ATOM     29  C   UNL     1      -7.046 -12.097  19.197  0.00  0.00    +0.045 A 
BRANCH  25   5
ATOM      5  O   UNL     1      -6.587  -9.901  20.011  0.00  0.00    -0.507 OA
ATOM     37  H   UNL     1      -5.715  -9.598  20.316  0.00  0.00    +0.292 HD
ENDBRANCH  25   5
ENDBRANCH  20  21
ENDBRANCH  15  17
ENDBRANCH  10  15
BRANCH  11  16
ATOM     16  C   UNL     1      -6.815  -9.262  11.313  0.00  0.00    +0.140 C 
BRANCH  16   7
ATOM      4  O   UNL     1      -9.027  -9.915  13.012  0.00  0.00    -0.253 OA
ATOM      7  N   UNL     1      -6.824  -9.265  12.745  0.00  0.00    -0.297 N 
ATOM      9  N   UNL     1      -7.663  -9.512  14.879  0.00  0.00    -0.269 N 
ATOM     19  C   UNL     1      -7.952  -9.597  13.514  0.00  0.00    +0.304 C 
ATOM     35  H   UNL     1      -5.982  -8.967  13.229  0.00  0.00    +0.150 HD
ATOM     36  H   UNL     1      -6.716  -9.235  15.128  0.00  0.00    +0.156 HD
BRANCH   9  22
ATOM     22  C   UNL     1      -8.529  -9.767  15.968  0.00  0.00    +0.035 A 
ATOM     27  C   UNL     1      -9.113 -11.025  16.116  0.00  0.00    +0.027 A 
ATOM     28  C   UNL     1      -8.799  -8.759  16.895  0.00  0.00    +0.027 A 
ATOM     30  C   UNL     1      -9.965 -11.276  17.191  0.00  0.00    +0.047 A 
ATOM     31  C   UNL     1      -9.653  -9.011  17.970  0.00  0.00    +0.047 A 
ATOM     32  C   UNL     1     -10.236 -10.270  18.117  0.00  0.00    +0.120 A 
BRANCH  32   6
ATOM      6  O   UNL     1     -11.067 -10.515  19.167  0.00  0.00    -0.495 OA
ATOM     33  C   UNL     1     -10.696 -11.569  20.055  0.00  0.00    +0.277 C 
ENDBRANCH  32   6
ENDBRANCH   9  22
ENDBRANCH  16   7
ENDBRANCH  11  16
TORSDOF 9
ENDMDL
MODEL 3
REMARK VINA RESULT:      -6.8      2.811      7.074
REMARK  Name = 75536374
REMARK  10 active torsions:
REMARK  status: ('A' for Active; 'I' for Inactive)
REMARK    1  A    between atoms: O_2  and  C_12
REMARK    2  A    between atoms: O_5  and  C_25
REMARK    3  A    between atoms: O_6  and  C_32
REMARK    4  A    between atoms: O_6  and  C_33
REMARK    5  A    between atoms: N_7  and  C_16
REMARK    6  A    between atoms: N_9  and  C_22
REMARK    7  A    between atoms: C_10  and  C_15
REMARK    8  A    between atoms: C_11  and  C_16
REMARK    9  A    between atoms: C_15  and  C_17
REMARK   10  A    between atoms: C_20  and  C_21
REMARK                            x       y       z     vdW  Elec       q    Type
REMARK                         _______ _______ _______ _____ _____    ______ ____
ROOT
ATOM      1  O   UNL     1      19.711   6.680  22.198  0.00  0.00    -0.369 OA
ATOM     10  C   UNL     1      19.924   6.656  20.784  0.00  0.00    +0.125 C 
ATOM     11  C   UNL     1      20.351   7.759  22.892  0.00  0.00    +0.164 C 
ATOM     12  C   UNL     1      21.860   7.784  22.617  0.00  0.00    +0.145 C 
ATOM     13  C   UNL     1      21.415   6.562  20.464  0.00  0.00    +0.034 C 
ATOM     14  C   UNL     1      22.180   7.704  21.126  0.00  0.00    +0.036 C 
ENDROOT
BRANCH  12   2
ATOM      2  O   UNL     1      22.463   6.654  23.253  0.00  0.00    -0.389 OA
ATOM     34  H   UNL     1      22.062   6.564  24.134  0.00  0.00    +0.210 HD
ENDBRANCH  12   2
BRANCH  10  15
ATOM     15  C   UNL     1      19.173   5.453  20.227  0.00  0.00    +0.090 C 
BRANCH  15  17
ATOM      3  O   UNL     1      16.151   5.940  18.323  0.00  0.00    -0.354 OA
ATOM      8  N   UNL     1      17.425   5.412  18.494  0.00  0.00    -0.083 NA
ATOM     17  C   UNL     1      17.817   5.839  19.699  0.00  0.00    +0.087 A 
ATOM     18  C   UNL     1      16.841   6.630  20.328  0.00  0.00    +0.076 A 
ATOM     20  C   UNL     1      15.815   6.664  19.422  0.00  0.00    +0.168 A 
BRANCH  20  21
ATOM     21  C   UNL     1      14.517   7.273  19.392  0.00  0.00    +0.023 A 
ATOM     23  C   UNL     1      13.473   6.730  20.141  0.00  0.00    +0.057 A 
ATOM     24  C   UNL     1      14.298   8.408  18.612  0.00  0.00    +0.012 A 
ATOM     25  C   UNL     1      12.210   7.321  20.109  0.00  0.00    +0.118 A 
ATOM     26  C   UNL     1      13.035   8.999  18.580  0.00  0.00    +0.004 A 
ATOM     29  C   UNL     1      11.990   8.456  19.329  0.00  0.00    +0.045 A 
BRANCH  25   5
ATOM      5  O   UNL     1      11.191   6.790  20.839  0.00  0.00    -0.507 OA
ATOM     37  H   UNL     1      11.063   7.328  21.639  0.00  0.00    +0.292 HD
ENDBRANCH  25   5
ENDBRANCH  20  21
ENDBRANCH  15  17
ENDBRANCH  10  15
BRANCH  11  16
ATOM     16  C   UNL     1      19.667   9.090  22.590  0.00  0.00    +0.140 C 
BRANCH  16   7
ATOM      4  O   UNL     1      17.692  11.143  22.289  0.00  0.00    -0.253 OA
ATOM      7  N   UNL     1      18.270   8.904  22.339  0.00  0.00    -0.297 N 
ATOM      9  N   UNL     1      16.068   9.480  21.965  0.00  0.00    -0.269 N 
ATOM     19  C   UNL     1      17.357   9.964  22.203  0.00  0.00    +0.304 C 
ATOM     35  H   UNL     1      17.913   7.954  22.302  0.00  0.00    +0.150 HD
ATOM     36  H   UNL     1      15.961   8.469  21.920  0.00  0.00    +0.156 HD
BRANCH   9  22
ATOM     22  C   UNL     1      14.881  10.226  21.773  0.00  0.00    +0.035 A 
ATOM     27  C   UNL     1      13.725   9.891  22.477  0.00  0.00    +0.027 A 
ATOM     28  C   UNL     1      14.869  11.298  20.880  0.00  0.00    +0.027 A 
ATOM     30  C   UNL     1      12.556  10.630  22.289  0.00  0.00    +0.047 A 
ATOM     31  C   UNL     1      13.700  12.035  20.692  0.00  0.00    +0.047 A 
ATOM     32  C   UNL     1      12.543  11.701  21.397  0.00  0.00    +0.120 A 
BRANCH  32   6
ATOM      6  O   UNL     1      11.402  12.421  21.213  0.00  0.00    -0.495 OA
ATOM     33  C   UNL     1      10.880  13.108  22.350  0.00  0.00    +0.277 C 
ENDBRANCH  32   6
ENDBRANCH   9  22
ENDBRANCH  16   7
ENDBRANCH  11  16
TORSDOF 9
ENDMDL
MODEL 4
REMARK VINA RESULT:      -6.6     14.855     18.655
REMARK  Name = 75536374
REMARK  10 active torsions:
REMARK  status: ('A' for Active; 'I' for Inactive)
REMARK    1  A    between atoms: O_2  and  C_12
REMARK    2  A    between atoms: O_5  and  C_25
REMARK    3  A    between atoms: O_6  and  C_32
REMARK    4  A    between atoms: O_6  and  C_33
REMARK    5  A    between atoms: N_7  and  C_16
REMARK    6  A    between atoms: N_9  and  C_22
REMARK    7  A    between atoms: C_10  and  C_15
REMARK    8  A    between atoms: C_11  and  C_16
REMARK    9  A    between atoms: C_15  and  C_17
REMARK   10  A    between atoms: C_20  and  C_21
REMARK                            x       y       z     vdW  Elec       q    Type
REMARK                         _______ _______ _______ _____ _____    ______ ____
ROOT
ATOM      1  O   UNL     1      11.305   6.215   6.855  0.00  0.00    -0.369 OA
ATOM     10  C   UNL     1      11.120   7.628   6.737  0.00  0.00    +0.125 C 
ATOM     11  C   UNL     1      10.111   5.431   6.730  0.00  0.00    +0.164 C 
ATOM     12  C   UNL     1       9.042   5.877   7.736  0.00  0.00    +0.145 C 
ATOM     13  C   UNL     1      10.148   8.135   7.801  0.00  0.00    +0.034 C 
ATOM     14  C   UNL     1       8.820   7.387   7.717  0.00  0.00    +0.036 C 
ENDROOT
BRANCH  12   2
ATOM      2  O   UNL     1       9.469   5.516   9.052  0.00  0.00    -0.389 OA
ATOM     34  H   UNL     1       8.829   5.888   9.681  0.00  0.00    +0.210 HD
ENDBRANCH  12   2
BRANCH  10  15
ATOM     15  C   UNL     1      12.486   8.284   6.893  0.00  0.00    +0.090 C 
BRANCH  15  17
ATOM      3  O   UNL     1      15.133   7.192   4.703  0.00  0.00    -0.354 OA
ATOM      8  N   UNL     1      14.556   7.334   5.959  0.00  0.00    -0.083 NA
ATOM     17  C   UNL     1      13.396   7.959   5.738  0.00  0.00    +0.087 A 
ATOM     18  C   UNL     1      13.189   8.234   4.376  0.00  0.00    +0.076 A 
ATOM     20  C   UNL     1      14.309   7.733   3.768  0.00  0.00    +0.168 A 
BRANCH  20  21
ATOM     21  C   UNL     1      14.774   7.659   2.414  0.00  0.00    +0.023 A 
ATOM     23  C   UNL     1      16.116   7.388   2.150  0.00  0.00    +0.057 A 
ATOM     24  C   UNL     1      13.882   7.861   1.360  0.00  0.00    +0.012 A 
ATOM     25  C   UNL     1      16.567   7.319   0.832  0.00  0.00    +0.118 A 
ATOM     26  C   UNL     1      14.334   7.792   0.042  0.00  0.00    +0.004 A 
ATOM     29  C   UNL     1      15.677   7.520  -0.223  0.00  0.00    +0.045 A 
BRANCH  25   5
ATOM      5  O   UNL     1      17.878   7.055   0.574  0.00  0.00    -0.507 OA
ATOM     37  H   UNL     1      18.373   7.070   1.411  0.00  0.00    +0.292 HD
ENDBRANCH  25   5
ENDBRANCH  20  21
ENDBRANCH  15  17
ENDBRANCH  10  15
BRANCH  11  16
ATOM     16  C   UNL     1       9.607   5.422   5.288  0.00  0.00    +0.140 C 
BRANCH  16   7
ATOM      4  O   UNL     1      11.181   6.201   3.025  0.00  0.00    -0.253 OA
ATOM      7  N   UNL     1      10.410   4.567   4.469  0.00  0.00    -0.297 N 
ATOM      9  N   UNL     1      11.840   3.964   2.762  0.00  0.00    -0.269 N 
ATOM     19  C   UNL     1      11.158   5.022   3.369  0.00  0.00    +0.304 C 
ATOM     35  H   UNL     1      10.403   3.570   4.666  0.00  0.00    +0.150 HD
ATOM     36  H   UNL     1      11.715   3.043   3.176  0.00  0.00    +0.156 HD
BRANCH   9  22
ATOM     22  C   UNL     1      12.693   4.014   1.635  0.00  0.00    +0.035 A 
ATOM     27  C   UNL     1      14.071   3.872   1.795  0.00  0.00    +0.027 A 
ATOM     28  C   UNL     1      12.155   4.205   0.361  0.00  0.00    +0.027 A 
ATOM     30  C   UNL     1      14.911   3.919   0.682  0.00  0.00    +0.047 A 
ATOM     31  C   UNL     1      12.995   4.252  -0.751  0.00  0.00    +0.047 A 
ATOM     32  C   UNL     1      14.374   4.110  -0.590  0.00  0.00    +0.120 A 
BRANCH  32   6
ATOM      6  O   UNL     1      15.194   4.155  -1.676  0.00  0.00    -0.495 OA
ATOM     33  C   UNL     1      16.591   4.308  -1.427  0.00  0.00    +0.277 C 
ENDBRANCH  32   6
ENDBRANCH   9  22
ENDBRANCH  16   7
ENDBRANCH  11  16
TORSDOF 9
ENDMDL
MODEL 5
REMARK VINA RESULT:      -6.6     28.923     32.038
REMARK  Name = 75536374
REMARK  10 active torsions:
REMARK  status: ('A' for Active; 'I' for Inactive)
REMARK    1  A    between atoms: O_2  and  C_12
REMARK    2  A    between atoms: O_5  and  C_25
REMARK    3  A    between atoms: O_6  and  C_32
REMARK    4  A    between atoms: O_6  and  C_33
REMARK    5  A    between atoms: N_7  and  C_16
REMARK    6  A    between atoms: N_9  and  C_22
REMARK    7  A    between atoms: C_10  and  C_15
REMARK    8  A    between atoms: C_11  and  C_16
REMARK    9  A    between atoms: C_15  and  C_17
REMARK   10  A    between atoms: C_20  and  C_21
REMARK                            x       y       z     vdW  Elec       q    Type
REMARK                         _______ _______ _______ _____ _____    ______ ____
ROOT
ATOM      1  O   UNL     1      -6.758 -11.915  17.420  0.00  0.00    -0.369 OA
ATOM     10  C   UNL     1      -6.075 -10.758  16.930  0.00  0.00    +0.125 C 
ATOM     11  C   UNL     1      -6.290 -12.410  18.683  0.00  0.00    +0.164 C 
ATOM     12  C   UNL     1      -4.784 -12.701  18.645  0.00  0.00    +0.145 C 
ATOM     13  C   UNL     1      -4.582 -11.042  16.766  0.00  0.00    +0.034 C 
ATOM     14  C   UNL     1      -3.980 -11.533  18.079  0.00  0.00    +0.036 C 
ENDROOT
BRANCH  12   2
ATOM      2  O   UNL     1      -4.555 -13.836  17.806  0.00  0.00    -0.389 OA
ATOM     34  H   UNL     1      -4.218 -13.509  16.955  0.00  0.00    +0.210 HD
ENDBRANCH  12   2
BRANCH  10  15
ATOM     15  C   UNL     1      -6.707 -10.384  15.595  0.00  0.00    +0.090 C 
BRANCH  15  17
ATOM      3  O   UNL     1      -9.329  -8.202  16.757  0.00  0.00    -0.354 OA
ATOM      8  N   UNL     1      -8.121  -8.867  16.921  0.00  0.00    -0.083 NA
ATOM     17  C   UNL     1      -7.937  -9.537  15.779  0.00  0.00    +0.087 A 
ATOM     18  C   UNL     1      -8.986  -9.333  14.866  0.00  0.00    +0.076 A 
ATOM     20  C   UNL     1      -9.835  -8.488  15.529  0.00  0.00    +0.168 A 
BRANCH  20  21
ATOM     21  C   UNL     1     -11.088  -7.866  15.213  0.00  0.00    +0.023 A 
ATOM     23  C   UNL     1     -11.749  -8.190  14.028  0.00  0.00    +0.057 A 
ATOM     24  C   UNL     1     -11.645  -6.935  16.090  0.00  0.00    +0.012 A 
ATOM     25  C   UNL     1     -12.966  -7.583  13.720  0.00  0.00    +0.118 A 
ATOM     26  C   UNL     1     -12.862  -6.328  15.782  0.00  0.00    +0.004 A 
ATOM     29  C   UNL     1     -13.524  -6.652  14.597  0.00  0.00    +0.045 A 
BRANCH  25   5
ATOM      5  O   UNL     1     -13.611  -7.898  12.563  0.00  0.00    -0.507 OA
ATOM     37  H   UNL     1     -13.011  -8.418  12.000  0.00  0.00    +0.292 HD
ENDBRANCH  25   5
ENDBRANCH  20  21
ENDBRANCH  15  17
ENDBRANCH  10  15
BRANCH  11  16
ATOM     16  C   UNL     1      -6.689 -11.474  19.822  0.00  0.00    +0.140 C 
BRANCH  16   7
ATOM      4  O   UNL     1      -9.474 -11.965  20.277  0.00  0.00    -0.253 OA
ATOM      7  N   UNL     1      -7.781 -10.633  19.437  0.00  0.00    -0.297 N 
ATOM      9  N   UNL     1      -9.967  -9.937  19.203  0.00  0.00    -0.269 N 
ATOM     19  C   UNL     1      -9.127 -10.941  19.695  0.00  0.00    +0.304 C 
ATOM     35  H   UNL     1      -7.572  -9.790  18.909  0.00  0.00    +0.150 HD
ATOM     36  H   UNL     1      -9.517  -9.149  18.746  0.00  0.00    +0.156 HD
BRANCH   9  22
ATOM     22  C   UNL     1     -11.379  -9.879  19.266  0.00  0.00    +0.035 A 
ATOM     27  C   UNL     1     -12.019  -9.752  20.500  0.00  0.00    +0.027 A 
ATOM     28  C   UNL     1     -12.133  -9.947  18.094  0.00  0.00    +0.027 A 
ATOM     30  C   UNL     1     -13.411  -9.693  20.560  0.00  0.00    +0.047 A 
ATOM     31  C   UNL     1     -13.525  -9.888  18.155  0.00  0.00    +0.047 A 
ATOM     32  C   UNL     1     -14.164  -9.761  19.389  0.00  0.00    +0.120 A 
BRANCH  32   6
ATOM      6  O   UNL     1     -15.523  -9.702  19.448  0.00  0.00    -0.495 OA
ATOM     33  C   UNL     1     -16.164  -8.708  18.650  0.00  0.00    +0.277 C 
ENDBRANCH  32   6
ENDBRANCH   9  22
ENDBRANCH  16   7
ENDBRANCH  11  16
TORSDOF 9
ENDMDL
MODEL 6
REMARK VINA RESULT:      -6.5     27.479     30.454
REMARK  Name = 75536374
REMARK  10 active torsions:
REMARK  status: ('A' for Active; 'I' for Inactive)
REMARK    1  A    between atoms: O_2  and  C_12
REMARK    2  A    between atoms: O_5  and  C_25
REMARK    3  A    between atoms: O_6  and  C_32
REMARK    4  A    between atoms: O_6  and  C_33
REMARK    5  A    between atoms: N_7  and  C_16
REMARK    6  A    between atoms: N_9  and  C_22
REMARK    7  A    between atoms: C_10  and  C_15
REMARK    8  A    between atoms: C_11  and  C_16
REMARK    9  A    between atoms: C_15  and  C_17
REMARK   10  A    between atoms: C_20  and  C_21
REMARK                            x       y       z     vdW  Elec       q    Type
REMARK                         _______ _______ _______ _____ _____    ______ ____
ROOT
ATOM      1  O   UNL     1      -3.208  -9.870  10.564  0.00  0.00    -0.369 OA
ATOM     10  C   UNL     1      -3.494 -10.614  11.751  0.00  0.00    +0.125 C 
ATOM     11  C   UNL     1      -4.294  -9.763   9.634  0.00  0.00    +0.164 C 
ATOM     12  C   UNL     1      -4.827 -11.146   9.237  0.00  0.00    +0.145 C 
ATOM     13  C   UNL     1      -3.918 -12.041  11.404  0.00  0.00    +0.034 C 
ATOM     14  C   UNL     1      -5.107 -12.032  10.448  0.00  0.00    +0.036 C 
ENDROOT
BRANCH  12   2
ATOM      2  O   UNL     1      -3.844 -11.804   8.433  0.00  0.00    -0.389 OA
ATOM     34  H   UNL     1      -3.363 -11.121   7.937  0.00  0.00    +0.210 HD
ENDBRANCH  12   2
BRANCH  10  15
ATOM     15  C   UNL     1      -2.234 -10.615  12.607  0.00  0.00    +0.090 C 
BRANCH  15  17
ATOM      3  O   UNL     1      -2.226 -10.521  16.210  0.00  0.00    -0.354 OA
ATOM      8  N   UNL     1      -1.593 -10.431  14.976  0.00  0.00    -0.083 NA
ATOM     17  C   UNL     1      -2.559 -10.640  14.077  0.00  0.00    +0.087 A 
ATOM     18  C   UNL     1      -3.809 -10.865  14.678  0.00  0.00    +0.076 A 
ATOM     20  C   UNL     1      -3.545 -10.781  16.019  0.00  0.00    +0.168 A 
BRANCH  20  21
ATOM     21  C   UNL     1      -4.334 -10.900  17.211  0.00  0.00    +0.023 A 
ATOM     23  C   UNL     1      -5.577 -10.274  17.291  0.00  0.00    +0.057 A 
ATOM     24  C   UNL     1      -3.856 -11.642  18.291  0.00  0.00    +0.012 A 
ATOM     25  C   UNL     1      -6.343 -10.388  18.452  0.00  0.00    +0.118 A 
ATOM     26  C   UNL     1      -4.621 -11.757  19.452  0.00  0.00    +0.004 A 
ATOM     29  C   UNL     1      -5.865 -11.130  19.532  0.00  0.00    +0.045 A 
BRANCH  25   5
ATOM      5  O   UNL     1      -7.555  -9.776  18.530  0.00  0.00    -0.507 OA
ATOM     37  H   UNL     1      -7.900  -9.874  19.434  0.00  0.00    +0.292 HD
ENDBRANCH  25   5
ENDBRANCH  20  21
ENDBRANCH  15  17
ENDBRANCH  10  15
BRANCH  11  16
ATOM     16  C   UNL     1      -5.384  -8.834  10.165  0.00  0.00    +0.140 C 
BRANCH  16   7
ATOM      4  O   UNL     1      -7.757  -9.369   8.653  0.00  0.00    -0.253 OA
ATOM      7  N   UNL     1      -5.929  -8.029   9.115  0.00  0.00    -0.297 N 
ATOM      9  N   UNL     1      -7.389  -7.388   7.448  0.00  0.00    -0.269 N 
ATOM     19  C   UNL     1      -7.103  -8.357   8.414  0.00  0.00    +0.304 C 
ATOM     35  H   UNL     1      -5.415  -7.201   8.831  0.00  0.00    +0.150 HD
ATOM     36  H   UNL     1      -6.743  -6.606   7.382  0.00  0.00    +0.156 HD
BRANCH   9  22
ATOM     22  C   UNL     1      -8.477  -7.358   6.546  0.00  0.00    +0.035 A 
ATOM     27  C   UNL     1      -8.338  -7.893   5.265  0.00  0.00    +0.027 A 
ATOM     28  C   UNL     1      -9.692  -6.793   6.937  0.00  0.00    +0.027 A 
ATOM     30  C   UNL     1      -9.413  -7.864   4.376  0.00  0.00    +0.047 A 
ATOM     31  C   UNL     1     -10.767  -6.764   6.048  0.00  0.00    +0.047 A 
ATOM     32  C   UNL     1     -10.626  -7.299   4.767  0.00  0.00    +0.120 A 
BRANCH  32   6
ATOM      6  O   UNL     1     -11.675  -7.272   3.899  0.00  0.00    -0.495 OA
ATOM     33  C   UNL     1     -11.488  -6.557   2.679  0.00  0.00    +0.277 C 
ENDBRANCH  32   6
ENDBRANCH   9  22
ENDBRANCH  16   7
ENDBRANCH  11  16
TORSDOF 9
ENDMDL
MODEL 7
REMARK VINA RESULT:      -6.4     28.782     31.824
REMARK  Name = 75536374
REMARK  10 active torsions:
REMARK  status: ('A' for Active; 'I' for Inactive)
REMARK    1  A    between atoms: O_2  and  C_12
REMARK    2  A    between atoms: O_5  and  C_25
REMARK    3  A    between atoms: O_6  and  C_32
REMARK    4  A    between atoms: O_6  and  C_33
REMARK    5  A    between atoms: N_7  and  C_16
REMARK    6  A    between atoms: N_9  and  C_22
REMARK    7  A    between atoms: C_10  and  C_15
REMARK    8  A    between atoms: C_11  and  C_16
REMARK    9  A    between atoms: C_15  and  C_17
REMARK   10  A    between atoms: C_20  and  C_21
REMARK                            x       y       z     vdW  Elec       q    Type
REMARK                         _______ _______ _______ _____ _____    ______ ____
ROOT
ATOM      1  O   UNL     1      -5.226 -10.526  17.832  0.00  0.00    -0.369 OA
ATOM     10  C   UNL     1      -5.894 -11.776  18.019  0.00  0.00    +0.125 C 
ATOM     11  C   UNL     1      -4.757 -10.278  16.499  0.00  0.00    +0.164 C 
ATOM     12  C   UNL     1      -3.842 -11.408  16.010  0.00  0.00    +0.145 C 
ATOM     13  C   UNL     1      -4.973 -12.940  17.653  0.00  0.00    +0.034 C 
ATOM     14  C   UNL     1      -4.456 -12.789  16.225  0.00  0.00    +0.036 C 
ENDROOT
BRANCH  12   2
ATOM      2  O   UNL     1      -2.615 -11.357  16.744  0.00  0.00    -0.389 OA
ATOM     34  H   UNL     1      -1.890 -11.507  16.115  0.00  0.00    +0.210 HD
ENDBRANCH  12   2
BRANCH  10  15
ATOM     15  C   UNL     1      -6.316 -11.857  19.480  0.00  0.00    +0.090 C 
BRANCH  15  17
ATOM      3  O   UNL     1      -9.737 -12.816  20.088  0.00  0.00    -0.354 OA
ATOM      8  N   UNL     1      -8.371 -13.071  20.080  0.00  0.00    -0.083 NA
ATOM     17  C   UNL     1      -7.812 -11.947  19.624  0.00  0.00    +0.087 A 
ATOM     18  C   UNL     1      -8.765 -10.957  19.332  0.00  0.00    +0.076 A 
ATOM     20  C   UNL     1      -9.959 -11.553  19.639  0.00  0.00    +0.168 A 
BRANCH  20  21
ATOM     21  C   UNL     1     -11.332 -11.143  19.593  0.00  0.00    +0.023 A 
ATOM     23  C   UNL     1     -12.233 -11.812  18.765  0.00  0.00    +0.057 A 
ATOM     24  C   UNL     1     -11.766 -10.072  20.375  0.00  0.00    +0.012 A 
ATOM     25  C   UNL     1     -13.568 -11.411  18.718  0.00  0.00    +0.118 A 
ATOM     26  C   UNL     1     -13.101  -9.671  20.328  0.00  0.00    +0.004 A 
ATOM     29  C   UNL     1     -14.003 -10.341  19.500  0.00  0.00    +0.045 A 
BRANCH  25   5
ATOM      5  O   UNL     1     -14.447 -12.063  17.909  0.00  0.00    -0.507 OA
ATOM     37  H   UNL     1     -15.338 -11.999  18.295  0.00  0.00    +0.292 HD
ENDBRANCH  25   5
ENDBRANCH  20  21
ENDBRANCH  15  17
ENDBRANCH  10  15
BRANCH  11  16
ATOM     16  C   UNL     1      -5.921 -10.000  15.550  0.00  0.00    +0.140 C 
BRANCH  16   7
ATOM      4  O   UNL     1      -8.644  -9.669  14.726  0.00  0.00    -0.253 OA
ATOM      7  N   UNL     1      -6.912  -9.181  16.178  0.00  0.00    -0.297 N 
ATOM      9  N   UNL     1      -8.969  -8.199  16.526  0.00  0.00    -0.269 N 
ATOM     19  C   UNL     1      -8.234  -9.067  15.715  0.00  0.00    +0.304 C 
ATOM     35  H   UNL     1      -6.631  -8.617  16.975  0.00  0.00    +0.150 HD
ATOM     36  H   UNL     1      -8.477  -7.782  17.313  0.00  0.00    +0.156 HD
BRANCH   9  22
ATOM     22  C   UNL     1     -10.327  -7.826  16.391  0.00  0.00    +0.035 A 
ATOM     27  C   UNL     1     -11.336  -8.707  16.781  0.00  0.00    +0.027 A 
ATOM     28  C   UNL     1     -10.658  -6.575  15.868  0.00  0.00    +0.027 A 
ATOM     30  C   UNL     1     -12.674  -8.337  16.650  0.00  0.00    +0.047 A 
ATOM     31  C   UNL     1     -11.997  -6.205  15.736  0.00  0.00    +0.047 A 
ATOM     32  C   UNL     1     -13.005  -7.087  16.127  0.00  0.00    +0.120 A 
BRANCH  32   6
ATOM      6  O   UNL     1     -14.311  -6.726  15.999  0.00  0.00    -0.495 OA
ATOM     33  C   UNL     1     -14.805  -6.538  14.673  0.00  0.00    +0.277 C 
ENDBRANCH  32   6
ENDBRANCH   9  22
ENDBRANCH  16   7
ENDBRANCH  11  16
TORSDOF 9
ENDMDL
MODEL 8
REMARK VINA RESULT:      -6.3     28.362     30.293
REMARK  Name = 75536374
REMARK  10 active torsions:
REMARK  status: ('A' for Active; 'I' for Inactive)
REMARK    1  A    between atoms: O_2  and  C_12
REMARK    2  A    between atoms: O_5  and  C_25
REMARK    3  A    between atoms: O_6  and  C_32
REMARK    4  A    between atoms: O_6  and  C_33
REMARK    5  A    between atoms: N_7  and  C_16
REMARK    6  A    between atoms: N_9  and  C_22
REMARK    7  A    between atoms: C_10  and  C_15
REMARK    8  A    between atoms: C_11  and  C_16
REMARK    9  A    between atoms: C_15  and  C_17
REMARK   10  A    between atoms: C_20  and  C_21
REMARK                            x       y       z     vdW  Elec       q    Type
REMARK                         _______ _______ _______ _____ _____    ______ ____
ROOT
ATOM      1  O   UNL     1      -6.505 -12.165  17.091  0.00  0.00    -0.369 OA
ATOM     10  C   UNL     1      -5.078 -12.221  17.176  0.00  0.00    +0.125 C 
ATOM     11  C   UNL     1      -7.134 -11.256  18.005  0.00  0.00    +0.164 C 
ATOM     12  C   UNL     1      -6.735 -11.557  19.455  0.00  0.00    +0.145 C 
ATOM     13  C   UNL     1      -4.637 -12.634  18.579  0.00  0.00    +0.034 C 
ATOM     14  C   UNL     1      -5.223 -11.691  19.626  0.00  0.00    +0.036 C 
ENDROOT
BRANCH  12   2
ATOM      2  O   UNL     1      -7.330 -12.797  19.850  0.00  0.00    -0.389 OA
ATOM     34  H   UNL     1      -7.462 -12.766  20.812  0.00  0.00    +0.210 HD
ENDBRANCH  12   2
BRANCH  10  15
ATOM     15  C   UNL     1      -4.597 -13.227  16.137  0.00  0.00    +0.090 C 
BRANCH  15  17
ATOM      3  O   UNL     1      -2.715 -11.935  13.349  0.00  0.00    -0.354 OA
ATOM      8  N   UNL     1      -2.826 -12.673  14.520  0.00  0.00    -0.083 NA
ATOM     17  C   UNL     1      -4.104 -12.546  14.888  0.00  0.00    +0.087 A 
ATOM     18  C   UNL     1      -4.840 -11.748  13.996  0.00  0.00    +0.076 A 
ATOM     20  C   UNL     1      -3.921 -11.388  13.047  0.00  0.00    +0.168 A 
BRANCH  20  21
ATOM     21  C   UNL     1      -3.963 -10.593  11.854  0.00  0.00    +0.023 A 
ATOM     23  C   UNL     1      -5.169 -10.411  11.178  0.00  0.00    +0.057 A 
ATOM     24  C   UNL     1      -2.795 -10.003  11.369  0.00  0.00    +0.012 A 
ATOM     25  C   UNL     1      -5.208  -9.640  10.016  0.00  0.00    +0.118 A 
ATOM     26  C   UNL     1      -2.835  -9.232  10.208  0.00  0.00    +0.004 A 
ATOM     29  C   UNL     1      -4.041  -9.050   9.531  0.00  0.00    +0.045 A 
BRANCH  25   5
ATOM      5  O   UNL     1      -6.385  -9.464   9.356  0.00  0.00    -0.507 OA
ATOM     37  H   UNL     1      -7.036  -9.080   9.968  0.00  0.00    +0.292 HD
ENDBRANCH  25   5
ENDBRANCH  20  21
ENDBRANCH  15  17
ENDBRANCH  10  15
BRANCH  11  16
ATOM     16  C   UNL     1      -6.876  -9.806  17.604  0.00  0.00    +0.140 C 
BRANCH  16   7
ATOM      4  O   UNL     1      -8.849  -9.136  15.637  0.00  0.00    -0.253 OA
ATOM      7  N   UNL     1      -8.045  -9.003  17.802  0.00  0.00    -0.297 N 
ATOM      9  N   UNL     1     -10.006  -7.912  17.271  0.00  0.00    -0.269 N 
ATOM     19  C   UNL     1      -8.972  -8.716  16.785  0.00  0.00    +0.304 C 
ATOM     35  H   UNL     1      -8.187  -8.582  18.715  0.00  0.00    +0.150 HD
ATOM     36  H   UNL     1      -9.959  -7.652  18.254  0.00  0.00    +0.156 HD
BRANCH   9  22
ATOM     22  C   UNL     1     -11.124  -7.412  16.562  0.00  0.00    +0.035 A 
ATOM     27  C   UNL     1     -11.022  -6.215  15.853  0.00  0.00    +0.027 A 
ATOM     28  C   UNL     1     -12.328  -8.117  16.572  0.00  0.00    +0.027 A 
ATOM     30  C   UNL     1     -12.124  -5.724  15.152  0.00  0.00    +0.047 A 
ATOM     31  C   UNL     1     -13.430  -7.625  15.872  0.00  0.00    +0.047 A 
ATOM     32  C   UNL     1     -13.327  -6.428  15.162  0.00  0.00    +0.120 A 
BRANCH  32   6
ATOM      6  O   UNL     1     -14.402  -5.949  14.478  0.00  0.00    -0.495 OA
ATOM     33  C   UNL     1     -14.783  -6.651  13.295  0.00  0.00    +0.277 C 
ENDBRANCH  32   6
ENDBRANCH   9  22
ENDBRANCH  16   7
ENDBRANCH  11  16
TORSDOF 9
ENDMDL
MODEL 9
REMARK VINA RESULT:      -6.3     15.239     20.468
REMARK  Name = 75536374
REMARK  10 active torsions:
REMARK  status: ('A' for Active; 'I' for Inactive)
REMARK    1  A    between atoms: O_2  and  C_12
REMARK    2  A    between atoms: O_5  and  C_25
REMARK    3  A    between atoms: O_6  and  C_32
REMARK    4  A    between atoms: O_6  and  C_33
REMARK    5  A    between atoms: N_7  and  C_16
REMARK    6  A    between atoms: N_9  and  C_22
REMARK    7  A    between atoms: C_10  and  C_15
REMARK    8  A    between atoms: C_11  and  C_16
REMARK    9  A    between atoms: C_15  and  C_17
REMARK   10  A    between atoms: C_20  and  C_21
REMARK                            x       y       z     vdW  Elec       q    Type
REMARK                         _______ _______ _______ _____ _____    ______ ____
ROOT
ATOM      1  O   UNL     1      15.033   4.080   0.126  0.00  0.00    -0.369 OA
ATOM     10  C   UNL     1      13.914   4.480  -0.670  0.00  0.00    +0.125 C 
ATOM     11  C   UNL     1      16.167   4.955   0.067  0.00  0.00    +0.164 C 
ATOM     12  C   UNL     1      16.636   5.165  -1.379  0.00  0.00    +0.145 C 
ATOM     13  C   UNL     1      14.310   4.588  -2.142  0.00  0.00    +0.034 C 
ATOM     14  C   UNL     1      15.489   5.541  -2.313  0.00  0.00    +0.036 C 
ENDROOT
BRANCH  12   2
ATOM      2  O   UNL     1      17.207   3.945  -1.860  0.00  0.00    -0.389 OA
ATOM     34  H   UNL     1      18.014   4.172  -2.352  0.00  0.00    +0.210 HD
ENDBRANCH  12   2
BRANCH  10  15
ATOM     15  C   UNL     1      12.818   3.440  -0.477  0.00  0.00    +0.090 C 
BRANCH  15  17
ATOM      3  O   UNL     1       9.833   4.439   1.279  0.00  0.00    -0.354 OA
ATOM      8  N   UNL     1      10.503   4.002   0.143  0.00  0.00    -0.083 NA
ATOM     17  C   UNL     1      11.783   3.897   0.515  0.00  0.00    +0.087 A 
ATOM     18  C   UNL     1      11.978   4.252   1.861  0.00  0.00    +0.076 A 
ATOM     20  C   UNL     1      10.723   4.586   2.295  0.00  0.00    +0.168 A 
BRANCH  20  21
ATOM     21  C   UNL     1      10.174   5.034   3.542  0.00  0.00    +0.023 A 
ATOM     23  C   UNL     1      10.443   4.331   4.716  0.00  0.00    +0.057 A 
ATOM     24  C   UNL     1       9.368   6.172   3.579  0.00  0.00    +0.012 A 
ATOM     25  C   UNL     1       9.907   4.766   5.928  0.00  0.00    +0.118 A 
ATOM     26  C   UNL     1       8.832   6.607   4.791  0.00  0.00    +0.004 A 
ATOM     29  C   UNL     1       9.101   5.905   5.966  0.00  0.00    +0.045 A 
BRANCH  25   5
ATOM      5  O   UNL     1      10.168   4.080   7.073  0.00  0.00    -0.507 OA
ATOM     37  H   UNL     1       9.703   3.227   7.043  0.00  0.00    +0.292 HD
ENDBRANCH  25   5
ENDBRANCH  20  21
ENDBRANCH  15  17
ENDBRANCH  10  15
BRANCH  11  16
ATOM     16  C   UNL     1      15.890   6.266   0.800  0.00  0.00    +0.140 C 
BRANCH  16   7
ATOM      4  O   UNL     1      14.743   8.285   2.476  0.00  0.00    -0.253 OA
ATOM      7  N   UNL     1      14.994   6.060   1.897  0.00  0.00    -0.297 N 
ATOM      9  N   UNL     1      13.627   6.603   3.674  0.00  0.00    -0.269 N 
ATOM     19  C   UNL     1      14.470   7.105   2.678  0.00  0.00    +0.304 C 
ATOM     35  H   UNL     1      14.760   5.105   2.152  0.00  0.00    +0.150 HD
ATOM     36  H   UNL     1      13.505   5.594   3.702  0.00  0.00    +0.156 HD
BRANCH   9  22
ATOM     22  C   UNL     1      12.913   7.331   4.655  0.00  0.00    +0.035 A 
ATOM     27  C   UNL     1      12.990   6.956   5.996  0.00  0.00    +0.027 A 
ATOM     28  C   UNL     1      12.132   8.425   4.280  0.00  0.00    +0.027 A 
ATOM     30  C   UNL     1      12.287   7.675   6.963  0.00  0.00    +0.047 A 
ATOM     31  C   UNL     1      11.429   9.144   5.247  0.00  0.00    +0.047 A 
ATOM     32  C   UNL     1      11.506   8.768   6.588  0.00  0.00    +0.120 A 
BRANCH  32   6
ATOM      6  O   UNL     1      10.821   9.471   7.532  0.00  0.00    -0.495 OA
ATOM     33  C   UNL     1       9.416   9.236   7.621  0.00  0.00    +0.277 C 
ENDBRANCH  32   6
ENDBRANCH   9  22
ENDBRANCH  16   7
ENDBRANCH  11  16
TORSDOF 9
ENDMDL
MODEL 10
REMARK VINA RESULT:      -6.2      2.370      6.896
REMARK  Name = 75536374
REMARK  10 active torsions:
REMARK  status: ('A' for Active; 'I' for Inactive)
REMARK    1  A    between atoms: O_2  and  C_12
REMARK    2  A    between atoms: O_5  and  C_25
REMARK    3  A    between atoms: O_6  and  C_32
REMARK    4  A    between atoms: O_6  and  C_33
REMARK    5  A    between atoms: N_7  and  C_16
REMARK    6  A    between atoms: N_9  and  C_22
REMARK    7  A    between atoms: C_10  and  C_15
REMARK    8  A    between atoms: C_11  and  C_16
REMARK    9  A    between atoms: C_15  and  C_17
REMARK   10  A    between atoms: C_20  and  C_21
REMARK                            x       y       z     vdW  Elec       q    Type
REMARK                         _______ _______ _______ _____ _____    ______ ____
ROOT
ATOM      1  O   UNL     1      18.448   7.296  22.244  0.00  0.00    -0.369 OA
ATOM     10  C   UNL     1      18.274   6.923  20.875  0.00  0.00    +0.125 C 
ATOM     11  C   UNL     1      19.583   8.133  22.509  0.00  0.00    +0.164 C 
ATOM     12  C   UNL     1      20.880   7.490  22.001  0.00  0.00    +0.145 C 
ATOM     13  C   UNL     1      19.502   6.173  20.360  0.00  0.00    +0.034 C 
ATOM     14  C   UNL     1      20.764   7.008  20.557  0.00  0.00    +0.036 C 
ENDROOT
BRANCH  12   2
ATOM      2  O   UNL     1      21.182   6.355  22.816  0.00  0.00    -0.389 OA
ATOM     34  H   UNL     1      21.428   6.683  23.698  0.00  0.00    +0.210 HD
ENDBRANCH  12   2
BRANCH  10  15
ATOM     15  C   UNL     1      17.030   6.048  20.792  0.00  0.00    +0.090 C 
BRANCH  15  17
ATOM      3  O   UNL     1      14.063   8.010  20.208  0.00  0.00    -0.354 OA
ATOM      8  N   UNL     1      15.009   7.430  21.045  0.00  0.00    -0.083 NA
ATOM     17  C   UNL     1      15.856   6.800  20.225  0.00  0.00    +0.087 A 
ATOM     18  C   UNL     1      15.499   6.946  18.874  0.00  0.00    +0.076 A 
ATOM     20  C   UNL     1      14.366   7.714  18.917  0.00  0.00    +0.168 A 
BRANCH  20  21
ATOM     21  C   UNL     1      13.473   8.249  17.931  0.00  0.00    +0.023 A 
ATOM     23  C   UNL     1      13.973   9.019  16.882  0.00  0.00    +0.057 A 
ATOM     24  C   UNL     1      12.103   8.001  18.024  0.00  0.00    +0.012 A 
ATOM     25  C   UNL     1      13.104   9.542  15.924  0.00  0.00    +0.118 A 
ATOM     26  C   UNL     1      11.234   8.524  17.066  0.00  0.00    +0.004 A 
ATOM     29  C   UNL     1      11.734   9.294  16.016  0.00  0.00    +0.045 A 
BRANCH  25   5
ATOM      5  O   UNL     1      13.592  10.295  14.901  0.00  0.00    -0.507 OA
ATOM     37  H   UNL     1      14.512  10.540  15.100  0.00  0.00    +0.292 HD
ENDBRANCH  25   5
ENDBRANCH  20  21
ENDBRANCH  15  17
ENDBRANCH  10  15
BRANCH  11  16
ATOM     16  C   UNL     1      19.364   9.544  21.968  0.00  0.00    +0.140 C 
BRANCH  16   7
ATOM      4  O   UNL     1      16.857  10.164  20.729  0.00  0.00    -0.253 OA
ATOM      7  N   UNL     1      18.232  10.162  22.589  0.00  0.00    -0.297 N 
ATOM      9  N   UNL     1      16.109  11.042  22.773  0.00  0.00    -0.269 N 
ATOM     19  C   UNL     1      17.030  10.437  21.914  0.00  0.00    +0.304 C 
ATOM     35  H   UNL     1      18.320  10.458  23.556  0.00  0.00    +0.150 HD
ATOM     36  H   UNL     1      16.411  11.196  23.732  0.00  0.00    +0.156 HD
BRANCH   9  22
ATOM     22  C   UNL     1      14.793  11.468  22.474  0.00  0.00    +0.035 A 
ATOM     27  C   UNL     1      14.554  12.794  22.112  0.00  0.00    +0.027 A 
ATOM     28  C   UNL     1      13.735  10.561  22.540  0.00  0.00    +0.027 A 
ATOM     30  C   UNL     1      13.256  13.212  21.815  0.00  0.00    +0.047 A 
ATOM     31  C   UNL     1      12.437  10.980  22.244  0.00  0.00    +0.047 A 
ATOM     32  C   UNL     1      12.199  12.306  21.882  0.00  0.00    +0.120 A 
BRANCH  32   6
ATOM      6  O   UNL     1      10.933  12.715  21.592  0.00  0.00    -0.495 OA
ATOM     33  C   UNL     1      10.440  13.851  22.301  0.00  0.00    +0.277 C 
ENDBRANCH  32   6
ENDBRANCH   9  22
ENDBRANCH  16   7
ENDBRANCH  11  16
TORSDOF 9
ENDMDL
