MODEL 1
REMARK VINA RESULT:      -6.4      0.000      0.000
REMARK  Name = 26745475
REMARK  8 active torsions:
REMARK  status: ('A' for Active; 'I' for Inactive)
REMARK    1  A    between atoms: S_2  and  N_10
REMARK    2  A    between atoms: S_2  and  C_21
REMARK    3  A    between atoms: O_8  and  C_18
REMARK    4  A    between atoms: O_8  and  C_30
REMARK    5  A    between atoms: N_11  and  C_19
REMARK    6  A    between atoms: C_13  and  C_18
REMARK    7  A    between atoms: C_19  and  C_22
REMARK    8  A    between atoms: C_25  and  C_31
REMARK                            x       y       z     vdW  Elec       q    Type
REMARK                         _______ _______ _______ _____ _____    ______ ____
ROOT
ATOM     10  N   UNL     1      12.233   5.325   1.475  0.00  0.00    -0.157 NA
ATOM     11  N   UNL     1      15.235   7.277   2.556  0.00  0.00    -0.328 N 
ATOM     12  N   UNL     1      15.403   7.788   0.388  0.00  0.00    -0.240 NA
ATOM     13  C   UNL     1      12.720   5.120   0.062  0.00  0.00    +0.194 C 
ATOM     14  C   UNL     1      13.289   5.631   2.509  0.00  0.00    +0.165 C 
ATOM     15  C   UNL     1      13.501   6.346  -0.459  0.00  0.00    +0.089 C 
ATOM     16  C   UNL     1      14.261   6.569   1.918  0.00  0.00    +0.057 A 
ATOM     17  C   UNL     1      14.387   6.896   0.590  0.00  0.00    +0.066 A 
ATOM     20  C   UNL     1      15.895   7.996   1.592  0.00  0.00    +0.200 A 
ENDROOT
BRANCH  10   2
ATOM      2  S   UNL     1      10.964   4.303   2.003  0.00  0.00    +0.062 S 
ATOM      6  O   UNL     1      11.534   3.115   2.602  0.00  0.00    -0.153 OA
ATOM      7  O   UNL     1       9.971   4.207   0.954  0.00  0.00    -0.153 OA
BRANCH   2  21
ATOM     21  C   UNL     1      10.291   5.293   3.300  0.00  0.00    +0.106 A 
ATOM     23  C   UNL     1      10.387   4.868   4.625  0.00  0.00    +0.041 A 
ATOM     24  C   UNL     1       9.663   6.502   2.999  0.00  0.00    +0.028 A 
ATOM     25  C   UNL     1       9.855   5.651   5.649  0.00  0.00    +0.057 A 
ATOM     26  C   UNL     1       9.130   7.285   4.024  0.00  0.00    +0.002 A 
ATOM     29  C   UNL     1       9.227   6.859   5.349  0.00  0.00    +0.012 A 
BRANCH  25  31
ATOM      3  F   UNL     1       9.023   5.777   7.873  0.00  0.00    -0.166 F 
ATOM      4  F   UNL     1       9.793   3.850   7.222  0.00  0.00    -0.166 F 
ATOM      5  F   UNL     1      11.164   5.476   7.643  0.00  0.00    -0.166 F 
ATOM     31  C   UNL     1       9.958   5.197   7.065  0.00  0.00    +0.417 C 
ENDBRANCH  25  31
ENDBRANCH   2  21
ENDBRANCH  10   2
BRANCH  13  18
ATOM      9  O   UNL     1      14.701   3.795   0.382  0.00  0.00    -0.249 OA
ATOM     18  C   UNL     1      13.538   3.869   0.010  0.00  0.00    +0.326 C 
BRANCH  18   8
ATOM      8  O   UNL     1      12.787   2.855  -0.505  0.00  0.00    -0.467 OA
ATOM     30  C   UNL     1      12.282   3.073  -1.826  0.00  0.00    +0.280 C 
ENDBRANCH  18   8
ENDBRANCH  13  18
BRANCH  11  19
ATOM     19  C   UNL     1      15.533   7.275   3.967  0.00  0.00    +0.158 C 
BRANCH  19  22
ATOM      1 CL   UNL     1      10.967   9.225   7.372  0.00  0.00    -0.084 Cl
ATOM     22  C   UNL     1      14.388   7.764   4.820  0.00  0.00    -0.028 A 
ATOM     27  C   UNL     1      14.266   7.328   6.140  0.00  0.00    +0.007 A 
ATOM     28  C   UNL     1      13.451   8.651   4.289  0.00  0.00    +0.007 A 
ATOM     32  C   UNL     1      13.207   7.779   6.928  0.00  0.00    +0.020 A 
ATOM     33  C   UNL     1      12.393   9.102   5.078  0.00  0.00    +0.020 A 
ATOM     34  C   UNL     1      12.271   8.666   6.398  0.00  0.00    +0.041 A 
ENDBRANCH  19  22
ENDBRANCH  11  19
TORSDOF 7
ENDMDL
MODEL 2
REMARK VINA RESULT:      -6.2     25.601     28.083
REMARK  Name = 26745475
REMARK  8 active torsions:
REMARK  status: ('A' for Active; 'I' for Inactive)
REMARK    1  A    between atoms: S_2  and  N_10
REMARK    2  A    between atoms: S_2  and  C_21
REMARK    3  A    between atoms: O_8  and  C_18
REMARK    4  A    between atoms: O_8  and  C_30
REMARK    5  A    between atoms: N_11  and  C_19
REMARK    6  A    between atoms: C_13  and  C_18
REMARK    7  A    between atoms: C_19  and  C_22
REMARK    8  A    between atoms: C_25  and  C_31
REMARK                            x       y       z     vdW  Elec       q    Type
REMARK                         _______ _______ _______ _____ _____    ______ ____
ROOT
ATOM     10  N   UNL     1      -6.111 -10.937  16.824  0.00  0.00    -0.157 NA
ATOM     11  N   UNL     1      -8.631 -10.189  14.164  0.00  0.00    -0.328 N 
ATOM     12  N   UNL     1      -9.359  -8.645  15.604  0.00  0.00    -0.240 NA
ATOM     13  C   UNL     1      -6.969 -10.429  17.955  0.00  0.00    +0.194 C 
ATOM     14  C   UNL     1      -6.835 -11.338  15.562  0.00  0.00    +0.165 C 
ATOM     15  C   UNL     1      -7.813  -9.208  17.531  0.00  0.00    +0.089 C 
ATOM     16  C   UNL     1      -7.894 -10.345  15.299  0.00  0.00    +0.057 A 
ATOM     17  C   UNL     1      -8.361  -9.390  16.168  0.00  0.00    +0.066 A 
ATOM     20  C   UNL     1      -9.499  -9.152  14.397  0.00  0.00    +0.200 A 
ENDROOT
BRANCH  10   2
ATOM      2  S   UNL     1      -4.787 -11.935  17.256  0.00  0.00    +0.062 S 
ATOM      6  O   UNL     1      -5.084 -13.301  16.882  0.00  0.00    -0.153 OA
ATOM      7  O   UNL     1      -4.369 -11.603  18.602  0.00  0.00    -0.153 OA
BRANCH   2  21
ATOM     21  C   UNL     1      -3.563 -11.323  16.140  0.00  0.00    +0.106 A 
ATOM     23  C   UNL     1      -3.742 -11.461  14.764  0.00  0.00    +0.041 A 
ATOM     24  C   UNL     1      -2.418 -10.701  16.636  0.00  0.00    +0.028 A 
ATOM     25  C   UNL     1      -2.775 -10.977  13.883  0.00  0.00    +0.057 A 
ATOM     26  C   UNL     1      -1.450 -10.216  15.755  0.00  0.00    +0.002 A 
ATOM     29  C   UNL     1      -1.630 -10.355  14.378  0.00  0.00    +0.012 A 
BRANCH  25  31
ATOM      3  F   UNL     1      -2.070 -11.986  11.849  0.00  0.00    -0.166 F 
ATOM      4  F   UNL     1      -4.199 -11.600  12.065  0.00  0.00    -0.166 F 
ATOM      5  F   UNL     1      -2.830  -9.953  11.722  0.00  0.00    -0.166 F 
ATOM     31  C   UNL     1      -2.967 -11.124  12.412  0.00  0.00    +0.417 C 
ENDBRANCH  25  31
ENDBRANCH   2  21
ENDBRANCH  10   2
BRANCH  13  18
ATOM      9  O   UNL     1      -8.072 -12.561  17.818  0.00  0.00    -0.249 OA
ATOM     18  C   UNL     1      -7.818 -11.551  18.460  0.00  0.00    +0.326 C 
BRANCH  18   8
ATOM      8  O   UNL     1      -8.248 -11.266  19.722  0.00  0.00    -0.467 OA
ATOM     30  C   UNL     1      -9.650 -11.441  19.949  0.00  0.00    +0.280 C 
ENDBRANCH  18   8
ENDBRANCH  13  18
BRANCH  11  19
ATOM     19  C   UNL     1      -8.537 -10.961  12.949  0.00  0.00    +0.158 C 
BRANCH  19  22
ATOM      1 CL   UNL     1      -4.510  -8.776   9.044  0.00  0.00    -0.084 Cl
ATOM     22  C   UNL     1      -7.527 -10.413  11.970  0.00  0.00    -0.028 A 
ATOM     27  C   UNL     1      -7.356 -11.026  10.729  0.00  0.00    +0.007 A 
ATOM     28  C   UNL     1      -6.765  -9.294  12.307  0.00  0.00    +0.007 A 
ATOM     32  C   UNL     1      -6.422 -10.520   9.825  0.00  0.00    +0.020 A 
ATOM     33  C   UNL     1      -5.831  -8.789  11.402  0.00  0.00    +0.020 A 
ATOM     34  C   UNL     1      -5.659  -9.402  10.161  0.00  0.00    +0.041 A 
ENDBRANCH  19  22
ENDBRANCH  11  19
TORSDOF 7
ENDMDL
MODEL 3
REMARK VINA RESULT:      -6.1      3.841      6.123
REMARK  Name = 26745475
REMARK  8 active torsions:
REMARK  status: ('A' for Active; 'I' for Inactive)
REMARK    1  A    between atoms: S_2  and  N_10
REMARK    2  A    between atoms: S_2  and  C_21
REMARK    3  A    between atoms: O_8  and  C_18
REMARK    4  A    between atoms: O_8  and  C_30
REMARK    5  A    between atoms: N_11  and  C_19
REMARK    6  A    between atoms: C_13  and  C_18
REMARK    7  A    between atoms: C_19  and  C_22
REMARK    8  A    between atoms: C_25  and  C_31
REMARK                            x       y       z     vdW  Elec       q    Type
REMARK                         _______ _______ _______ _____ _____    ______ ____
ROOT
ATOM     10  N   UNL     1      11.583   6.520   5.269  0.00  0.00    -0.157 NA
ATOM     11  N   UNL     1      14.546   8.711   4.632  0.00  0.00    -0.328 N 
ATOM     12  N   UNL     1      15.250   7.950   6.610  0.00  0.00    -0.240 NA
ATOM     13  C   UNL     1      11.720   6.557   6.771  0.00  0.00    +0.194 C 
ATOM     14  C   UNL     1      12.230   7.651   4.510  0.00  0.00    +0.165 C 
ATOM     15  C   UNL     1      13.200   6.587   7.210  0.00  0.00    +0.089 C 
ATOM     16  C   UNL     1      13.540   7.935   5.125  0.00  0.00    +0.057 A 
ATOM     17  C   UNL     1      13.994   7.483   6.340  0.00  0.00    +0.066 A 
ATOM     20  C   UNL     1      15.554   8.688   5.563  0.00  0.00    +0.200 A 
ENDROOT
BRANCH  10   2
ATOM      2  S   UNL     1      10.074   5.992   4.652  0.00  0.00    +0.062 S 
ATOM      6  O   UNL     1       9.149   7.105   4.651  0.00  0.00    -0.153 OA
ATOM      7  O   UNL     1       9.726   4.733   5.276  0.00  0.00    -0.153 OA
BRANCH   2  21
ATOM     21  C   UNL     1      10.525   5.662   2.978  0.00  0.00    +0.106 A 
ATOM     23  C   UNL     1      11.547   4.755   2.696  0.00  0.00    +0.041 A 
ATOM     24  C   UNL     1       9.859   6.308   1.936  0.00  0.00    +0.028 A 
ATOM     25  C   UNL     1      11.904   4.495   1.373  0.00  0.00    +0.057 A 
ATOM     26  C   UNL     1      10.216   6.047   0.612  0.00  0.00    +0.002 A 
ATOM     29  C   UNL     1      11.238   5.140   0.332  0.00  0.00    +0.012 A 
BRANCH  25  31
ATOM      3  F   UNL     1      13.105   3.254  -0.261  0.00  0.00    -0.166 F 
ATOM      4  F   UNL     1      14.232   3.955   1.462  0.00  0.00    -0.166 F 
ATOM      5  F   UNL     1      12.833   2.312   1.680  0.00  0.00    -0.166 F 
ATOM     31  C   UNL     1      12.995   3.525   1.073  0.00  0.00    +0.417 C 
ENDBRANCH  25  31
ENDBRANCH   2  21
ENDBRANCH  10   2
BRANCH  13  18
ATOM      9  O   UNL     1      11.244   8.894   7.072  0.00  0.00    -0.249 OA
ATOM     18  C   UNL     1      10.954   7.728   7.298  0.00  0.00    +0.326 C 
BRANCH  18   8
ATOM      8  O   UNL     1       9.906   7.286   8.049  0.00  0.00    -0.467 OA
ATOM     30  C   UNL     1       9.986   5.922   8.474  0.00  0.00    +0.280 C 
ENDBRANCH  18   8
ENDBRANCH  13  18
BRANCH  11  19
ATOM     19  C   UNL     1      14.560   9.431   3.382  0.00  0.00    +0.158 C 
BRANCH  19  22
ATOM      1 CL   UNL     1      14.714   5.831  -1.440  0.00  0.00    -0.084 Cl
ATOM     22  C   UNL     1      14.599   8.528   2.173  0.00  0.00    -0.028 A 
ATOM     27  C   UNL     1      13.590   8.605   1.213  0.00  0.00    +0.007 A 
ATOM     28  C   UNL     1      15.643   7.616   2.016  0.00  0.00    +0.007 A 
ATOM     32  C   UNL     1      13.625   7.770   0.096  0.00  0.00    +0.020 A 
ATOM     33  C   UNL     1      15.678   6.781   0.899  0.00  0.00    +0.020 A 
ATOM     34  C   UNL     1      14.669   6.858  -0.061  0.00  0.00    +0.041 A 
ENDBRANCH  19  22
ENDBRANCH  11  19
TORSDOF 7
ENDMDL
MODEL 4
REMARK VINA RESULT:      -6.1     24.060     27.315
REMARK  Name = 26745475
REMARK  8 active torsions:
REMARK  status: ('A' for Active; 'I' for Inactive)
REMARK    1  A    between atoms: S_2  and  N_10
REMARK    2  A    between atoms: S_2  and  C_21
REMARK    3  A    between atoms: O_8  and  C_18
REMARK    4  A    between atoms: O_8  and  C_30
REMARK    5  A    between atoms: N_11  and  C_19
REMARK    6  A    between atoms: C_13  and  C_18
REMARK    7  A    between atoms: C_19  and  C_22
REMARK    8  A    between atoms: C_25  and  C_31
REMARK                            x       y       z     vdW  Elec       q    Type
REMARK                         _______ _______ _______ _____ _____    ______ ____
ROOT
ATOM     10  N   UNL     1      -4.190 -11.147  15.085  0.00  0.00    -0.157 NA
ATOM     11  N   UNL     1      -7.890 -10.631  14.918  0.00  0.00    -0.328 N 
ATOM     12  N   UNL     1      -7.525  -9.119  16.521  0.00  0.00    -0.240 NA
ATOM     13  C   UNL     1      -4.064 -10.683  16.515  0.00  0.00    +0.194 C 
ATOM     14  C   UNL     1      -5.556 -11.621  14.653  0.00  0.00    +0.165 C 
ATOM     15  C   UNL     1      -5.045  -9.535  16.834  0.00  0.00    +0.089 C 
ATOM     16  C   UNL     1      -6.567 -10.713  15.228  0.00  0.00    +0.057 A 
ATOM     17  C   UNL     1      -6.367  -9.780  16.216  0.00  0.00    +0.066 A 
ATOM     20  C   UNL     1      -8.424  -9.656  15.723  0.00  0.00    +0.200 A 
ENDROOT
BRANCH  10   2
ATOM      2  S   UNL     1      -2.872 -12.038  14.450  0.00  0.00    +0.062 S 
ATOM      6  O   UNL     1      -3.013 -13.427  14.832  0.00  0.00    -0.153 OA
ATOM      7  O   UNL     1      -1.646 -11.313  14.711  0.00  0.00    -0.153 OA
BRANCH   2  21
ATOM     21  C   UNL     1      -3.219 -11.913  12.724  0.00  0.00    +0.106 A 
ATOM     23  C   UNL     1      -3.233 -10.664  12.103  0.00  0.00    +0.041 A 
ATOM     24  C   UNL     1      -3.480 -13.065  11.981  0.00  0.00    +0.028 A 
ATOM     25  C   UNL     1      -3.507 -10.566  10.739  0.00  0.00    +0.057 A 
ATOM     26  C   UNL     1      -3.755 -12.967  10.616  0.00  0.00    +0.002 A 
ATOM     29  C   UNL     1      -3.768 -11.717   9.996  0.00  0.00    +0.012 A 
BRANCH  25  31
ATOM      3  F   UNL     1      -2.311  -8.602  10.137  0.00  0.00    -0.166 F 
ATOM      4  F   UNL     1      -3.841  -9.283   8.749  0.00  0.00    -0.166 F 
ATOM      5  F   UNL     1      -4.416  -8.357  10.624  0.00  0.00    -0.166 F 
ATOM     31  C   UNL     1      -3.521  -9.231  10.076  0.00  0.00    +0.417 C 
ENDBRANCH  25  31
ENDBRANCH   2  21
ENDBRANCH  10   2
BRANCH  13  18
ATOM      9  O   UNL     1      -5.080 -12.740  17.233  0.00  0.00    -0.249 OA
ATOM     18  C   UNL     1      -4.257 -11.856  17.422  0.00  0.00    +0.326 C 
BRANCH  18   8
ATOM      8  O   UNL     1      -3.384 -11.773  18.466  0.00  0.00    -0.467 OA
ATOM     30  C   UNL     1      -3.765 -12.488  19.645  0.00  0.00    +0.280 C 
ENDBRANCH  18   8
ENDBRANCH  13  18
BRANCH  11  19
ATOM     19  C   UNL     1      -8.609 -11.414  13.943  0.00  0.00    +0.158 C 
BRANCH  19  22
ATOM      1 CL   UNL     1      -6.839 -10.377   8.284  0.00  0.00    -0.084 Cl
ATOM     22  C   UNL     1      -8.166 -11.155  12.524  0.00  0.00    -0.028 A 
ATOM     27  C   UNL     1      -8.085  -9.846  12.047  0.00  0.00    +0.007 A 
ATOM     28  C   UNL     1      -7.837 -12.223  11.689  0.00  0.00    +0.007 A 
ATOM     32  C   UNL     1      -7.676  -9.606  10.736  0.00  0.00    +0.020 A 
ATOM     33  C   UNL     1      -7.428 -11.982  10.377  0.00  0.00    +0.020 A 
ATOM     34  C   UNL     1      -7.347 -10.674   9.901  0.00  0.00    +0.041 A 
ENDBRANCH  19  22
ENDBRANCH  11  19
TORSDOF 7
ENDMDL
MODEL 5
REMARK VINA RESULT:      -6.0     27.524     30.341
REMARK  Name = 26745475
REMARK  8 active torsions:
REMARK  status: ('A' for Active; 'I' for Inactive)
REMARK    1  A    between atoms: S_2  and  N_10
REMARK    2  A    between atoms: S_2  and  C_21
REMARK    3  A    between atoms: O_8  and  C_18
REMARK    4  A    between atoms: O_8  and  C_30
REMARK    5  A    between atoms: N_11  and  C_19
REMARK    6  A    between atoms: C_13  and  C_18
REMARK    7  A    between atoms: C_19  and  C_22
REMARK    8  A    between atoms: C_25  and  C_31
REMARK                            x       y       z     vdW  Elec       q    Type
REMARK                         _______ _______ _______ _____ _____    ______ ____
ROOT
ATOM     10  N   UNL     1     -11.604   9.103  17.728  0.00  0.00    -0.157 NA
ATOM     11  N   UNL     1     -14.377   8.479  15.297  0.00  0.00    -0.328 N 
ATOM     12  N   UNL     1     -12.732   7.832  13.932  0.00  0.00    -0.240 NA
ATOM     13  C   UNL     1     -10.554   9.316  16.667  0.00  0.00    +0.194 C 
ATOM     14  C   UNL     1     -13.037   9.307  17.302  0.00  0.00    +0.165 C 
ATOM     15  C   UNL     1     -10.780   8.401  15.444  0.00  0.00    +0.089 C 
ATOM     16  C   UNL     1     -13.212   8.720  15.960  0.00  0.00    +0.057 A 
ATOM     17  C   UNL     1     -12.218   8.319  15.102  0.00  0.00    +0.066 A 
ATOM     20  C   UNL     1     -14.036   7.943  14.081  0.00  0.00    +0.200 A 
ENDROOT
BRANCH  10   2
ATOM      2  S   UNL     1     -11.223   9.656  19.304  0.00  0.00    +0.062 S 
ATOM      6  O   UNL     1     -11.858  10.938  19.521  0.00  0.00    -0.153 OA
ATOM      7  O   UNL     1      -9.805   9.476  19.534  0.00  0.00    -0.153 OA
BRANCH   2  21
ATOM     21  C   UNL     1     -12.086   8.455  20.268  0.00  0.00    +0.106 A 
ATOM     23  C   UNL     1     -13.306   8.781  20.861  0.00  0.00    +0.041 A 
ATOM     24  C   UNL     1     -11.547   7.180  20.437  0.00  0.00    +0.028 A 
ATOM     25  C   UNL     1     -13.987   7.832  21.623  0.00  0.00    +0.057 A 
ATOM     26  C   UNL     1     -12.229   6.230  21.200  0.00  0.00    +0.002 A 
ATOM     29  C   UNL     1     -13.449   6.557  21.792  0.00  0.00    +0.012 A 
BRANCH  25  31
ATOM      3  F   UNL     1     -16.009   9.079  21.519  0.00  0.00    -0.166 F 
ATOM      4  F   UNL     1     -16.119   7.108  22.432  0.00  0.00    -0.166 F 
ATOM      5  F   UNL     1     -15.166   8.742  23.495  0.00  0.00    -0.166 F 
ATOM     31  C   UNL     1     -15.292   8.181  22.255  0.00  0.00    +0.417 C 
ENDBRANCH  25  31
ENDBRANCH   2  21
ENDBRANCH  10   2
BRANCH  13  18
ATOM      9  O   UNL     1     -11.347  11.287  15.542  0.00  0.00    -0.249 OA
ATOM     18  C   UNL     1     -10.534  10.763  16.290  0.00  0.00    +0.326 C 
BRANCH  18   8
ATOM      8  O   UNL     1      -9.486  11.380  16.906  0.00  0.00    -0.467 OA
ATOM     30  C   UNL     1      -9.707  12.744  17.276  0.00  0.00    +0.280 C 
ENDBRANCH  18   8
ENDBRANCH  13  18
BRANCH  11  19
ATOM     19  C   UNL     1     -15.717   8.738  15.765  0.00  0.00    +0.158 C 
BRANCH  19  22
ATOM      1 CL   UNL     1     -17.886   4.391  19.318  0.00  0.00    -0.084 Cl
ATOM     22  C   UNL     1     -16.261   7.648  16.655  0.00  0.00    -0.028 A 
ATOM     27  C   UNL     1     -16.062   7.710  18.035  0.00  0.00    +0.007 A 
ATOM     28  C   UNL     1     -16.962   6.577  16.099  0.00  0.00    +0.007 A 
ATOM     32  C   UNL     1     -16.564   6.702  18.858  0.00  0.00    +0.020 A 
ATOM     33  C   UNL     1     -17.463   5.569  16.923  0.00  0.00    +0.020 A 
ATOM     34  C   UNL     1     -17.265   5.632  18.302  0.00  0.00    +0.041 A 
ENDBRANCH  19  22
ENDBRANCH  11  19
TORSDOF 7
ENDMDL
MODEL 6
REMARK VINA RESULT:      -5.9     24.418     27.097
REMARK  Name = 26745475
REMARK  8 active torsions:
REMARK  status: ('A' for Active; 'I' for Inactive)
REMARK    1  A    between atoms: S_2  and  N_10
REMARK    2  A    between atoms: S_2  and  C_21
REMARK    3  A    between atoms: O_8  and  C_18
REMARK    4  A    between atoms: O_8  and  C_30
REMARK    5  A    between atoms: N_11  and  C_19
REMARK    6  A    between atoms: C_13  and  C_18
REMARK    7  A    between atoms: C_19  and  C_22
REMARK    8  A    between atoms: C_25  and  C_31
REMARK                            x       y       z     vdW  Elec       q    Type
REMARK                         _______ _______ _______ _____ _____    ______ ____
ROOT
ATOM     10  N   UNL     1      -3.255 -13.351  12.654  0.00  0.00    -0.157 NA
ATOM     11  N   UNL     1      -3.578 -10.835  15.402  0.00  0.00    -0.328 N 
ATOM     12  N   UNL     1      -1.382 -11.158  15.650  0.00  0.00    -0.240 NA
ATOM     13  C   UNL     1      -2.035 -14.018  13.238  0.00  0.00    +0.194 C 
ATOM     14  C   UNL     1      -4.118 -12.572  13.617  0.00  0.00    +0.165 C 
ATOM     15  C   UNL     1      -1.104 -13.002  13.936  0.00  0.00    +0.089 C 
ATOM     16  C   UNL     1      -3.235 -11.828  14.535  0.00  0.00    +0.057 A 
ATOM     17  C   UNL     1      -1.885 -12.010  14.707  0.00  0.00    +0.066 A 
ATOM     20  C   UNL     1      -2.427 -10.464  16.051  0.00  0.00    +0.200 A 
ENDROOT
BRANCH  10   2
ATOM      2  S   UNL     1      -4.105 -14.227  11.453  0.00  0.00    +0.062 S 
ATOM      6  O   UNL     1      -5.427 -14.546  11.948  0.00  0.00    -0.153 OA
ATOM      7  O   UNL     1      -3.238 -15.258  10.922  0.00  0.00    -0.153 OA
BRANCH   2  21
ATOM     21  C   UNL     1      -4.276 -12.974  10.221  0.00  0.00    +0.106 A 
ATOM     23  C   UNL     1      -3.926 -11.656  10.513  0.00  0.00    +0.041 A 
ATOM     24  C   UNL     1      -4.761 -13.303   8.955  0.00  0.00    +0.028 A 
ATOM     25  C   UNL     1      -4.062 -10.666   9.540  0.00  0.00    +0.057 A 
ATOM     26  C   UNL     1      -4.897 -12.313   7.981  0.00  0.00    +0.002 A 
ATOM     29  C   UNL     1      -4.546 -10.995   8.275  0.00  0.00    +0.012 A 
BRANCH  25  31
ATOM      3  F   UNL     1      -3.837  -8.425   8.781  0.00  0.00    -0.166 F 
ATOM      4  F   UNL     1      -4.430  -8.703  10.854  0.00  0.00    -0.166 F 
ATOM      5  F   UNL     1      -2.388  -9.112  10.249  0.00  0.00    -0.166 F 
ATOM     31  C   UNL     1      -3.687  -9.258   9.852  0.00  0.00    +0.417 C 
ENDBRANCH  25  31
ENDBRANCH   2  21
ENDBRANCH  10   2
BRANCH  13  18
ATOM      9  O   UNL     1      -3.534 -15.094  14.779  0.00  0.00    -0.249 OA
ATOM     18  C   UNL     1      -2.476 -15.105  14.166  0.00  0.00    +0.326 C 
BRANCH  18   8
ATOM      8  O   UNL     1      -1.526 -16.081  14.209  0.00  0.00    -0.467 OA
ATOM     30  C   UNL     1      -1.501 -16.864  15.406  0.00  0.00    +0.280 C 
ENDBRANCH  18   8
ENDBRANCH  13  18
BRANCH  11  19
ATOM     19  C   UNL     1      -4.891 -10.278  15.617  0.00  0.00    +0.158 C 
BRANCH  19  22
ATOM      1 CL   UNL     1      -7.919 -12.966  20.071  0.00  0.00    -0.084 Cl
ATOM     22  C   UNL     1      -5.650 -10.951  16.734  0.00  0.00    -0.028 A 
ATOM     27  C   UNL     1      -6.834 -11.635  16.459  0.00  0.00    +0.007 A 
ATOM     28  C   UNL     1      -5.167 -10.890  18.042  0.00  0.00    +0.007 A 
ATOM     32  C   UNL     1      -7.537 -12.256  17.492  0.00  0.00    +0.020 A 
ATOM     33  C   UNL     1      -5.870 -11.512  19.074  0.00  0.00    +0.020 A 
ATOM     34  C   UNL     1      -7.055 -12.195  18.799  0.00  0.00    +0.041 A 
ENDBRANCH  19  22
ENDBRANCH  11  19
TORSDOF 7
ENDMDL
MODEL 7
REMARK VINA RESULT:      -5.8      4.110      6.273
REMARK  Name = 26745475
REMARK  8 active torsions:
REMARK  status: ('A' for Active; 'I' for Inactive)
REMARK    1  A    between atoms: S_2  and  N_10
REMARK    2  A    between atoms: S_2  and  C_21
REMARK    3  A    between atoms: O_8  and  C_18
REMARK    4  A    between atoms: O_8  and  C_30
REMARK    5  A    between atoms: N_11  and  C_19
REMARK    6  A    between atoms: C_13  and  C_18
REMARK    7  A    between atoms: C_19  and  C_22
REMARK    8  A    between atoms: C_25  and  C_31
REMARK                            x       y       z     vdW  Elec       q    Type
REMARK                         _______ _______ _______ _____ _____    ______ ____
ROOT
ATOM     10  N   UNL     1      11.424   6.368   5.119  0.00  0.00    -0.157 NA
ATOM     11  N   UNL     1      14.443   8.470   4.448  0.00  0.00    -0.328 N 
ATOM     12  N   UNL     1      15.047   7.862   6.510  0.00  0.00    -0.240 NA
ATOM     13  C   UNL     1      11.494   6.523   6.617  0.00  0.00    +0.194 C 
ATOM     14  C   UNL     1      12.121   7.429   4.303  0.00  0.00    +0.165 C 
ATOM     15  C   UNL     1      12.954   6.572   7.121  0.00  0.00    +0.089 C 
ATOM     16  C   UNL     1      13.406   7.747   4.954  0.00  0.00    +0.057 A 
ATOM     17  C   UNL     1      13.798   7.388   6.220  0.00  0.00    +0.066 A 
ATOM     20  C   UNL     1      15.408   8.511   5.423  0.00  0.00    +0.200 A 
ENDROOT
BRANCH  10   2
ATOM      2  S   UNL     1       9.938   5.809   4.476  0.00  0.00    +0.062 S 
ATOM      6  O   UNL     1       9.078   6.944   4.219  0.00  0.00    -0.153 OA
ATOM      7  O   UNL     1       9.477   4.687   5.267  0.00  0.00    -0.153 OA
BRANCH   2  21
ATOM     21  C   UNL     1      10.491   5.185   2.920  0.00  0.00    +0.106 A 
ATOM     23  C   UNL     1      10.039   5.765   1.735  0.00  0.00    +0.041 A 
ATOM     24  C   UNL     1      11.380   4.111   2.876  0.00  0.00    +0.028 A 
ATOM     25  C   UNL     1      10.476   5.272   0.506  0.00  0.00    +0.057 A 
ATOM     26  C   UNL     1      11.818   3.617   1.646  0.00  0.00    +0.002 A 
ATOM     29  C   UNL     1      11.365   4.199   0.462  0.00  0.00    +0.012 A 
BRANCH  25  31
ATOM      3  F   UNL     1       9.571   7.179  -0.587  0.00  0.00    -0.166 F 
ATOM      4  F   UNL     1      10.944   5.949  -1.740  0.00  0.00    -0.166 F 
ATOM      5  F   UNL     1       8.939   5.235  -1.326  0.00  0.00    -0.166 F 
ATOM     31  C   UNL     1       9.994   5.893  -0.761  0.00  0.00    +0.417 C 
ENDBRANCH  25  31
ENDBRANCH   2  21
ENDBRANCH  10   2
BRANCH  13  18
ATOM      9  O   UNL     1      11.151   8.881   6.930  0.00  0.00    -0.249 OA
ATOM     18  C   UNL     1      10.722   7.739   7.014  0.00  0.00    +0.326 C 
BRANCH  18   8
ATOM      8  O   UNL     1       9.492   7.369   7.471  0.00  0.00    -0.467 OA
ATOM     30  C   UNL     1       9.477   6.244   8.355  0.00  0.00    +0.280 C 
ENDBRANCH  18   8
ENDBRANCH  13  18
BRANCH  11  19
ATOM     19  C   UNL     1      14.525   9.089   3.147  0.00  0.00    +0.158 C 
BRANCH  19  22
ATOM      1 CL   UNL     1      14.282   5.134  -1.385  0.00  0.00    -0.084 Cl
ATOM     22  C   UNL     1      14.464   8.098   2.010  0.00  0.00    -0.028 A 
ATOM     27  C   UNL     1      15.351   7.022   1.975  0.00  0.00    +0.007 A 
ATOM     28  C   UNL     1      13.520   8.258   0.995  0.00  0.00    +0.007 A 
ATOM     32  C   UNL     1      15.295   6.107   0.924  0.00  0.00    +0.020 A 
ATOM     33  C   UNL     1      13.465   7.342  -0.056  0.00  0.00    +0.020 A 
ATOM     34  C   UNL     1      14.353   6.266  -0.091  0.00  0.00    +0.041 A 
ENDBRANCH  19  22
ENDBRANCH  11  19
TORSDOF 7
ENDMDL
MODEL 8
REMARK VINA RESULT:      -5.8     27.243     30.260
REMARK  Name = 26745475
REMARK  8 active torsions:
REMARK  status: ('A' for Active; 'I' for Inactive)
REMARK    1  A    between atoms: S_2  and  N_10
REMARK    2  A    between atoms: S_2  and  C_21
REMARK    3  A    between atoms: O_8  and  C_18
REMARK    4  A    between atoms: O_8  and  C_30
REMARK    5  A    between atoms: N_11  and  C_19
REMARK    6  A    between atoms: C_13  and  C_18
REMARK    7  A    between atoms: C_19  and  C_22
REMARK    8  A    between atoms: C_25  and  C_31
REMARK                            x       y       z     vdW  Elec       q    Type
REMARK                         _______ _______ _______ _____ _____    ______ ____
ROOT
ATOM     10  N   UNL     1     -12.770   8.511  15.816  0.00  0.00    -0.157 NA
ATOM     11  N   UNL     1     -16.369   7.514  16.009  0.00  0.00    -0.328 N 
ATOM     12  N   UNL     1     -15.959   6.501  14.061  0.00  0.00    -0.240 NA
ATOM     13  C   UNL     1     -12.699   8.433  14.312  0.00  0.00    +0.194 C 
ATOM     14  C   UNL     1     -14.144   8.691  16.413  0.00  0.00    +0.165 C 
ATOM     15  C   UNL     1     -13.570   7.286  13.756  0.00  0.00    +0.089 C 
ATOM     16  C   UNL     1     -15.088   7.834  15.672  0.00  0.00    +0.057 A 
ATOM     17  C   UNL     1     -14.862   7.205  14.473  0.00  0.00    +0.066 A 
ATOM     20  C   UNL     1     -16.851   6.709  15.008  0.00  0.00    +0.200 A 
ENDROOT
BRANCH  10   2
ATOM      2  S   UNL     1     -11.513   9.375  16.598  0.00  0.00    +0.062 S 
ATOM      6  O   UNL     1     -11.843  10.784  16.605  0.00  0.00    -0.153 OA
ATOM      7  O   UNL     1     -10.239   8.909  16.092  0.00  0.00    -0.153 OA
BRANCH   2  21
ATOM     21  C   UNL     1     -11.700   8.766  18.244  0.00  0.00    +0.106 A 
ATOM     23  C   UNL     1     -12.137   9.619  19.258  0.00  0.00    +0.041 A 
ATOM     24  C   UNL     1     -11.409   7.433  18.531  0.00  0.00    +0.028 A 
ATOM     25  C   UNL     1     -12.283   9.138  20.559  0.00  0.00    +0.057 A 
ATOM     26  C   UNL     1     -11.557   6.951  19.833  0.00  0.00    +0.002 A 
ATOM     29  C   UNL     1     -11.994   7.805  20.846  0.00  0.00    +0.012 A 
BRANCH  25  31
ATOM      3  F   UNL     1     -13.869  10.750  21.293  0.00  0.00    -0.166 F 
ATOM      4  F   UNL     1     -13.073   9.401  22.801  0.00  0.00    -0.166 F 
ATOM      5  F   UNL     1     -11.828  10.988  22.004  0.00  0.00    -0.166 F 
ATOM     31  C   UNL     1     -12.751  10.049  21.642  0.00  0.00    +0.417 C 
ENDBRANCH  25  31
ENDBRANCH   2  21
ENDBRANCH  10   2
BRANCH  13  18
ATOM      9  O   UNL     1     -14.232  10.183  13.707  0.00  0.00    -0.249 OA
ATOM     18  C   UNL     1     -13.086   9.760  13.740  0.00  0.00    +0.326 C 
BRANCH  18   8
ATOM      8  O   UNL     1     -11.974  10.398  13.278  0.00  0.00    -0.467 OA
ATOM     30  C   UNL     1     -12.036  10.833  11.916  0.00  0.00    +0.280 C 
ENDBRANCH  18   8
ENDBRANCH  13  18
BRANCH  11  19
ATOM     19  C   UNL     1     -17.095   7.937  17.182  0.00  0.00    +0.158 C 
BRANCH  19  22
ATOM      1 CL   UNL     1     -15.455   5.020  22.185  0.00  0.00    -0.084 Cl
ATOM     22  C   UNL     1     -16.684   7.205  18.436  0.00  0.00    -0.028 A 
ATOM     27  C   UNL     1     -15.828   7.818  19.351  0.00  0.00    +0.007 A 
ATOM     28  C   UNL     1     -17.160   5.916  18.679  0.00  0.00    +0.007 A 
ATOM     32  C   UNL     1     -15.447   7.141  20.510  0.00  0.00    +0.020 A 
ATOM     33  C   UNL     1     -16.778   5.240  19.838  0.00  0.00    +0.020 A 
ATOM     34  C   UNL     1     -15.922   5.853  20.754  0.00  0.00    +0.041 A 
ENDBRANCH  19  22
ENDBRANCH  11  19
TORSDOF 7
ENDMDL
MODEL 9
REMARK VINA RESULT:      -5.8      2.924      5.331
REMARK  Name = 26745475
REMARK  8 active torsions:
REMARK  status: ('A' for Active; 'I' for Inactive)
REMARK    1  A    between atoms: S_2  and  N_10
REMARK    2  A    between atoms: S_2  and  C_21
REMARK    3  A    between atoms: O_8  and  C_18
REMARK    4  A    between atoms: O_8  and  C_30
REMARK    5  A    between atoms: N_11  and  C_19
REMARK    6  A    between atoms: C_13  and  C_18
REMARK    7  A    between atoms: C_19  and  C_22
REMARK    8  A    between atoms: C_25  and  C_31
REMARK                            x       y       z     vdW  Elec       q    Type
REMARK                         _______ _______ _______ _____ _____    ______ ____
ROOT
ATOM     10  N   UNL     1      15.307   6.415   1.317  0.00  0.00    -0.157 NA
ATOM     11  N   UNL     1      12.048   4.797   2.181  0.00  0.00    -0.328 N 
ATOM     12  N   UNL     1      13.109   2.901   1.665  0.00  0.00    -0.240 NA
ATOM     13  C   UNL     1      15.750   5.314   0.387  0.00  0.00    +0.194 C 
ATOM     14  C   UNL     1      13.823   6.521   1.569  0.00  0.00    +0.165 C 
ATOM     15  C   UNL     1      15.291   3.925   0.882  0.00  0.00    +0.089 C 
ATOM     16  C   UNL     1      13.278   5.159   1.723  0.00  0.00    +0.057 A 
ATOM     17  C   UNL     1      13.909   3.980   1.410  0.00  0.00    +0.066 A 
ATOM     20  C   UNL     1      11.994   3.427   2.128  0.00  0.00    +0.200 A 
ENDROOT
BRANCH  10   2
ATOM      2  S   UNL     1      16.136   7.908   1.185  0.00  0.00    +0.062 S 
ATOM      6  O   UNL     1      15.204   8.929   0.755  0.00  0.00    -0.153 OA
ATOM      7  O   UNL     1      17.383   7.692   0.481  0.00  0.00    -0.153 OA
BRANCH   2  21
ATOM     21  C   UNL     1      16.515   8.201   2.883  0.00  0.00    +0.106 A 
ATOM     23  C   UNL     1      15.488   8.450   3.795  0.00  0.00    +0.041 A 
ATOM     24  C   UNL     1      17.841   8.184   3.314  0.00  0.00    +0.028 A 
ATOM     25  C   UNL     1      15.788   8.681   5.137  0.00  0.00    +0.057 A 
ATOM     26  C   UNL     1      18.141   8.416   4.658  0.00  0.00    +0.002 A 
ATOM     29  C   UNL     1      17.113   8.664   5.568  0.00  0.00    +0.012 A 
BRANCH  25  31
ATOM      3  F   UNL     1      14.454   7.886   6.937  0.00  0.00    -0.166 F 
ATOM      4  F   UNL     1      14.935  10.006   6.937  0.00  0.00    -0.166 F 
ATOM      5  F   UNL     1      13.490   9.225   5.521  0.00  0.00    -0.166 F 
ATOM     31  C   UNL     1      14.691   8.946   6.111  0.00  0.00    +0.417 C 
ENDBRANCH  25  31
ENDBRANCH   2  21
ENDBRANCH  10   2
BRANCH  13  18
ATOM      9  O   UNL     1      15.131   6.741  -1.446  0.00  0.00    -0.249 OA
ATOM     18  C   UNL     1      15.249   5.612  -0.990  0.00  0.00    +0.326 C 
BRANCH  18   8
ATOM      8  O   UNL     1      14.956   4.446  -1.632  0.00  0.00    -0.467 OA
ATOM     30  C   UNL     1      14.512   4.582  -2.985  0.00  0.00    +0.280 C 
ENDBRANCH  18   8
ENDBRANCH  13  18
BRANCH  11  19
ATOM     19  C   UNL     1      10.991   5.671   2.630  0.00  0.00    +0.158 C 
BRANCH  19  22
ATOM      1 CL   UNL     1      10.386   5.794   8.618  0.00  0.00    -0.084 Cl
ATOM     22  C   UNL     1      10.839   5.703   4.131  0.00  0.00    -0.028 A 
ATOM     27  C   UNL     1       9.854   4.932   4.749  0.00  0.00    +0.007 A 
ATOM     28  C   UNL     1      11.685   6.502   4.902  0.00  0.00    +0.007 A 
ATOM     32  C   UNL     1       9.713   4.962   6.136  0.00  0.00    +0.020 A 
ATOM     33  C   UNL     1      11.543   6.532   6.289  0.00  0.00    +0.020 A 
ATOM     34  C   UNL     1      10.558   5.761   6.906  0.00  0.00    +0.041 A 
ENDBRANCH  19  22
ENDBRANCH  11  19
TORSDOF 7
ENDMDL
MODEL 10
REMARK VINA RESULT:      -5.8     24.291     27.590
REMARK  Name = 26745475
REMARK  8 active torsions:
REMARK  status: ('A' for Active; 'I' for Inactive)
REMARK    1  A    between atoms: S_2  and  N_10
REMARK    2  A    between atoms: S_2  and  C_21
REMARK    3  A    between atoms: O_8  and  C_18
REMARK    4  A    between atoms: O_8  and  C_30
REMARK    5  A    between atoms: N_11  and  C_19
REMARK    6  A    between atoms: C_13  and  C_18
REMARK    7  A    between atoms: C_19  and  C_22
REMARK    8  A    between atoms: C_25  and  C_31
REMARK                            x       y       z     vdW  Elec       q    Type
REMARK                         _______ _______ _______ _____ _____    ______ ____
ROOT
ATOM     10  N   UNL     1      -4.807 -10.991  14.888  0.00  0.00    -0.157 NA
ATOM     11  N   UNL     1      -8.538 -10.791  15.045  0.00  0.00    -0.328 N 
ATOM     12  N   UNL     1      -8.164  -9.247  16.614  0.00  0.00    -0.240 NA
ATOM     13  C   UNL     1      -4.596 -10.512  16.302  0.00  0.00    +0.194 C 
ATOM     14  C   UNL     1      -6.160 -11.581  14.575  0.00  0.00    +0.165 C 
ATOM     15  C   UNL     1      -5.641  -9.449  16.709  0.00  0.00    +0.089 C 
ATOM     16  C   UNL     1      -7.190 -10.759  15.239  0.00  0.00    +0.057 A 
ATOM     17  C   UNL     1      -6.986  -9.808  16.208  0.00  0.00    +0.066 A 
ATOM     20  C   UNL     1      -9.081  -9.862  15.896  0.00  0.00    +0.200 A 
ENDROOT
BRANCH  10   2
ATOM      2  S   UNL     1      -3.478 -11.769  14.138  0.00  0.00    +0.062 S 
ATOM      6  O   UNL     1      -3.885 -13.090  13.710  0.00  0.00    -0.153 OA
ATOM      7  O   UNL     1      -2.300 -11.581  14.958  0.00  0.00    -0.153 OA
BRANCH   2  21
ATOM     21  C   UNL     1      -3.304 -10.763  12.699  0.00  0.00    +0.106 A 
ATOM     23  C   UNL     1      -4.435 -10.236  12.075  0.00  0.00    +0.041 A 
ATOM     24  C   UNL     1      -2.035 -10.495  12.185  0.00  0.00    +0.028 A 
ATOM     25  C   UNL     1      -4.297  -9.440  10.937  0.00  0.00    +0.057 A 
ATOM     26  C   UNL     1      -1.897  -9.699  11.046  0.00  0.00    +0.002 A 
ATOM     29  C   UNL     1      -3.029  -9.172  10.424  0.00  0.00    +0.012 A 
BRANCH  25  31
ATOM      3  F   UNL     1      -6.560  -8.737  11.127  0.00  0.00    -0.166 F 
ATOM      4  F   UNL     1      -5.306  -7.637   9.732  0.00  0.00    -0.166 F 
ATOM      5  F   UNL     1      -5.970  -9.642   9.240  0.00  0.00    -0.166 F 
ATOM     31  C   UNL     1      -5.506  -8.876  10.271  0.00  0.00    +0.417 C 
ENDBRANCH  25  31
ENDBRANCH   2  21
ENDBRANCH  10   2
BRANCH  13  18
ATOM      9  O   UNL     1      -4.723 -12.850  16.845  0.00  0.00    -0.249 OA
ATOM     18  C   UNL     1      -4.610 -11.692  17.220  0.00  0.00    +0.326 C 
BRANCH  18   8
ATOM      8  O   UNL     1      -4.476 -11.269  18.509  0.00  0.00    -0.467 OA
ATOM     30  C   UNL     1      -3.721 -12.131  19.365  0.00  0.00    +0.280 C 
ENDBRANCH  18   8
ENDBRANCH  13  18
BRANCH  11  19
ATOM     19  C   UNL     1      -9.269 -11.637  14.134  0.00  0.00    +0.158 C 
BRANCH  19  22
ATOM      1 CL   UNL     1      -9.159  -9.667   8.447  0.00  0.00    -0.084 Cl
ATOM     22  C   UNL     1      -9.242 -11.144  12.708  0.00  0.00    -0.028 A 
ATOM     27  C   UNL     1      -9.909  -9.969  12.364  0.00  0.00    +0.007 A 
ATOM     28  C   UNL     1      -8.549 -11.863  11.734  0.00  0.00    +0.007 A 
ATOM     32  C   UNL     1      -9.885  -9.513  11.046  0.00  0.00    +0.020 A 
ATOM     33  C   UNL     1      -8.524 -11.407  10.416  0.00  0.00    +0.020 A 
ATOM     34  C   UNL     1      -9.192 -10.231  10.072  0.00  0.00    +0.041 A 
ENDBRANCH  19  22
ENDBRANCH  11  19
TORSDOF 7
ENDMDL
