MODEL 1
REMARK VINA RESULT:      -6.3      0.000      0.000
REMARK  Name = 38027389
REMARK  17 active torsions:
REMARK  status: ('A' for Active; 'I' for Inactive)
REMARK    1  A    between atoms: S_1  and  N_6
REMARK    2  A    between atoms: S_1  and  C_22
REMARK    3  A    between atoms: O_5  and  C_29
REMARK    4  A    between atoms: O_5  and  C_32
REMARK    5  A    between atoms: N_6  and  C_16
REMARK    6  A    between atoms: N_7  and  C_23
REMARK    7  A    between atoms: N_8  and  C_24
REMARK    8  A    between atoms: N_8  and  C_30
REMARK    9  A    between atoms: N_8  and  C_31
REMARK   10  A    between atoms: C_9  and  C_13
REMARK   11  A    between atoms: C_10  and  C_16
REMARK   12  A    between atoms: C_12  and  C_17
REMARK   13  A    between atoms: C_13  and  C_18
REMARK   14  A    between atoms: C_13  and  C_19
REMARK   15  A    between atoms: C_14  and  C_20
REMARK   16  A    between atoms: C_17  and  C_21
REMARK   17  A    between atoms: C_23  and  C_24
REMARK                            x       y       z     vdW  Elec       q    Type
REMARK                         _______ _______ _______ _____ _____    ______ ____
ROOT
ATOM      9  C   UNL     1      -6.717 -10.916  17.925  0.00  0.00    +0.000 C 
ATOM     10  C   UNL     1      -5.949 -11.287  16.631  0.00  0.00    +0.030 C 
ATOM     11  C   UNL     1      -8.233 -10.946  17.676  0.00  0.00    +0.012 C 
ATOM     12  C   UNL     1      -8.659  -9.975  16.559  0.00  0.00    +0.023 C 
ATOM     14  C   UNL     1      -7.770 -10.095  15.338  0.00  0.00    -0.073 C 
ATOM     15  C   UNL     1      -6.568 -10.697  15.387  0.00  0.00    -0.023 C 
ATOM     20  C   UNL     1      -8.315  -9.548  14.048  0.00  0.00    +0.039 C 
ENDROOT
BRANCH   9  13
ATOM     13  C   UNL     1      -6.363 -11.852  19.085  0.00  0.00    -0.013 C 
ATOM     18  C   UNL     1      -5.667 -11.077  20.200  0.00  0.00    +0.007 C 
ATOM     19  C   UNL     1      -7.616 -12.547  19.610  0.00  0.00    +0.007 C 
ENDBRANCH   9  13
BRANCH  10  16
ATOM     16  C   UNL     1      -4.478 -10.863  16.721  0.00  0.00    +0.113 C 
BRANCH  16   6
ATOM      6  N   UNL     1      -4.037 -10.300  15.484  0.00  0.00    -0.189 NA
ATOM     33  H   UNL     1      -4.733  -9.803  14.915  0.00  0.00    +0.148 HD
BRANCH   6   1
ATOM      1  S   UNL     1      -2.664 -10.929  14.649  0.00  0.00    +0.058 S 
ATOM      3  O   UNL     1      -2.749 -12.376  14.648  0.00  0.00    -0.153 OA
ATOM      4  O   UNL     1      -1.454 -10.269  15.102  0.00  0.00    -0.153 OA
BRANCH   1  22
ATOM     22  C   UNL     1      -2.975 -10.363  13.003  0.00  0.00    +0.105 A 
ATOM     25  C   UNL     1      -4.285 -10.279  12.530  0.00  0.00    +0.032 A 
ATOM     26  C   UNL     1      -1.911 -10.004  12.176  0.00  0.00    +0.032 A 
ATOM     27  C   UNL     1      -4.531  -9.836  11.231  0.00  0.00    +0.047 A 
ATOM     28  C   UNL     1      -2.157  -9.560  10.876  0.00  0.00    +0.047 A 
ATOM     29  C   UNL     1      -3.466  -9.476  10.404  0.00  0.00    +0.120 A 
BRANCH  29   5
ATOM      5  O   UNL     1      -3.706  -9.043   9.137  0.00  0.00    -0.495 OA
ATOM     32  C   UNL     1      -4.838  -9.596   8.465  0.00  0.00    +0.277 C 
ENDBRANCH  29   5
ENDBRANCH   1  22
ENDBRANCH   6   1
ENDBRANCH  16   6
ENDBRANCH  10  16
BRANCH  12  17
ATOM     17  C   UNL     1      -8.698  -8.531  17.069  0.00  0.00    +0.103 C 
BRANCH  17  21
ATOM      2  O   UNL     1     -11.079  -8.477  17.497  0.00  0.00    -0.276 OA
ATOM      7  N   UNL     1     -10.088  -6.734  16.322  0.00  0.00    -0.314 N 
ATOM     21  C   UNL     1     -10.089  -7.941  17.005  0.00  0.00    +0.214 C 
ATOM     34  H   UNL     1      -9.215  -6.368  15.951  0.00  0.00    +0.149 HD
BRANCH   7  23
ATOM     23  C   UNL     1     -11.280  -5.948  16.107  0.00  0.00    +0.119 C 
BRANCH  23  24
ATOM     24  C   UNL     1     -11.583  -5.798  14.623  0.00  0.00    +0.102 C 
BRANCH  24   8
ATOM      8  N   UNL     1     -12.968  -6.158  14.350  0.00  0.00    -0.307 NA
ATOM     30  C   UNL     1     -13.652  -6.553  15.583  0.00  0.00    +0.104 C 
ATOM     31  C   UNL     1     -13.675  -5.045  13.713  0.00  0.00    +0.104 C 
ENDBRANCH  24   8
ENDBRANCH  23  24
ENDBRANCH   7  23
ENDBRANCH  17  21
ENDBRANCH  12  17
TORSDOF 11
ENDMDL
MODEL 2
REMARK VINA RESULT:      -6.3      3.002      5.091
REMARK  Name = 38027389
REMARK  17 active torsions:
REMARK  status: ('A' for Active; 'I' for Inactive)
REMARK    1  A    between atoms: S_1  and  N_6
REMARK    2  A    between atoms: S_1  and  C_22
REMARK    3  A    between atoms: O_5  and  C_29
REMARK    4  A    between atoms: O_5  and  C_32
REMARK    5  A    between atoms: N_6  and  C_16
REMARK    6  A    between atoms: N_7  and  C_23
REMARK    7  A    between atoms: N_8  and  C_24
REMARK    8  A    between atoms: N_8  and  C_30
REMARK    9  A    between atoms: N_8  and  C_31
REMARK   10  A    between atoms: C_9  and  C_13
REMARK   11  A    between atoms: C_10  and  C_16
REMARK   12  A    between atoms: C_12  and  C_17
REMARK   13  A    between atoms: C_13  and  C_18
REMARK   14  A    between atoms: C_13  and  C_19
REMARK   15  A    between atoms: C_14  and  C_20
REMARK   16  A    between atoms: C_17  and  C_21
REMARK   17  A    between atoms: C_23  and  C_24
REMARK                            x       y       z     vdW  Elec       q    Type
REMARK                         _______ _______ _______ _____ _____    ______ ____
ROOT
ATOM      9  C   UNL     1      -9.016 -10.154  15.701  0.00  0.00    +0.000 C 
ATOM     10  C   UNL     1      -8.724  -9.449  17.050  0.00  0.00    +0.030 C 
ATOM     11  C   UNL     1      -9.256  -9.116  14.595  0.00  0.00    +0.012 C 
ATOM     12  C   UNL     1     -10.434  -8.178  14.921  0.00  0.00    +0.023 C 
ATOM     14  C   UNL     1     -10.356  -7.649  16.339  0.00  0.00    -0.073 C 
ATOM     15  C   UNL     1      -9.576  -8.223  17.273  0.00  0.00    -0.023 C 
ATOM     20  C   UNL     1     -11.162  -6.418  16.647  0.00  0.00    +0.039 C 
ENDROOT
BRANCH   9  13
ATOM     13  C   UNL     1      -7.878 -11.095  15.292  0.00  0.00    -0.013 C 
ATOM     18  C   UNL     1      -8.439 -12.434  14.822  0.00  0.00    +0.007 C 
ATOM     19  C   UNL     1      -7.023 -10.454  14.204  0.00  0.00    +0.007 C 
ENDBRANCH   9  13
BRANCH  10  16
ATOM     16  C   UNL     1      -8.898 -10.414  18.228  0.00  0.00    +0.113 C 
BRANCH  16   6
ATOM      6  N   UNL     1      -7.841 -10.253  19.176  0.00  0.00    -0.189 NA
ATOM     33  H   UNL     1      -7.443  -9.313  19.285  0.00  0.00    +0.148 HD
BRANCH   6   1
ATOM      1  S   UNL     1      -6.832 -11.578  19.630  0.00  0.00    +0.058 S 
ATOM      3  O   UNL     1      -7.640 -12.780  19.666  0.00  0.00    -0.153 OA
ATOM      4  O   UNL     1      -6.009 -11.216  20.768  0.00  0.00    -0.153 OA
BRANCH   1  22
ATOM     22  C   UNL     1      -5.758 -11.685  18.229  0.00  0.00    +0.105 A 
ATOM     25  C   UNL     1      -5.060 -10.557  17.797  0.00  0.00    +0.032 A 
ATOM     26  C   UNL     1      -5.611 -12.897  17.555  0.00  0.00    +0.032 A 
ATOM     27  C   UNL     1      -4.216 -10.641  16.691  0.00  0.00    +0.047 A 
ATOM     28  C   UNL     1      -4.766 -12.981  16.448  0.00  0.00    +0.047 A 
ATOM     29  C   UNL     1      -4.068 -11.854  16.016  0.00  0.00    +0.120 A 
BRANCH  29   5
ATOM      5  O   UNL     1      -3.244 -11.936  14.937  0.00  0.00    -0.495 OA
ATOM     32  C   UNL     1      -2.653 -10.720  14.477  0.00  0.00    +0.277 C 
ENDBRANCH  29   5
ENDBRANCH   1  22
ENDBRANCH   6   1
ENDBRANCH  16   6
ENDBRANCH  10  16
BRANCH  12  17
ATOM     17  C   UNL     1     -11.777  -8.869  14.665  0.00  0.00    +0.103 C 
BRANCH  17  21
ATOM      2  O   UNL     1     -14.018  -7.986  14.437  0.00  0.00    -0.276 OA
ATOM      7  N   UNL     1     -12.258  -6.936  13.341  0.00  0.00    -0.314 N 
ATOM     21  C   UNL     1     -12.825  -7.905  14.156  0.00  0.00    +0.214 C 
ATOM     34  H   UNL     1     -11.257  -6.950  13.168  0.00  0.00    +0.149 HD
BRANCH   7  23
ATOM     23  C   UNL     1     -13.024  -5.885  12.714  0.00  0.00    +0.119 C 
BRANCH  23  24
ATOM     24  C   UNL     1     -13.178  -4.687  13.640  0.00  0.00    +0.102 C 
BRANCH  24   8
ATOM      8  N   UNL     1     -13.302  -3.460  12.864  0.00  0.00    -0.307 NA
ATOM     30  C   UNL     1     -12.345  -3.450  11.756  0.00  0.00    +0.104 C 
ATOM     31  C   UNL     1     -14.667  -3.306  12.356  0.00  0.00    +0.104 C 
ENDBRANCH  24   8
ENDBRANCH  23  24
ENDBRANCH   7  23
ENDBRANCH  17  21
ENDBRANCH  12  17
TORSDOF 11
ENDMDL
MODEL 3
REMARK VINA RESULT:      -6.1     24.774     27.838
REMARK  Name = 38027389
REMARK  17 active torsions:
REMARK  status: ('A' for Active; 'I' for Inactive)
REMARK    1  A    between atoms: S_1  and  N_6
REMARK    2  A    between atoms: S_1  and  C_22
REMARK    3  A    between atoms: O_5  and  C_29
REMARK    4  A    between atoms: O_5  and  C_32
REMARK    5  A    between atoms: N_6  and  C_16
REMARK    6  A    between atoms: N_7  and  C_23
REMARK    7  A    between atoms: N_8  and  C_24
REMARK    8  A    between atoms: N_8  and  C_30
REMARK    9  A    between atoms: N_8  and  C_31
REMARK   10  A    between atoms: C_9  and  C_13
REMARK   11  A    between atoms: C_10  and  C_16
REMARK   12  A    between atoms: C_12  and  C_17
REMARK   13  A    between atoms: C_13  and  C_18
REMARK   14  A    between atoms: C_13  and  C_19
REMARK   15  A    between atoms: C_14  and  C_20
REMARK   16  A    between atoms: C_17  and  C_21
REMARK   17  A    between atoms: C_23  and  C_24
REMARK                            x       y       z     vdW  Elec       q    Type
REMARK                         _______ _______ _______ _____ _____    ______ ____
ROOT
ATOM      9  C   UNL     1       8.960   8.762   3.279  0.00  0.00    +0.000 C 
ATOM     10  C   UNL     1       7.937   8.204   4.300  0.00  0.00    +0.030 C 
ATOM     11  C   UNL     1       9.510   7.631   2.397  0.00  0.00    +0.012 C 
ATOM     12  C   UNL     1      10.198   6.529   3.224  0.00  0.00    +0.023 C 
ATOM     14  C   UNL     1       9.358   6.111   4.415  0.00  0.00    -0.073 C 
ATOM     15  C   UNL     1       8.344   6.867   4.873  0.00  0.00    -0.023 C 
ATOM     20  C   UNL     1       9.683   4.783   5.039  0.00  0.00    +0.039 C 
ENDROOT
BRANCH   9  13
ATOM     13  C   UNL     1       8.346   9.856   2.399  0.00  0.00    -0.013 C 
ATOM     18  C   UNL     1       9.336  10.289   1.322  0.00  0.00    +0.007 C 
ATOM     19  C   UNL     1       7.044   9.366   1.773  0.00  0.00    +0.007 C 
ENDBRANCH   9  13
BRANCH  10  16
ATOM     16  C   UNL     1       7.697   9.197   5.443  0.00  0.00    +0.113 C 
BRANCH  16   6
ATOM      6  N   UNL     1       8.935   9.607   6.027  0.00  0.00    -0.189 NA
ATOM     33  H   UNL     1       9.694   9.874   5.388  0.00  0.00    +0.148 HD
BRANCH   6   1
ATOM      1  S   UNL     1       9.401   9.086   7.605  0.00  0.00    +0.058 S 
ATOM      3  O   UNL     1       8.595   7.937   7.967  0.00  0.00    -0.153 OA
ATOM      4  O   UNL     1       9.497  10.223   8.501  0.00  0.00    -0.153 OA
BRANCH   1  22
ATOM     22  C   UNL     1      11.050   8.523   7.307  0.00  0.00    +0.105 A 
ATOM     25  C   UNL     1      12.063   9.444   7.037  0.00  0.00    +0.032 A 
ATOM     26  C   UNL     1      11.338   7.159   7.338  0.00  0.00    +0.032 A 
ATOM     27  C   UNL     1      13.363   9.000   6.799  0.00  0.00    +0.047 A 
ATOM     28  C   UNL     1      12.639   6.715   7.100  0.00  0.00    +0.047 A 
ATOM     29  C   UNL     1      13.651   7.635   6.830  0.00  0.00    +0.120 A 
BRANCH  29   5
ATOM      5  O   UNL     1      14.920   7.202   6.599  0.00  0.00    -0.495 OA
ATOM     32  C   UNL     1      15.858   8.166   6.119  0.00  0.00    +0.277 C 
ENDBRANCH  29   5
ENDBRANCH   1  22
ENDBRANCH   6   1
ENDBRANCH  16   6
ENDBRANCH  10  16
BRANCH  12  17
ATOM     17  C   UNL     1      11.599   6.964   3.666  0.00  0.00    +0.103 C 
BRANCH  17  21
ATOM      2  O   UNL     1      13.367   7.326   2.055  0.00  0.00    -0.276 OA
ATOM      7  N   UNL     1      12.732   5.155   2.588  0.00  0.00    -0.314 N 
ATOM     21  C   UNL     1      12.664   6.538   2.681  0.00  0.00    +0.214 C 
ATOM     34  H   UNL     1      12.109   4.583   3.151  0.00  0.00    +0.149 HD
BRANCH   7  23
ATOM     23  C   UNL     1      13.661   4.468   1.722  0.00  0.00    +0.119 C 
BRANCH  23  24
ATOM     24  C   UNL     1      13.064   3.174   1.188  0.00  0.00    +0.102 C 
BRANCH  24   8
ATOM      8  N   UNL     1      12.979   3.218  -0.266  0.00  0.00    -0.307 NA
ATOM     30  C   UNL     1      11.717   3.827  -0.692  0.00  0.00    +0.104 C 
ATOM     31  C   UNL     1      14.113   3.955  -0.828  0.00  0.00    +0.104 C 
ENDBRANCH  24   8
ENDBRANCH  23  24
ENDBRANCH   7  23
ENDBRANCH  17  21
ENDBRANCH  12  17
TORSDOF 11
ENDMDL
MODEL 4
REMARK VINA RESULT:      -6.1     23.297     27.442
REMARK  Name = 38027389
REMARK  17 active torsions:
REMARK  status: ('A' for Active; 'I' for Inactive)
REMARK    1  A    between atoms: S_1  and  N_6
REMARK    2  A    between atoms: S_1  and  C_22
REMARK    3  A    between atoms: O_5  and  C_29
REMARK    4  A    between atoms: O_5  and  C_32
REMARK    5  A    between atoms: N_6  and  C_16
REMARK    6  A    between atoms: N_7  and  C_23
REMARK    7  A    between atoms: N_8  and  C_24
REMARK    8  A    between atoms: N_8  and  C_30
REMARK    9  A    between atoms: N_8  and  C_31
REMARK   10  A    between atoms: C_9  and  C_13
REMARK   11  A    between atoms: C_10  and  C_16
REMARK   12  A    between atoms: C_12  and  C_17
REMARK   13  A    between atoms: C_13  and  C_18
REMARK   14  A    between atoms: C_13  and  C_19
REMARK   15  A    between atoms: C_14  and  C_20
REMARK   16  A    between atoms: C_17  and  C_21
REMARK   17  A    between atoms: C_23  and  C_24
REMARK                            x       y       z     vdW  Elec       q    Type
REMARK                         _______ _______ _______ _____ _____    ______ ____
ROOT
ATOM      9  C   UNL     1       9.316   8.570   3.019  0.00  0.00    +0.000 C 
ATOM     10  C   UNL     1       8.267   8.041   4.031  0.00  0.00    +0.030 C 
ATOM     11  C   UNL     1       9.865   7.417   2.165  0.00  0.00    +0.012 C 
ATOM     12  C   UNL     1      10.522   6.318   3.021  0.00  0.00    +0.023 C 
ATOM     14  C   UNL     1       9.656   5.931   4.203  0.00  0.00    -0.073 C 
ATOM     15  C   UNL     1       8.645   6.708   4.631  0.00  0.00    -0.023 C 
ATOM     20  C   UNL     1       9.951   4.608   4.853  0.00  0.00    +0.039 C 
ENDROOT
BRANCH   9  13
ATOM     13  C   UNL     1       8.734   9.658   2.111  0.00  0.00    -0.013 C 
ATOM     18  C   UNL     1       9.721  10.011   1.004  0.00  0.00    +0.007 C 
ATOM     19  C   UNL     1       7.401   9.203   1.524  0.00  0.00    +0.007 C 
ENDBRANCH   9  13
BRANCH  10  16
ATOM     16  C   UNL     1       8.021   9.056   5.154  0.00  0.00    +0.113 C 
BRANCH  16   6
ATOM      6  N   UNL     1       9.070  10.026   5.198  0.00  0.00    -0.189 NA
ATOM     33  H   UNL     1       9.487  10.312   4.305  0.00  0.00    +0.148 HD
BRANCH   6   1
ATOM      1  S   UNL     1      10.042  10.234   6.608  0.00  0.00    +0.058 S 
ATOM      3  O   UNL     1       9.315  11.060   7.551  0.00  0.00    -0.153 OA
ATOM      4  O   UNL     1      11.402  10.576   6.235  0.00  0.00    -0.153 OA
BRANCH   1  22
ATOM     22  C   UNL     1      10.081   8.585   7.244  0.00  0.00    +0.105 A 
ATOM     25  C   UNL     1       8.987   8.085   7.951  0.00  0.00    +0.032 A 
ATOM     26  C   UNL     1      11.205   7.786   7.042  0.00  0.00    +0.032 A 
ATOM     27  C   UNL     1       9.018   6.785   8.455  0.00  0.00    +0.047 A 
ATOM     28  C   UNL     1      11.236   6.485   7.546  0.00  0.00    +0.047 A 
ATOM     29  C   UNL     1      10.143   5.985   8.252  0.00  0.00    +0.120 A 
BRANCH  29   5
ATOM      5  O   UNL     1      10.173   4.717   8.744  0.00  0.00    -0.495 OA
ATOM     32  C   UNL     1       9.448   4.470   9.949  0.00  0.00    +0.277 C 
ENDBRANCH  29   5
ENDBRANCH   1  22
ENDBRANCH   6   1
ENDBRANCH  16   6
ENDBRANCH  10  16
BRANCH  12  17
ATOM     17  C   UNL     1      11.922   6.740   3.481  0.00  0.00    +0.103 C 
BRANCH  17  21
ATOM      2  O   UNL     1      14.056   6.632   2.347  0.00  0.00    -0.276 OA
ATOM      7  N   UNL     1      12.669   4.767   2.357  0.00  0.00    -0.314 N 
ATOM     21  C   UNL     1      13.012   6.073   2.673  0.00  0.00    +0.214 C 
ATOM     34  H   UNL     1      11.780   4.390   2.674  0.00  0.00    +0.149 HD
BRANCH   7  23
ATOM     23  C   UNL     1      13.524   3.891   1.590  0.00  0.00    +0.119 C 
BRANCH  23  24
ATOM     24  C   UNL     1      12.804   3.355   0.360  0.00  0.00    +0.102 C 
BRANCH  24   8
ATOM      8  N   UNL     1      12.267   4.455  -0.431  0.00  0.00    -0.307 NA
ATOM     30  C   UNL     1      13.326   5.094  -1.215  0.00  0.00    +0.104 C 
ATOM     31  C   UNL     1      11.199   3.982  -1.314  0.00  0.00    +0.104 C 
ENDBRANCH  24   8
ENDBRANCH  23  24
ENDBRANCH   7  23
ENDBRANCH  17  21
ENDBRANCH  12  17
TORSDOF 11
ENDMDL
MODEL 5
REMARK VINA RESULT:      -6.0      2.408      5.782
REMARK  Name = 38027389
REMARK  17 active torsions:
REMARK  status: ('A' for Active; 'I' for Inactive)
REMARK    1  A    between atoms: S_1  and  N_6
REMARK    2  A    between atoms: S_1  and  C_22
REMARK    3  A    between atoms: O_5  and  C_29
REMARK    4  A    between atoms: O_5  and  C_32
REMARK    5  A    between atoms: N_6  and  C_16
REMARK    6  A    between atoms: N_7  and  C_23
REMARK    7  A    between atoms: N_8  and  C_24
REMARK    8  A    between atoms: N_8  and  C_30
REMARK    9  A    between atoms: N_8  and  C_31
REMARK   10  A    between atoms: C_9  and  C_13
REMARK   11  A    between atoms: C_10  and  C_16
REMARK   12  A    between atoms: C_12  and  C_17
REMARK   13  A    between atoms: C_13  and  C_18
REMARK   14  A    between atoms: C_13  and  C_19
REMARK   15  A    between atoms: C_14  and  C_20
REMARK   16  A    between atoms: C_17  and  C_21
REMARK   17  A    between atoms: C_23  and  C_24
REMARK                            x       y       z     vdW  Elec       q    Type
REMARK                         _______ _______ _______ _____ _____    ______ ____
ROOT
ATOM      9  C   UNL     1      -4.200 -11.675  12.098  0.00  0.00    +0.000 C 
ATOM     10  C   UNL     1      -3.045 -11.010  11.307  0.00  0.00    +0.030 C 
ATOM     11  C   UNL     1      -5.525 -11.531  11.334  0.00  0.00    +0.012 C 
ATOM     12  C   UNL     1      -5.894 -10.057  11.080  0.00  0.00    +0.023 C 
ATOM     14  C   UNL     1      -4.716  -9.266  10.547  0.00  0.00    -0.073 C 
ATOM     15  C   UNL     1      -3.452  -9.715  10.646  0.00  0.00    -0.023 C 
ATOM     20  C   UNL     1      -5.030  -7.968   9.856  0.00  0.00    +0.039 C 
ENDROOT
BRANCH   9  13
ATOM     13  C   UNL     1      -3.920 -13.156  12.376  0.00  0.00    -0.013 C 
ATOM     18  C   UNL     1      -4.783 -13.652  13.532  0.00  0.00    +0.007 C 
ATOM     19  C   UNL     1      -4.166 -13.989  11.121  0.00  0.00    +0.007 C 
ENDBRANCH   9  13
BRANCH  10  16
ATOM     16  C   UNL     1      -1.828 -10.764  12.207  0.00  0.00    +0.113 C 
BRANCH  16   6
ATOM      6  N   UNL     1      -2.231 -10.220  13.466  0.00  0.00    -0.189 NA
ATOM     33  H   UNL     1      -2.421  -9.212  13.506  0.00  0.00    +0.148 HD
BRANCH   6   1
ATOM      1  S   UNL     1      -1.808 -10.988  14.953  0.00  0.00    +0.058 S 
ATOM      3  O   UNL     1      -0.804 -10.181  15.617  0.00  0.00    -0.153 OA
ATOM      4  O   UNL     1      -1.584 -12.405  14.741  0.00  0.00    -0.153 OA
BRANCH   1  22
ATOM     22  C   UNL     1      -3.319 -10.833  15.859  0.00  0.00    +0.105 A 
ATOM     25  C   UNL     1      -3.373 -11.227  17.196  0.00  0.00    +0.032 A 
ATOM     26  C   UNL     1      -4.456 -10.320  15.236  0.00  0.00    +0.032 A 
ATOM     27  C   UNL     1      -4.565 -11.108  17.910  0.00  0.00    +0.047 A 
ATOM     28  C   UNL     1      -5.649 -10.201  15.950  0.00  0.00    +0.047 A 
ATOM     29  C   UNL     1      -5.703 -10.594  17.287  0.00  0.00    +0.120 A 
BRANCH  29   5
ATOM      5  O   UNL     1      -6.866 -10.478  17.983  0.00  0.00    -0.495 OA
ATOM     32  C   UNL     1      -7.777  -9.463  17.562  0.00  0.00    +0.277 C 
ENDBRANCH  29   5
ENDBRANCH   1  22
ENDBRANCH   6   1
ENDBRANCH  16   6
ENDBRANCH  10  16
BRANCH  12  17
ATOM     17  C   UNL     1      -6.466  -9.405  12.343  0.00  0.00    +0.103 C 
BRANCH  17  21
ATOM      2  O   UNL     1      -8.685  -9.890  11.510  0.00  0.00    -0.276 OA
ATOM      7  N   UNL     1      -8.387  -9.420  13.766  0.00  0.00    -0.314 N 
ATOM     21  C   UNL     1      -7.960  -9.604  12.459  0.00  0.00    +0.214 C 
ATOM     34  H   UNL     1      -7.710  -9.187  14.487  0.00  0.00    +0.149 HD
BRANCH   7  23
ATOM     23  C   UNL     1      -9.768  -9.547  14.170  0.00  0.00    +0.119 C 
BRANCH  23  24
ATOM     24  C   UNL     1     -10.223  -8.335  14.971  0.00  0.00    +0.102 C 
BRANCH  24   8
ATOM      8  N   UNL     1     -11.264  -8.715  15.917  0.00  0.00    -0.307 NA
ATOM     30  C   UNL     1     -11.186 -10.144  16.225  0.00  0.00    +0.104 C 
ATOM     31  C   UNL     1     -11.159  -7.925  17.145  0.00  0.00    +0.104 C 
ENDBRANCH  24   8
ENDBRANCH  23  24
ENDBRANCH   7  23
ENDBRANCH  17  21
ENDBRANCH  12  17
TORSDOF 11
ENDMDL
MODEL 6
REMARK VINA RESULT:      -6.0      3.360      6.534
REMARK  Name = 38027389
REMARK  17 active torsions:
REMARK  status: ('A' for Active; 'I' for Inactive)
REMARK    1  A    between atoms: S_1  and  N_6
REMARK    2  A    between atoms: S_1  and  C_22
REMARK    3  A    between atoms: O_5  and  C_29
REMARK    4  A    between atoms: O_5  and  C_32
REMARK    5  A    between atoms: N_6  and  C_16
REMARK    6  A    between atoms: N_7  and  C_23
REMARK    7  A    between atoms: N_8  and  C_24
REMARK    8  A    between atoms: N_8  and  C_30
REMARK    9  A    between atoms: N_8  and  C_31
REMARK   10  A    between atoms: C_9  and  C_13
REMARK   11  A    between atoms: C_10  and  C_16
REMARK   12  A    between atoms: C_12  and  C_17
REMARK   13  A    between atoms: C_13  and  C_18
REMARK   14  A    between atoms: C_13  and  C_19
REMARK   15  A    between atoms: C_14  and  C_20
REMARK   16  A    between atoms: C_17  and  C_21
REMARK   17  A    between atoms: C_23  and  C_24
REMARK                            x       y       z     vdW  Elec       q    Type
REMARK                         _______ _______ _______ _____ _____    ______ ____
ROOT
ATOM      9  C   UNL     1      -4.095 -11.829  11.769  0.00  0.00    +0.000 C 
ATOM     10  C   UNL     1      -2.932 -11.030  11.128  0.00  0.00    +0.030 C 
ATOM     11  C   UNL     1      -5.365 -11.706  10.914  0.00  0.00    +0.012 C 
ATOM     12  C   UNL     1      -5.814 -10.242  10.743  0.00  0.00    +0.023 C 
ATOM     14  C   UNL     1      -4.656  -9.339  10.369  0.00  0.00    -0.073 C 
ATOM     15  C   UNL     1      -3.375  -9.714  10.536  0.00  0.00    -0.023 C 
ATOM     20  C   UNL     1      -5.005  -8.011   9.755  0.00  0.00    +0.039 C 
ENDROOT
BRANCH   9  13
ATOM     13  C   UNL     1      -3.735 -13.307  11.956  0.00  0.00    -0.013 C 
ATOM     18  C   UNL     1      -4.612 -13.934  13.035  0.00  0.00    +0.007 C 
ATOM     19  C   UNL     1      -3.877 -14.059  10.636  0.00  0.00    +0.007 C 
ENDBRANCH   9  13
BRANCH  10  16
ATOM     16  C   UNL     1      -1.806 -10.783  12.139  0.00  0.00    +0.113 C 
BRANCH  16   6
ATOM      6  N   UNL     1      -2.332 -10.272  13.366  0.00  0.00    -0.189 NA
ATOM     33  H   UNL     1      -2.580  -9.276  13.396  0.00  0.00    +0.148 HD
BRANCH   6   1
ATOM      1  S   UNL     1      -1.979 -11.026  14.878  0.00  0.00    +0.058 S 
ATOM      3  O   UNL     1      -0.970 -10.240  15.560  0.00  0.00    -0.153 OA
ATOM      4  O   UNL     1      -1.793 -12.453  14.696  0.00  0.00    -0.153 OA
BRANCH   1  22
ATOM     22  C   UNL     1      -3.511 -10.809  15.734  0.00  0.00    +0.105 A 
ATOM     25  C   UNL     1      -3.581 -11.042  17.108  0.00  0.00    +0.032 A 
ATOM     26  C   UNL     1      -4.649 -10.408  15.036  0.00  0.00    +0.032 A 
ATOM     27  C   UNL     1      -4.789 -10.874  17.783  0.00  0.00    +0.047 A 
ATOM     28  C   UNL     1      -5.858 -10.240  15.711  0.00  0.00    +0.047 A 
ATOM     29  C   UNL     1      -5.928 -10.473  17.084  0.00  0.00    +0.120 A 
BRANCH  29   5
ATOM      5  O   UNL     1      -7.107 -10.308  17.743  0.00  0.00    -0.495 OA
ATOM     32  C   UNL     1      -7.973  -9.273  17.277  0.00  0.00    +0.277 C 
ENDBRANCH  29   5
ENDBRANCH   1  22
ENDBRANCH   6   1
ENDBRANCH  16   6
ENDBRANCH  10  16
BRANCH  12  17
ATOM     17  C   UNL     1      -6.524  -9.733  12.002  0.00  0.00    +0.103 C 
BRANCH  17  21
ATOM      2  O   UNL     1      -8.844  -9.888  12.667  0.00  0.00    -0.276 OA
ATOM      7  N   UNL     1      -8.314  -9.149  10.528  0.00  0.00    -0.314 N 
ATOM     21  C   UNL     1      -8.017  -9.610  11.803  0.00  0.00    +0.214 C 
ATOM     34  H   UNL     1      -7.559  -8.943   9.881  0.00  0.00    +0.149 HD
BRANCH   7  23
ATOM     23  C   UNL     1      -9.664  -8.937  10.061  0.00  0.00    +0.119 C 
BRANCH  23  24
ATOM     24  C   UNL     1      -9.683  -8.099   8.791  0.00  0.00    +0.102 C 
BRANCH  24   8
ATOM      8  N   UNL     1      -8.324  -7.846   8.330  0.00  0.00    -0.307 NA
ATOM     30  C   UNL     1      -8.040  -8.608   7.112  0.00  0.00    +0.104 C 
ATOM     31  C   UNL     1      -8.117  -6.416   8.094  0.00  0.00    +0.104 C 
ENDBRANCH  24   8
ENDBRANCH  23  24
ENDBRANCH   7  23
ENDBRANCH  17  21
ENDBRANCH  12  17
TORSDOF 11
ENDMDL
MODEL 7
REMARK VINA RESULT:      -5.9     23.338     27.744
REMARK  Name = 38027389
REMARK  17 active torsions:
REMARK  status: ('A' for Active; 'I' for Inactive)
REMARK    1  A    between atoms: S_1  and  N_6
REMARK    2  A    between atoms: S_1  and  C_22
REMARK    3  A    between atoms: O_5  and  C_29
REMARK    4  A    between atoms: O_5  and  C_32
REMARK    5  A    between atoms: N_6  and  C_16
REMARK    6  A    between atoms: N_7  and  C_23
REMARK    7  A    between atoms: N_8  and  C_24
REMARK    8  A    between atoms: N_8  and  C_30
REMARK    9  A    between atoms: N_8  and  C_31
REMARK   10  A    between atoms: C_9  and  C_13
REMARK   11  A    between atoms: C_10  and  C_16
REMARK   12  A    between atoms: C_12  and  C_17
REMARK   13  A    between atoms: C_13  and  C_18
REMARK   14  A    between atoms: C_13  and  C_19
REMARK   15  A    between atoms: C_14  and  C_20
REMARK   16  A    between atoms: C_17  and  C_21
REMARK   17  A    between atoms: C_23  and  C_24
REMARK                            x       y       z     vdW  Elec       q    Type
REMARK                         _______ _______ _______ _____ _____    ______ ____
ROOT
ATOM      9  C   UNL     1      12.154   8.100   5.221  0.00  0.00    +0.000 C 
ATOM     10  C   UNL     1      12.063   9.417   4.408  0.00  0.00    +0.030 C 
ATOM     11  C   UNL     1      13.042   7.081   4.493  0.00  0.00    +0.012 C 
ATOM     12  C   UNL     1      12.515   6.749   3.084  0.00  0.00    +0.023 C 
ATOM     14  C   UNL     1      12.148   8.000   2.311  0.00  0.00    -0.073 C 
ATOM     15  C   UNL     1      11.963   9.186   2.919  0.00  0.00    -0.023 C 
ATOM     20  C   UNL     1      12.042   7.866   0.817  0.00  0.00    +0.039 C 
ENDROOT
BRANCH   9  13
ATOM     13  C   UNL     1      12.692   8.341   6.635  0.00  0.00    -0.013 C 
ATOM     18  C   UNL     1      13.018   7.014   7.312  0.00  0.00    +0.007 C 
ATOM     19  C   UNL     1      13.921   9.244   6.590  0.00  0.00    +0.007 C 
ENDBRANCH   9  13
BRANCH  10  16
ATOM     16  C   UNL     1      10.880  10.274   4.873  0.00  0.00    +0.113 C 
BRANCH  16   6
ATOM      6  N   UNL     1       9.676   9.876   4.214  0.00  0.00    -0.189 NA
ATOM     33  H   UNL     1       9.569  10.136   3.227  0.00  0.00    +0.148 HD
BRANCH   6   1
ATOM      1  S   UNL     1       8.223   9.582   5.098  0.00  0.00    +0.058 S 
ATOM      3  O   UNL     1       7.192   9.174   4.165  0.00  0.00    -0.153 OA
ATOM      4  O   UNL     1       7.977  10.663   6.033  0.00  0.00    -0.153 OA
BRANCH   1  22
ATOM     22  C   UNL     1       8.685   8.168   6.054  0.00  0.00    +0.105 A 
ATOM     25  C   UNL     1       9.037   8.317   7.395  0.00  0.00    +0.032 A 
ATOM     26  C   UNL     1       8.699   6.903   5.466  0.00  0.00    +0.032 A 
ATOM     27  C   UNL     1       9.403   7.203   8.149  0.00  0.00    +0.047 A 
ATOM     28  C   UNL     1       9.066   5.788   6.220  0.00  0.00    +0.047 A 
ATOM     29  C   UNL     1       9.418   5.937   7.561  0.00  0.00    +0.120 A 
BRANCH  29   5
ATOM      5  O   UNL     1       9.775   4.850   8.296  0.00  0.00    -0.495 OA
ATOM     32  C   UNL     1       9.167   4.706   9.580  0.00  0.00    +0.277 C 
ENDBRANCH  29   5
ENDBRANCH   1  22
ENDBRANCH   6   1
ENDBRANCH  16   6
ENDBRANCH  10  16
BRANCH  12  17
ATOM     17  C   UNL     1      11.331   5.779   3.152  0.00  0.00    +0.103 C 
BRANCH  17  21
ATOM      2  O   UNL     1      10.558   4.042   1.656  0.00  0.00    -0.276 OA
ATOM      7  N   UNL     1      12.836   4.279   2.055  0.00  0.00    -0.314 N 
ATOM     21  C   UNL     1      11.497   4.611   2.207  0.00  0.00    +0.214 C 
ATOM     34  H   UNL     1      13.544   4.811   2.551  0.00  0.00    +0.149 HD
BRANCH   7  23
ATOM     23  C   UNL     1      13.289   3.200   1.209  0.00  0.00    +0.119 C 
BRANCH  23  24
ATOM     24  C   UNL     1      14.237   3.704   0.131  0.00  0.00    +0.102 C 
BRANCH  24   8
ATOM      8  N   UNL     1      13.561   3.743  -1.159  0.00  0.00    -0.307 NA
ATOM     30  C   UNL     1      12.418   2.828  -1.172  0.00  0.00    +0.104 C 
ATOM     31  C   UNL     1      13.124   5.106  -1.472  0.00  0.00    +0.104 C 
ENDBRANCH  24   8
ENDBRANCH  23  24
ENDBRANCH   7  23
ENDBRANCH  17  21
ENDBRANCH  12  17
TORSDOF 11
ENDMDL
MODEL 8
REMARK VINA RESULT:      -5.8     24.849     29.299
REMARK  Name = 38027389
REMARK  17 active torsions:
REMARK  status: ('A' for Active; 'I' for Inactive)
REMARK    1  A    between atoms: S_1  and  N_6
REMARK    2  A    between atoms: S_1  and  C_22
REMARK    3  A    between atoms: O_5  and  C_29
REMARK    4  A    between atoms: O_5  and  C_32
REMARK    5  A    between atoms: N_6  and  C_16
REMARK    6  A    between atoms: N_7  and  C_23
REMARK    7  A    between atoms: N_8  and  C_24
REMARK    8  A    between atoms: N_8  and  C_30
REMARK    9  A    between atoms: N_8  and  C_31
REMARK   10  A    between atoms: C_9  and  C_13
REMARK   11  A    between atoms: C_10  and  C_16
REMARK   12  A    between atoms: C_12  and  C_17
REMARK   13  A    between atoms: C_13  and  C_18
REMARK   14  A    between atoms: C_13  and  C_19
REMARK   15  A    between atoms: C_14  and  C_20
REMARK   16  A    between atoms: C_17  and  C_21
REMARK   17  A    between atoms: C_23  and  C_24
REMARK                            x       y       z     vdW  Elec       q    Type
REMARK                         _______ _______ _______ _____ _____    ______ ____
ROOT
ATOM      9  C   UNL     1      10.987   6.774   3.529  0.00  0.00    +0.000 C 
ATOM     10  C   UNL     1      10.346   5.363   3.526  0.00  0.00    +0.030 C 
ATOM     11  C   UNL     1      11.729   7.029   2.208  0.00  0.00    +0.012 C 
ATOM     12  C   UNL     1      12.837   5.990   1.952  0.00  0.00    +0.023 C 
ATOM     14  C   UNL     1      12.349   4.575   2.192  0.00  0.00    -0.073 C 
ATOM     15  C   UNL     1      11.226   4.316   2.887  0.00  0.00    -0.023 C 
ATOM     20  C   UNL     1      13.157   3.467   1.576  0.00  0.00    +0.039 C 
ENDROOT
BRANCH   9  13
ATOM     13  C   UNL     1       9.944   7.873   3.759  0.00  0.00    -0.013 C 
ATOM     18  C   UNL     1      10.585   9.251   3.624  0.00  0.00    +0.007 C 
ATOM     19  C   UNL     1       8.783   7.717   2.781  0.00  0.00    +0.007 C 
ENDBRANCH   9  13
BRANCH  10  16
ATOM     16  C   UNL     1       9.975   4.921   4.947  0.00  0.00    +0.113 C 
BRANCH  16   6
ATOM      6  N   UNL     1      11.025   5.234   5.864  0.00  0.00    -0.189 NA
ATOM     33  H   UNL     1      11.813   4.577   5.924  0.00  0.00    +0.148 HD
BRANCH   6   1
ATOM      1  S   UNL     1      10.745   6.231   7.245  0.00  0.00    +0.058 S 
ATOM      3  O   UNL     1      11.138   5.496   8.431  0.00  0.00    -0.153 OA
ATOM      4  O   UNL     1       9.431   6.842   7.165  0.00  0.00    -0.153 OA
BRANCH   1  22
ATOM     22  C   UNL     1      11.929   7.518   6.983  0.00  0.00    +0.105 A 
ATOM     25  C   UNL     1      13.237   7.198   6.620  0.00  0.00    +0.032 A 
ATOM     26  C   UNL     1      11.556   8.852   7.142  0.00  0.00    +0.032 A 
ATOM     27  C   UNL     1      14.172   8.213   6.417  0.00  0.00    +0.047 A 
ATOM     28  C   UNL     1      12.491   9.867   6.939  0.00  0.00    +0.047 A 
ATOM     29  C   UNL     1      13.799   9.548   6.576  0.00  0.00    +0.120 A 
BRANCH  29   5
ATOM      5  O   UNL     1      14.711  10.537   6.377  0.00  0.00    -0.495 OA
ATOM     32  C   UNL     1      16.077  10.145   6.245  0.00  0.00    +0.277 C 
ENDBRANCH  29   5
ENDBRANCH   1  22
ENDBRANCH   6   1
ENDBRANCH  16   6
ENDBRANCH  10  16
BRANCH  12  17
ATOM     17  C   UNL     1      14.081   6.291   2.793  0.00  0.00    +0.103 C 
BRANCH  17  21
ATOM      2  O   UNL     1      15.273   6.755   0.740  0.00  0.00    -0.276 OA
ATOM      7  N   UNL     1      16.133   7.518   2.759  0.00  0.00    -0.314 N 
ATOM     21  C   UNL     1      15.206   6.865   1.961  0.00  0.00    +0.214 C 
ATOM     34  H   UNL     1      15.990   7.558   3.764  0.00  0.00    +0.149 HD
BRANCH   7  23
ATOM     23  C   UNL     1      17.314   8.161   2.232  0.00  0.00    +0.119 C 
BRANCH  23  24
ATOM     24  C   UNL     1      18.089   8.877   3.328  0.00  0.00    +0.102 C 
BRANCH  24   8
ATOM      8  N   UNL     1      18.959   7.940   4.028  0.00  0.00    -0.307 NA
ATOM     30  C   UNL     1      20.173   7.683   3.251  0.00  0.00    +0.104 C 
ATOM     31  C   UNL     1      19.304   8.450   5.356  0.00  0.00    +0.104 C 
ENDBRANCH  24   8
ENDBRANCH  23  24
ENDBRANCH   7  23
ENDBRANCH  17  21
ENDBRANCH  12  17
TORSDOF 11
ENDMDL
MODEL 9
REMARK VINA RESULT:      -5.7     24.873     29.010
REMARK  Name = 38027389
REMARK  17 active torsions:
REMARK  status: ('A' for Active; 'I' for Inactive)
REMARK    1  A    between atoms: S_1  and  N_6
REMARK    2  A    between atoms: S_1  and  C_22
REMARK    3  A    between atoms: O_5  and  C_29
REMARK    4  A    between atoms: O_5  and  C_32
REMARK    5  A    between atoms: N_6  and  C_16
REMARK    6  A    between atoms: N_7  and  C_23
REMARK    7  A    between atoms: N_8  and  C_24
REMARK    8  A    between atoms: N_8  and  C_30
REMARK    9  A    between atoms: N_8  and  C_31
REMARK   10  A    between atoms: C_9  and  C_13
REMARK   11  A    between atoms: C_10  and  C_16
REMARK   12  A    between atoms: C_12  and  C_17
REMARK   13  A    between atoms: C_13  and  C_18
REMARK   14  A    between atoms: C_13  and  C_19
REMARK   15  A    between atoms: C_14  and  C_20
REMARK   16  A    between atoms: C_17  and  C_21
REMARK   17  A    between atoms: C_23  and  C_24
REMARK                            x       y       z     vdW  Elec       q    Type
REMARK                         _______ _______ _______ _____ _____    ______ ____
ROOT
ATOM      9  C   UNL     1      10.922   6.783   3.524  0.00  0.00    +0.000 C 
ATOM     10  C   UNL     1      10.221   5.405   3.636  0.00  0.00    +0.030 C 
ATOM     11  C   UNL     1      11.587   6.936   2.148  0.00  0.00    +0.012 C 
ATOM     12  C   UNL     1      12.631   5.834   1.880  0.00  0.00    +0.023 C 
ATOM     14  C   UNL     1      12.098   4.458   2.224  0.00  0.00    -0.073 C 
ATOM     15  C   UNL     1      11.012   4.287   3.000  0.00  0.00    -0.023 C 
ATOM     20  C   UNL     1      12.816   3.284   1.620  0.00  0.00    +0.039 C 
ENDROOT
BRANCH   9  13
ATOM     13  C   UNL     1       9.944   7.939   3.759  0.00  0.00    -0.013 C 
ATOM     18  C   UNL     1      10.652   9.278   3.581  0.00  0.00    +0.007 C 
ATOM     19  C   UNL     1       8.751   7.827   2.815  0.00  0.00    +0.007 C 
ENDBRANCH   9  13
BRANCH  10  16
ATOM     16  C   UNL     1       9.923   5.053   5.098  0.00  0.00    +0.113 C 
BRANCH  16   6
ATOM      6  N   UNL     1      11.065   5.297   5.921  0.00  0.00    -0.189 NA
ATOM     33  H   UNL     1      11.792   4.571   5.949  0.00  0.00    +0.148 HD
BRANCH   6   1
ATOM      1  S   UNL     1      10.987   6.364   7.274  0.00  0.00    +0.058 S 
ATOM      3  O   UNL     1      11.294   5.610   8.474  0.00  0.00    -0.153 OA
ATOM      4  O   UNL     1       9.784   7.173   7.207  0.00  0.00    -0.153 OA
BRANCH   1  22
ATOM     22  C   UNL     1      12.351   7.439   6.942  0.00  0.00    +0.105 A 
ATOM     25  C   UNL     1      12.183   8.822   7.016  0.00  0.00    +0.032 A 
ATOM     26  C   UNL     1      13.593   6.904   6.604  0.00  0.00    +0.032 A 
ATOM     27  C   UNL     1      13.258   9.670   6.751  0.00  0.00    +0.047 A 
ATOM     28  C   UNL     1      14.669   7.753   6.339  0.00  0.00    +0.047 A 
ATOM     29  C   UNL     1      14.502   9.135   6.413  0.00  0.00    +0.120 A 
BRANCH  29   5
ATOM      5  O   UNL     1      15.550   9.962   6.155  0.00  0.00    -0.495 OA
ATOM     32  C   UNL     1      15.304  11.367   6.233  0.00  0.00    +0.277 C 
ENDBRANCH  29   5
ENDBRANCH   1  22
ENDBRANCH   6   1
ENDBRANCH  16   6
ENDBRANCH  10  16
BRANCH  12  17
ATOM     17  C   UNL     1      13.938   6.119   2.626  0.00  0.00    +0.103 C 
BRANCH  17  21
ATOM      2  O   UNL     1      15.513   7.694   1.681  0.00  0.00    -0.276 OA
ATOM      7  N   UNL     1      15.438   5.521   0.862  0.00  0.00    -0.314 N 
ATOM     21  C   UNL     1      15.042   6.560   1.691  0.00  0.00    +0.214 C 
ATOM     34  H   UNL     1      14.989   4.613   0.946  0.00  0.00    +0.149 HD
BRANCH   7  23
ATOM     23  C   UNL     1      16.476   5.657  -0.133  0.00  0.00    +0.119 C 
BRANCH  23  24
ATOM     24  C   UNL     1      16.524   4.443  -1.049  0.00  0.00    +0.102 C 
BRANCH  24   8
ATOM      8  N   UNL     1      15.885   4.746  -2.324  0.00  0.00    -0.307 NA
ATOM     30  C   UNL     1      14.480   4.336  -2.308  0.00  0.00    +0.104 C 
ATOM     31  C   UNL     1      15.993   6.174  -2.629  0.00  0.00    +0.104 C 
ENDBRANCH  24   8
ENDBRANCH  23  24
ENDBRANCH   7  23
ENDBRANCH  17  21
ENDBRANCH  12  17
TORSDOF 11
ENDMDL
MODEL 10
REMARK VINA RESULT:      -5.6     24.714     28.096
REMARK  Name = 38027389
REMARK  17 active torsions:
REMARK  status: ('A' for Active; 'I' for Inactive)
REMARK    1  A    between atoms: S_1  and  N_6
REMARK    2  A    between atoms: S_1  and  C_22
REMARK    3  A    between atoms: O_5  and  C_29
REMARK    4  A    between atoms: O_5  and  C_32
REMARK    5  A    between atoms: N_6  and  C_16
REMARK    6  A    between atoms: N_7  and  C_23
REMARK    7  A    between atoms: N_8  and  C_24
REMARK    8  A    between atoms: N_8  and  C_30
REMARK    9  A    between atoms: N_8  and  C_31
REMARK   10  A    between atoms: C_9  and  C_13
REMARK   11  A    between atoms: C_10  and  C_16
REMARK   12  A    between atoms: C_12  and  C_17
REMARK   13  A    between atoms: C_13  and  C_18
REMARK   14  A    between atoms: C_13  and  C_19
REMARK   15  A    between atoms: C_14  and  C_20
REMARK   16  A    between atoms: C_17  and  C_21
REMARK   17  A    between atoms: C_23  and  C_24
REMARK                            x       y       z     vdW  Elec       q    Type
REMARK                         _______ _______ _______ _____ _____    ______ ____
ROOT
ATOM      9  C   UNL     1       9.107   8.136   3.924  0.00  0.00    +0.000 C 
ATOM     10  C   UNL     1       8.321   7.860   5.231  0.00  0.00    +0.030 C 
ATOM     11  C   UNL     1       9.231   6.852   3.091  0.00  0.00    +0.012 C 
ATOM     12  C   UNL     1       9.944   5.724   3.860  0.00  0.00    +0.023 C 
ATOM     14  C   UNL     1       9.398   5.569   5.265  0.00  0.00    -0.073 C 
ATOM     15  C   UNL     1       8.663   6.529   5.855  0.00  0.00    -0.023 C 
ATOM     20  C   UNL     1       9.677   4.264   5.959  0.00  0.00    +0.039 C 
ENDROOT
BRANCH   9  13
ATOM     13  C   UNL     1       8.450   9.238   3.087  0.00  0.00    -0.013 C 
ATOM     18  C   UNL     1       8.733   9.019   1.604  0.00  0.00    +0.007 C 
ATOM     19  C   UNL     1       6.947   9.282   3.351  0.00  0.00    +0.007 C 
ENDBRANCH   9  13
BRANCH  10  16
ATOM     16  C   UNL     1       8.541   8.978   6.256  0.00  0.00    +0.113 C 
BRANCH  16   6
ATOM      6  N   UNL     1       9.766   8.781   6.965  0.00  0.00    -0.189 NA
ATOM     33  H   UNL     1       9.756   8.125   7.754  0.00  0.00    +0.148 HD
BRANCH   6   1
ATOM      1  S   UNL     1      10.999   9.989   6.979  0.00  0.00    +0.058 S 
ATOM      3  O   UNL     1      11.393  10.229   8.353  0.00  0.00    -0.153 OA
ATOM      4  O   UNL     1      10.626  11.098   6.122  0.00  0.00    -0.153 OA
BRANCH   1  22
ATOM     22  C   UNL     1      12.322   9.137   6.174  0.00  0.00    +0.105 A 
ATOM     25  C   UNL     1      12.645   9.441   4.851  0.00  0.00    +0.032 A 
ATOM     26  C   UNL     1      13.041   8.158   6.859  0.00  0.00    +0.032 A 
ATOM     27  C   UNL     1      13.687   8.767   4.215  0.00  0.00    +0.047 A 
ATOM     28  C   UNL     1      14.083   7.483   6.223  0.00  0.00    +0.047 A 
ATOM     29  C   UNL     1      14.406   7.788   4.901  0.00  0.00    +0.120 A 
BRANCH  29   5
ATOM      5  O   UNL     1      15.423   7.130   4.281  0.00  0.00    -0.495 OA
ATOM     32  C   UNL     1      16.634   7.857   4.071  0.00  0.00    +0.277 C 
ENDBRANCH  29   5
ENDBRANCH   1  22
ENDBRANCH   6   1
ENDBRANCH  16   6
ENDBRANCH  10  16
BRANCH  12  17
ATOM     17  C   UNL     1      11.460   5.943   3.881  0.00  0.00    +0.103 C 
BRANCH  17  21
ATOM      2  O   UNL     1      12.491   6.328   1.727  0.00  0.00    -0.276 OA
ATOM      7  N   UNL     1      12.220   4.150   2.493  0.00  0.00    -0.314 N 
ATOM     21  C   UNL     1      12.113   5.531   2.581  0.00  0.00    +0.214 C 
ATOM     34  H   UNL     1      11.879   3.572   3.255  0.00  0.00    +0.149 HD
BRANCH   7  23
ATOM     23  C   UNL     1      12.804   3.476   1.358  0.00  0.00    +0.119 C 
BRANCH  23  24
ATOM     24  C   UNL     1      14.323   3.573   1.380  0.00  0.00    +0.102 C 
BRANCH  24   8
ATOM      8  N   UNL     1      14.802   4.285   0.202  0.00  0.00    -0.307 NA
ATOM     30  C   UNL     1      16.201   3.952  -0.070  0.00  0.00    +0.104 C 
ATOM     31  C   UNL     1      13.970   3.973  -0.963  0.00  0.00    +0.104 C 
ENDBRANCH  24   8
ENDBRANCH  23  24
ENDBRANCH   7  23
ENDBRANCH  17  21
ENDBRANCH  12  17
TORSDOF 11
ENDMDL
