REMARK  Name = 38030984
REMARK  11 active torsions:
REMARK  status: ('A' for Active; 'I' for Inactive)
REMARK    1  A    between atoms: O_2  and  C_24
REMARK    2  A    between atoms: N_4  and  C_11
REMARK    3  A    between atoms: C_7  and  C_12
REMARK    4  A    between atoms: C_8  and  C_11
REMARK    5  A    between atoms: C_10  and  C_20
REMARK    6  A    between atoms: C_12  and  C_21
REMARK    7  A    between atoms: C_12  and  C_22
REMARK    8  A    between atoms: C_14  and  C_23
REMARK    9  A    between atoms: C_17  and  C_24
REMARK   10  A    between atoms: C_20  and  C_25
REMARK   11  A    between atoms: C_26  and  C_27
REMARK                            x       y       z     vdW  Elec       q    Type
REMARK                         _______ _______ _______ _____ _____    ______ ____
ROOT
ATOM      7  C   UNL     1      -1.499  -0.777  -0.798  0.00  0.00    +0.000 C 
ATOM      8  C   UNL     1      -2.486  -1.847  -0.277  0.00  0.00    +0.029 C 
ATOM      9  C   UNL     1      -0.324  -0.609   0.176  0.00  0.00    +0.012 C 
ATOM     10  C   UNL     1       0.439  -1.924   0.447  0.00  0.00    +0.024 C 
ATOM     13  C   UNL     1      -1.786  -3.073   0.252  0.00  0.00    -0.023 C 
ATOM     14  C   UNL     1      -0.479  -3.131   0.569  0.00  0.00    -0.073 C 
ATOM     23  C   UNL     1       0.138  -4.431   1.007  0.00  0.00    +0.039 C 
ENDROOT
BRANCH   7  12
ATOM     12  C   UNL     1      -1.004  -1.113  -2.211  0.00  0.00    -0.013 C 
ATOM     21  C   UNL     1      -2.095  -0.829  -3.238  0.00  0.00    +0.007 C 
ATOM     22  C   UNL     1       0.261  -0.324  -2.533  0.00  0.00    +0.007 C 
ENDBRANCH   7  12
BRANCH   8  11
ATOM     11  C   UNL     1      -3.408  -1.285   0.811  0.00  0.00    +0.092 C 
BRANCH  11   4
ATOM      4  N   UNL     1      -4.124  -0.107   0.323  0.00  0.00    -0.302 NA
ATOM     15  C   UNL     1      -4.632   0.689   1.448  0.00  0.00    +0.085 C 
ATOM     16  C   UNL     1      -5.213  -0.504  -0.581  0.00  0.00    +0.085 C 
ATOM     17  C   UNL     1      -6.471   1.617  -0.019  0.00  0.00    +0.017 C 
ATOM     18  C   UNL     1      -5.338   1.954   0.956  0.00  0.00    +0.021 C 
ATOM     19  C   UNL     1      -5.937   0.721  -1.143  0.00  0.00    +0.021 C 
BRANCH  17  24
ATOM     24  C   UNL     1      -7.105   2.885  -0.584  0.00  0.00    +0.159 C 
BRANCH  24   2
ATOM      2  O   UNL     1      -7.637   3.638   0.490  0.00  0.00    -0.395 OA
ATOM     33  H   UNL     1      -8.037   4.439   0.109  0.00  0.00    +0.209 HD
ENDBRANCH  24   2
ENDBRANCH  17  24
ENDBRANCH  11   4
ENDBRANCH   8  11
BRANCH  10  20
ATOM     20  C   UNL     1       1.333  -1.727   1.677  0.00  0.00    +0.105 C 
BRANCH  20  25
ATOM      3  O   UNL     1       3.308  -0.673   0.705  0.00  0.00    -0.420 OA
ATOM      5  N   UNL     1       2.129   0.663   2.058  0.00  0.00    -0.112 NA
ATOM      6  N   UNL     1       3.209   1.382   1.583  0.00  0.00    -0.107 NA
ATOM     25  C   UNL     1       2.227  -0.530   1.520  0.00  0.00    +0.218 A 
ATOM     26  C   UNL     1       3.869   0.563   0.798  0.00  0.00    +0.251 A 
BRANCH  26  27
ATOM      1  F   UNL     1       5.233   3.012   0.802  0.00  0.00    -0.205 F 
ATOM     27  C   UNL     1       5.068   0.766   0.036  0.00  0.00    +0.074 A 
ATOM     28  C   UNL     1       5.716   2.001   0.065  0.00  0.00    +0.136 A 
ATOM     29  C   UNL     1       5.584  -0.275  -0.735  0.00  0.00    +0.016 A 
ATOM     30  C   UNL     1       6.881   2.194  -0.678  0.00  0.00    +0.039 A 
ATOM     31  C   UNL     1       6.748  -0.082  -1.478  0.00  0.00    +0.001 A 
ATOM     32  C   UNL     1       7.397   1.153  -1.450  0.00  0.00    +0.003 A 
ENDBRANCH  26  27
ENDBRANCH  20  25
ENDBRANCH  10  20
TORSDOF 8
