MODEL 1
REMARK VINA RESULT:      -6.4      0.000      0.000
REMARK  Name = 51137406
REMARK  6 active torsions:
REMARK  status: ('A' for Active; 'I' for Inactive)
REMARK    1  A    between atoms: N_2  and  C_9
REMARK    2  A    between atoms: C_5  and  C_10
REMARK    3  A    between atoms: C_9  and  C_11
REMARK    4  A    between atoms: C_9  and  C_12
REMARK    5  A    between atoms: C_13  and  C_14
REMARK    6  A    between atoms: C_14  and  C_15
REMARK                            x       y       z     vdW  Elec       q    Type
REMARK                         _______ _______ _______ _____ _____    ______ ____
ROOT
ATOM      1  O   UNL     1      12.899   8.705  19.686  0.00  0.00    -0.424 OA
ATOM      3  N   UNL     1      11.464   7.088  20.263  0.00  0.00    -0.112 NA
ATOM      4  N   UNL     1      12.482   6.514  19.525  0.00  0.00    -0.112 NA
ATOM     10  C   UNL     1      11.748   8.368  20.332  0.00  0.00    +0.222 A 
ATOM     13  C   UNL     1      13.296   7.494  19.209  0.00  0.00    +0.222 A 
ENDROOT
BRANCH  10   5
ATOM      2  N   UNL     1      11.285  11.386  22.357  0.00  0.00    -0.299 NA
ATOM      5  C   UNL     1      10.995   9.487  21.011  0.00  0.00    +0.092 C 
ATOM      6  C   UNL     1      11.822  10.773  21.139  0.00  0.00    +0.097 C 
ATOM      7  C   UNL     1      10.532   9.177  22.446  0.00  0.00    +0.029 C 
ATOM      8  C   UNL     1      11.141  10.280  23.303  0.00  0.00    +0.085 C 
BRANCH   2   9
ATOM      9  C   UNL     1      12.141  12.445  22.869  0.00  0.00    +0.050 C 
ATOM     11  C   UNL     1      13.500  11.880  23.271  0.00  0.00    +0.024 C 
ATOM     12  C   UNL     1      11.459  13.123  24.052  0.00  0.00    +0.024 C 
ENDBRANCH   2   9
ENDBRANCH  10   5
BRANCH  13  14
ATOM     14  C   UNL     1      14.543   7.462  18.436  0.00  0.00    +0.132 C 
BRANCH  14  15
ATOM     15  C   UNL     1      15.797   7.190  19.259  0.00  0.00    -0.038 A 
ATOM     16  C   UNL     1      16.627   6.117  18.932  0.00  0.00    +0.004 A 
ATOM     17  C   UNL     1      16.116   8.013  20.339  0.00  0.00    +0.004 A 
ATOM     18  C   UNL     1      17.773   5.867  19.686  0.00  0.00    +0.000 A 
ATOM     19  C   UNL     1      17.263   7.763  21.093  0.00  0.00    +0.000 A 
ATOM     20  C   UNL     1      18.092   6.690  20.766  0.00  0.00    +0.000 A 
ENDBRANCH  14  15
ENDBRANCH  13  14
TORSDOF 4
ENDMDL
MODEL 2
REMARK VINA RESULT:      -6.1     26.070     27.453
REMARK  Name = 51137406
REMARK  6 active torsions:
REMARK  status: ('A' for Active; 'I' for Inactive)
REMARK    1  A    between atoms: N_2  and  C_9
REMARK    2  A    between atoms: C_5  and  C_10
REMARK    3  A    between atoms: C_9  and  C_11
REMARK    4  A    between atoms: C_9  and  C_12
REMARK    5  A    between atoms: C_13  and  C_14
REMARK    6  A    between atoms: C_14  and  C_15
REMARK                            x       y       z     vdW  Elec       q    Type
REMARK                         _______ _______ _______ _____ _____    ______ ____
ROOT
ATOM      1  O   UNL     1      -3.342 -11.266  14.944  0.00  0.00    -0.424 OA
ATOM      3  N   UNL     1      -1.703 -10.700  16.359  0.00  0.00    -0.112 NA
ATOM      4  N   UNL     1      -1.122 -11.230  15.223  0.00  0.00    -0.112 NA
ATOM     10  C   UNL     1      -2.999 -10.740  16.153  0.00  0.00    +0.222 A 
ATOM     13  C   UNL     1      -2.116 -11.547  14.425  0.00  0.00    +0.222 A 
ENDROOT
BRANCH  10   5
ATOM      2  N   UNL     1      -6.009 -11.077  18.215  0.00  0.00    -0.299 NA
ATOM      5  C   UNL     1      -4.131 -10.294  17.048  0.00  0.00    +0.092 C 
ATOM      6  C   UNL     1      -4.590 -11.388  18.022  0.00  0.00    +0.097 C 
ATOM      7  C   UNL     1      -5.411  -9.869  16.308  0.00  0.00    +0.029 C 
ATOM      8  C   UNL     1      -6.510 -10.757  16.878  0.00  0.00    +0.085 C 
BRANCH   2   9
ATOM      9  C   UNL     1      -6.739 -12.174  18.832  0.00  0.00    +0.050 C 
ATOM     11  C   UNL     1      -6.956 -13.299  17.823  0.00  0.00    +0.024 C 
ATOM     12  C   UNL     1      -8.068 -11.660  19.373  0.00  0.00    +0.024 C 
ENDBRANCH   2   9
ENDBRANCH  10   5
BRANCH  13  14
ATOM     14  C   UNL     1      -2.085 -12.144  13.084  0.00  0.00    +0.132 C 
BRANCH  14  15
ATOM     15  C   UNL     1      -2.526 -11.212  11.961  0.00  0.00    -0.038 A 
ATOM     16  C   UNL     1      -1.836 -10.022  11.731  0.00  0.00    +0.004 A 
ATOM     17  C   UNL     1      -3.619 -11.549  11.163  0.00  0.00    +0.004 A 
ATOM     18  C   UNL     1      -2.239  -9.169  10.704  0.00  0.00    +0.000 A 
ATOM     19  C   UNL     1      -4.022 -10.697  10.135  0.00  0.00    +0.000 A 
ATOM     20  C   UNL     1      -3.332  -9.506   9.905  0.00  0.00    +0.000 A 
ENDBRANCH  14  15
ENDBRANCH  13  14
TORSDOF 4
ENDMDL
MODEL 3
REMARK VINA RESULT:      -5.9      2.056      3.437
REMARK  Name = 51137406
REMARK  6 active torsions:
REMARK  status: ('A' for Active; 'I' for Inactive)
REMARK    1  A    between atoms: N_2  and  C_9
REMARK    2  A    between atoms: C_5  and  C_10
REMARK    3  A    between atoms: C_9  and  C_11
REMARK    4  A    between atoms: C_9  and  C_12
REMARK    5  A    between atoms: C_13  and  C_14
REMARK    6  A    between atoms: C_14  and  C_15
REMARK                            x       y       z     vdW  Elec       q    Type
REMARK                         _______ _______ _______ _____ _____    ______ ____
ROOT
ATOM      1  O   UNL     1      12.237   8.889  21.937  0.00  0.00    -0.424 OA
ATOM      3  N   UNL     1      10.178   9.118  22.784  0.00  0.00    -0.112 NA
ATOM      4  N   UNL     1      10.316   7.816  22.342  0.00  0.00    -0.112 NA
ATOM     10  C   UNL     1      11.322   9.708  22.528  0.00  0.00    +0.222 A 
ATOM     13  C   UNL     1      11.532   7.727  21.856  0.00  0.00    +0.222 A 
ENDROOT
BRANCH  10   5
ATOM      2  N   UNL     1      10.947  13.238  23.436  0.00  0.00    -0.299 NA
ATOM      5  C   UNL     1      11.753  11.131  22.792  0.00  0.00    +0.092 C 
ATOM      6  C   UNL     1      10.886  11.832  23.847  0.00  0.00    +0.097 C 
ATOM      7  C   UNL     1      11.703  12.061  21.567  0.00  0.00    +0.029 C 
ATOM      8  C   UNL     1      10.796  13.212  21.982  0.00  0.00    +0.085 C 
BRANCH   2   9
ATOM      9  C   UNL     1       9.929  14.050  24.085  0.00  0.00    +0.050 C 
ATOM     11  C   UNL     1       9.090  14.781  23.040  0.00  0.00    +0.024 C 
ATOM     12  C   UNL     1      10.595  15.035  25.039  0.00  0.00    +0.024 C 
ENDBRANCH   2   9
ENDBRANCH  10   5
BRANCH  13  14
ATOM     14  C   UNL     1      12.219   6.577  21.255  0.00  0.00    +0.132 C 
BRANCH  14  15
ATOM     15  C   UNL     1      13.068   6.907  20.033  0.00  0.00    -0.038 A 
ATOM     16  C   UNL     1      12.457   7.332  18.853  0.00  0.00    +0.004 A 
ATOM     17  C   UNL     1      14.456   6.786  20.095  0.00  0.00    +0.004 A 
ATOM     18  C   UNL     1      13.234   7.633  17.735  0.00  0.00    +0.000 A 
ATOM     19  C   UNL     1      15.233   7.087  18.977  0.00  0.00    +0.000 A 
ATOM     20  C   UNL     1      14.622   7.512  17.796  0.00  0.00    +0.000 A 
ENDBRANCH  14  15
ENDBRANCH  13  14
TORSDOF 4
ENDMDL
MODEL 4
REMARK VINA RESULT:      -5.9     26.450     27.692
REMARK  Name = 51137406
REMARK  6 active torsions:
REMARK  status: ('A' for Active; 'I' for Inactive)
REMARK    1  A    between atoms: N_2  and  C_9
REMARK    2  A    between atoms: C_5  and  C_10
REMARK    3  A    between atoms: C_9  and  C_11
REMARK    4  A    between atoms: C_9  and  C_12
REMARK    5  A    between atoms: C_13  and  C_14
REMARK    6  A    between atoms: C_14  and  C_15
REMARK                            x       y       z     vdW  Elec       q    Type
REMARK                         _______ _______ _______ _____ _____    ______ ____
ROOT
ATOM      1  O   UNL     1      -3.356 -10.285  13.614  0.00  0.00    -0.424 OA
ATOM      3  N   UNL     1      -2.426 -11.873  14.887  0.00  0.00    -0.112 NA
ATOM      4  N   UNL     1      -1.650 -11.725  13.753  0.00  0.00    -0.112 NA
ATOM     10  C   UNL     1      -3.411 -11.013  14.764  0.00  0.00    +0.222 A 
ATOM     13  C   UNL     1      -2.230 -10.789  13.039  0.00  0.00    +0.222 A 
ENDROOT
BRANCH  10   5
ATOM      2  N   UNL     1      -5.511 -11.367  17.745  0.00  0.00    -0.299 NA
ATOM      5  C   UNL     1      -4.563 -10.727  15.698  0.00  0.00    +0.092 C 
ATOM      6  C   UNL     1      -4.218 -10.986  17.170  0.00  0.00    +0.097 C 
ATOM      7  C   UNL     1      -5.828 -11.565  15.440  0.00  0.00    +0.029 C 
ATOM      8  C   UNL     1      -6.110 -12.268  16.762  0.00  0.00    +0.085 C 
BRANCH   2   9
ATOM      9  C   UNL     1      -5.375 -11.986  19.055  0.00  0.00    +0.050 C 
ATOM     11  C   UNL     1      -6.074 -11.140  20.116  0.00  0.00    +0.024 C 
ATOM     12  C   UNL     1      -3.897 -12.164  19.383  0.00  0.00    +0.024 C 
ENDBRANCH   2   9
ENDBRANCH  10   5
BRANCH  13  14
ATOM     14  C   UNL     1      -1.839 -10.224  11.742  0.00  0.00    +0.132 C 
BRANCH  14  15
ATOM     15  C   UNL     1      -2.933 -10.246  10.681  0.00  0.00    -0.038 A 
ATOM     16  C   UNL     1      -3.323  -9.061  10.056  0.00  0.00    +0.004 A 
ATOM     17  C   UNL     1      -3.546 -11.450  10.334  0.00  0.00    +0.004 A 
ATOM     18  C   UNL     1      -4.324  -9.080   9.085  0.00  0.00    +0.000 A 
ATOM     19  C   UNL     1      -4.547 -11.470   9.363  0.00  0.00    +0.000 A 
ATOM     20  C   UNL     1      -4.936 -10.285   8.738  0.00  0.00    +0.000 A 
ENDBRANCH  14  15
ENDBRANCH  13  14
TORSDOF 4
ENDMDL
MODEL 5
REMARK VINA RESULT:      -5.9     29.617     31.264
REMARK  Name = 51137406
REMARK  6 active torsions:
REMARK  status: ('A' for Active; 'I' for Inactive)
REMARK    1  A    between atoms: N_2  and  C_9
REMARK    2  A    between atoms: C_5  and  C_10
REMARK    3  A    between atoms: C_9  and  C_11
REMARK    4  A    between atoms: C_9  and  C_12
REMARK    5  A    between atoms: C_13  and  C_14
REMARK    6  A    between atoms: C_14  and  C_15
REMARK                            x       y       z     vdW  Elec       q    Type
REMARK                         _______ _______ _______ _____ _____    ______ ____
ROOT
ATOM      1  O   UNL     1     -15.548   1.775  30.466  0.00  0.00    -0.424 OA
ATOM      3  N   UNL     1     -13.892   0.274  30.352  0.00  0.00    -0.112 NA
ATOM      4  N   UNL     1     -14.823  -0.043  29.382  0.00  0.00    -0.112 NA
ATOM     10  C   UNL     1     -14.355   1.341  30.961  0.00  0.00    +0.222 A 
ATOM     13  C   UNL     1     -15.772   0.858  29.484  0.00  0.00    +0.222 A 
ENDROOT
BRANCH  10   5
ATOM      2  N   UNL     1     -14.212   3.893  33.586  0.00  0.00    -0.299 NA
ATOM      5  C   UNL     1     -13.763   2.133  32.102  0.00  0.00    +0.092 C 
ATOM      6  C   UNL     1     -14.823   2.663  33.077  0.00  0.00    +0.097 C 
ATOM      7  C   UNL     1     -12.965   3.379  31.680  0.00  0.00    +0.029 C 
ATOM      8  C   UNL     1     -13.630   4.539  32.410  0.00  0.00    +0.085 C 
BRANCH   2   9
ATOM      9  C   UNL     1     -15.171   4.747  34.270  0.00  0.00    +0.050 C 
ATOM     11  C   UNL     1     -16.554   4.600  33.640  0.00  0.00    +0.024 C 
ATOM     12  C   UNL     1     -14.695   6.195  34.212  0.00  0.00    +0.024 C 
ENDBRANCH   2   9
ENDBRANCH  10   5
BRANCH  13  14
ATOM     14  C   UNL     1     -17.006   1.011  28.704  0.00  0.00    +0.132 C 
BRANCH  14  15
ATOM     15  C   UNL     1     -16.816   1.627  27.323  0.00  0.00    -0.038 A 
ATOM     16  C   UNL     1     -17.232   0.933  26.187  0.00  0.00    +0.004 A 
ATOM     17  C   UNL     1     -16.226   2.885  27.195  0.00  0.00    +0.004 A 
ATOM     18  C   UNL     1     -17.058   1.497  24.923  0.00  0.00    +0.000 A 
ATOM     19  C   UNL     1     -16.052   3.448  25.931  0.00  0.00    +0.000 A 
ATOM     20  C   UNL     1     -16.468   2.754  24.794  0.00  0.00    +0.000 A 
ENDBRANCH  14  15
ENDBRANCH  13  14
TORSDOF 4
ENDMDL
MODEL 6
REMARK VINA RESULT:      -5.8     27.721     30.258
REMARK  Name = 51137406
REMARK  6 active torsions:
REMARK  status: ('A' for Active; 'I' for Inactive)
REMARK    1  A    between atoms: N_2  and  C_9
REMARK    2  A    between atoms: C_5  and  C_10
REMARK    3  A    between atoms: C_9  and  C_11
REMARK    4  A    between atoms: C_9  and  C_12
REMARK    5  A    between atoms: C_13  and  C_14
REMARK    6  A    between atoms: C_14  and  C_15
REMARK                            x       y       z     vdW  Elec       q    Type
REMARK                         _______ _______ _______ _____ _____    ______ ____
ROOT
ATOM      1  O   UNL     1     -13.693   5.228  32.653  0.00  0.00    -0.424 OA
ATOM      3  N   UNL     1     -15.387   4.717  31.283  0.00  0.00    -0.112 NA
ATOM      4  N   UNL     1     -15.481   6.060  31.596  0.00  0.00    -0.112 NA
ATOM     10  C   UNL     1     -14.330   4.272  31.921  0.00  0.00    +0.222 A 
ATOM     13  C   UNL     1     -14.472   6.315  32.397  0.00  0.00    +0.222 A 
ENDROOT
BRANCH  10   5
ATOM      2  N   UNL     1     -14.012   0.715  31.100  0.00  0.00    -0.299 NA
ATOM      5  C   UNL     1     -13.739   2.883  31.954  0.00  0.00    +0.092 C 
ATOM      6  C   UNL     1     -13.958   2.108  30.648  0.00  0.00    +0.097 C 
ATOM      7  C   UNL     1     -14.305   1.964  33.051  0.00  0.00    +0.029 C 
ATOM      8  C   UNL     1     -14.834   0.743  32.309  0.00  0.00    +0.085 C 
BRANCH   2   9
ATOM      9  C   UNL     1     -14.550  -0.177  30.084  0.00  0.00    +0.050 C 
ATOM     11  C   UNL     1     -13.416  -0.887  29.350  0.00  0.00    +0.024 C 
ATOM     12  C   UNL     1     -15.417   0.619  29.115  0.00  0.00    +0.024 C 
ENDBRANCH   2   9
ENDBRANCH  10   5
BRANCH  13  14
ATOM     14  C   UNL     1     -14.079   7.577  33.035  0.00  0.00    +0.132 C 
BRANCH  14  15
ATOM     15  C   UNL     1     -13.244   8.502  32.158  0.00  0.00    -0.038 A 
ATOM     16  C   UNL     1     -11.851   8.451  32.218  0.00  0.00    +0.004 A 
ATOM     17  C   UNL     1     -13.872   9.401  31.295  0.00  0.00    +0.004 A 
ATOM     18  C   UNL     1     -11.087   9.298  31.416  0.00  0.00    +0.000 A 
ATOM     19  C   UNL     1     -13.108  10.248  30.493  0.00  0.00    +0.000 A 
ATOM     20  C   UNL     1     -11.715  10.196  30.553  0.00  0.00    +0.000 A 
ENDBRANCH  14  15
ENDBRANCH  13  14
TORSDOF 4
ENDMDL
MODEL 7
REMARK VINA RESULT:      -5.7     16.411     19.495
REMARK  Name = 51137406
REMARK  6 active torsions:
REMARK  status: ('A' for Active; 'I' for Inactive)
REMARK    1  A    between atoms: N_2  and  C_9
REMARK    2  A    between atoms: C_5  and  C_10
REMARK    3  A    between atoms: C_9  and  C_11
REMARK    4  A    between atoms: C_9  and  C_12
REMARK    5  A    between atoms: C_13  and  C_14
REMARK    6  A    between atoms: C_14  and  C_15
REMARK                            x       y       z     vdW  Elec       q    Type
REMARK                         _______ _______ _______ _____ _____    ______ ____
ROOT
ATOM      1  O   UNL     1      11.225   3.880   3.302  0.00  0.00    -0.424 OA
ATOM      3  N   UNL     1      11.805   5.844   2.401  0.00  0.00    -0.112 NA
ATOM      4  N   UNL     1      10.820   6.080   3.341  0.00  0.00    -0.112 NA
ATOM     10  C   UNL     1      12.010   4.548   2.412  0.00  0.00    +0.222 A 
ATOM     13  C   UNL     1      10.511   4.906   3.841  0.00  0.00    +0.222 A 
ENDROOT
BRANCH  10   5
ATOM      2  N   UNL     1      14.890   3.862   0.252  0.00  0.00    -0.299 NA
ATOM      5  C   UNL     1      12.973   3.718   1.596  0.00  0.00    +0.092 C 
ATOM      6  C   UNL     1      14.388   4.311   1.554  0.00  0.00    +0.097 C 
ATOM      7  C   UNL     1      12.581   3.539   0.118  0.00  0.00    +0.029 C 
ATOM      8  C   UNL     1      13.774   4.063  -0.672  0.00  0.00    +0.085 C 
BRANCH   2   9
ATOM      9  C   UNL     1      16.086   4.582  -0.158  0.00  0.00    +0.050 C 
ATOM     11  C   UNL     1      16.002   6.042   0.280  0.00  0.00    +0.024 C 
ATOM     12  C   UNL     1      16.251   4.473  -1.670  0.00  0.00    +0.024 C 
ENDBRANCH   2   9
ENDBRANCH  10   5
BRANCH  13  14
ATOM     14  C   UNL     1       9.530   4.558   4.876  0.00  0.00    +0.132 C 
BRANCH  14  15
ATOM     15  C   UNL     1       9.315   5.631   5.938  0.00  0.00    -0.038 A 
ATOM     16  C   UNL     1       8.373   6.639   5.729  0.00  0.00    +0.004 A 
ATOM     17  C   UNL     1      10.058   5.605   7.117  0.00  0.00    +0.004 A 
ATOM     18  C   UNL     1       8.177   7.621   6.700  0.00  0.00    +0.000 A 
ATOM     19  C   UNL     1       9.862   6.586   8.088  0.00  0.00    +0.000 A 
ATOM     20  C   UNL     1       8.921   7.595   7.880  0.00  0.00    +0.000 A 
ENDBRANCH  14  15
ENDBRANCH  13  14
TORSDOF 4
ENDMDL
MODEL 8
REMARK VINA RESULT:      -5.7     26.758     28.019
REMARK  Name = 51137406
REMARK  6 active torsions:
REMARK  status: ('A' for Active; 'I' for Inactive)
REMARK    1  A    between atoms: N_2  and  C_9
REMARK    2  A    between atoms: C_5  and  C_10
REMARK    3  A    between atoms: C_9  and  C_11
REMARK    4  A    between atoms: C_9  and  C_12
REMARK    5  A    between atoms: C_13  and  C_14
REMARK    6  A    between atoms: C_14  and  C_15
REMARK                            x       y       z     vdW  Elec       q    Type
REMARK                         _______ _______ _______ _____ _____    ______ ____
ROOT
ATOM      1  O   UNL     1      -3.583 -12.025  13.882  0.00  0.00    -0.424 OA
ATOM      3  N   UNL     1      -2.083 -10.432  14.354  0.00  0.00    -0.112 NA
ATOM      4  N   UNL     1      -2.616 -10.884  15.546  0.00  0.00    -0.112 NA
ATOM     10  C   UNL     1      -2.676 -11.125  13.410  0.00  0.00    +0.222 A 
ATOM     13  C   UNL     1      -3.487 -11.812  15.223  0.00  0.00    +0.222 A 
ENDROOT
BRANCH  10   5
ATOM      2  N   UNL     1      -3.364 -10.092   9.962  0.00  0.00    -0.299 NA
ATOM      5  C   UNL     1      -2.494 -11.064  11.911  0.00  0.00    +0.092 C 
ATOM      6  C   UNL     1      -2.927  -9.720  11.310  0.00  0.00    +0.097 C 
ATOM      7  C   UNL     1      -3.287 -12.118  11.120  0.00  0.00    +0.029 C 
ATOM      8  C   UNL     1      -4.140 -11.319  10.142  0.00  0.00    +0.085 C 
BRANCH   2   9
ATOM      9  C   UNL     1      -4.134  -9.038   9.318  0.00  0.00    +0.050 C 
ATOM     11  C   UNL     1      -4.984  -8.299  10.348  0.00  0.00    +0.024 C 
ATOM     12  C   UNL     1      -5.005  -9.643   8.222  0.00  0.00    +0.024 C 
ENDBRANCH   2   9
ENDBRANCH  10   5
BRANCH  13  14
ATOM     14  C   UNL     1      -4.344 -12.632  16.087  0.00  0.00    +0.132 C 
BRANCH  14  15
ATOM     15  C   UNL     1      -4.997 -11.878  17.239  0.00  0.00    -0.038 A 
ATOM     16  C   UNL     1      -4.638 -12.170  18.556  0.00  0.00    +0.004 A 
ATOM     17  C   UNL     1      -5.953 -10.896  16.979  0.00  0.00    +0.004 A 
ATOM     18  C   UNL     1      -5.236 -11.480  19.610  0.00  0.00    +0.000 A 
ATOM     19  C   UNL     1      -6.550 -10.206  18.033  0.00  0.00    +0.000 A 
ATOM     20  C   UNL     1      -6.192 -10.498  19.350  0.00  0.00    +0.000 A 
ENDBRANCH  14  15
ENDBRANCH  13  14
TORSDOF 4
ENDMDL
MODEL 9
REMARK VINA RESULT:      -5.6     27.795     30.073
REMARK  Name = 51137406
REMARK  6 active torsions:
REMARK  status: ('A' for Active; 'I' for Inactive)
REMARK    1  A    between atoms: N_2  and  C_9
REMARK    2  A    between atoms: C_5  and  C_10
REMARK    3  A    between atoms: C_9  and  C_11
REMARK    4  A    between atoms: C_9  and  C_12
REMARK    5  A    between atoms: C_13  and  C_14
REMARK    6  A    between atoms: C_14  and  C_15
REMARK                            x       y       z     vdW  Elec       q    Type
REMARK                         _______ _______ _______ _____ _____    ______ ____
ROOT
ATOM      1  O   UNL     1     -13.511   5.312  32.470  0.00  0.00    -0.424 OA
ATOM      3  N   UNL     1     -14.853   4.867  34.205  0.00  0.00    -0.112 NA
ATOM      4  N   UNL     1     -14.535   3.670  33.593  0.00  0.00    -0.112 NA
ATOM     10  C   UNL     1     -14.234   5.798  33.517  0.00  0.00    +0.222 A 
ATOM     13  C   UNL     1     -13.751   3.977  32.586  0.00  0.00    +0.222 A 
ENDROOT
BRANCH  10   5
ATOM      2  N   UNL     1     -13.328   9.287  32.857  0.00  0.00    -0.299 NA
ATOM      5  C   UNL     1     -14.213   7.295  33.722  0.00  0.00    +0.092 C 
ATOM      6  C   UNL     1     -14.023   8.075  32.415  0.00  0.00    +0.097 C 
ATOM      7  C   UNL     1     -13.095   7.806  34.647  0.00  0.00    +0.029 C 
ATOM      8  C   UNL     1     -12.322   8.818  33.810  0.00  0.00    +0.085 C 
BRANCH   2   9
ATOM      9  C   UNL     1     -12.740  10.025  31.749  0.00  0.00    +0.050 C 
ATOM     11  C   UNL     1     -13.722  10.100  30.583  0.00  0.00    +0.024 C 
ATOM     12  C   UNL     1     -11.438   9.354  31.326  0.00  0.00    +0.024 C 
ENDBRANCH   2   9
ENDBRANCH  10   5
BRANCH  13  14
ATOM     14  C   UNL     1     -13.112   3.101  31.596  0.00  0.00    +0.132 C 
BRANCH  14  15
ATOM     15  C   UNL     1     -14.076   2.411  30.638  0.00  0.00    -0.038 A 
ATOM     16  C   UNL     1     -14.205   1.022  30.659  0.00  0.00    +0.004 A 
ATOM     17  C   UNL     1     -14.829   3.168  29.740  0.00  0.00    +0.004 A 
ATOM     18  C   UNL     1     -15.086   0.391  29.782  0.00  0.00    +0.000 A 
ATOM     19  C   UNL     1     -15.710   2.536  28.863  0.00  0.00    +0.000 A 
ATOM     20  C   UNL     1     -15.839   1.147  28.884  0.00  0.00    +0.000 A 
ENDBRANCH  14  15
ENDBRANCH  13  14
TORSDOF 4
ENDMDL
MODEL 10
REMARK VINA RESULT:      -5.5     16.487     19.530
REMARK  Name = 51137406
REMARK  6 active torsions:
REMARK  status: ('A' for Active; 'I' for Inactive)
REMARK    1  A    between atoms: N_2  and  C_9
REMARK    2  A    between atoms: C_5  and  C_10
REMARK    3  A    between atoms: C_9  and  C_11
REMARK    4  A    between atoms: C_9  and  C_12
REMARK    5  A    between atoms: C_13  and  C_14
REMARK    6  A    between atoms: C_14  and  C_15
REMARK                            x       y       z     vdW  Elec       q    Type
REMARK                         _______ _______ _______ _____ _____    ______ ____
ROOT
ATOM      1  O   UNL     1      11.345   5.009   3.018  0.00  0.00    -0.424 OA
ATOM      3  N   UNL     1      12.656   6.793   3.343  0.00  0.00    -0.112 NA
ATOM      4  N   UNL     1      11.551   6.920   4.164  0.00  0.00    -0.112 NA
ATOM     10  C   UNL     1      12.494   5.665   2.693  0.00  0.00    +0.222 A 
ATOM     13  C   UNL     1      10.813   5.857   3.941  0.00  0.00    +0.222 A 
ENDROOT
BRANCH  10   5
ATOM      2  N   UNL     1      13.409   4.199  -0.538  0.00  0.00    -0.299 NA
ATOM      5  C   UNL     1      13.383   5.010   1.662  0.00  0.00    +0.092 C 
ATOM      6  C   UNL     1      13.008   5.385   0.223  0.00  0.00    +0.097 C 
ATOM      7  C   UNL     1      13.370   3.471   1.680  0.00  0.00    +0.029 C 
ATOM      8  C   UNL     1      12.963   3.064   0.269  0.00  0.00    +0.085 C 
BRANCH   2   9
ATOM      9  C   UNL     1      12.843   4.182  -1.879  0.00  0.00    +0.050 C 
ATOM     11  C   UNL     1      12.149   2.849  -2.143  0.00  0.00    +0.024 C 
ATOM     12  C   UNL     1      13.947   4.436  -2.900  0.00  0.00    +0.024 C 
ENDBRANCH   2   9
ENDBRANCH  10   5
BRANCH  13  14
ATOM     14  C   UNL     1       9.530   5.467   4.537  0.00  0.00    +0.132 C 
BRANCH  14  15
ATOM     15  C   UNL     1       9.494   5.511   6.060  0.00  0.00    -0.038 A 
ATOM     16  C   UNL     1       9.899   4.400   6.800  0.00  0.00    +0.004 A 
ATOM     17  C   UNL     1       9.057   6.662   6.715  0.00  0.00    +0.004 A 
ATOM     18  C   UNL     1       9.866   4.440   8.194  0.00  0.00    +0.000 A 
ATOM     19  C   UNL     1       9.023   6.703   8.109  0.00  0.00    +0.000 A 
ATOM     20  C   UNL     1       9.428   5.591   8.849  0.00  0.00    +0.000 A 
ENDBRANCH  14  15
ENDBRANCH  13  14
TORSDOF 4
ENDMDL
