MODEL 1
REMARK VINA RESULT:      -7.2      0.000      0.000
REMARK  Name = 51137122
REMARK  4 active torsions:
REMARK  status: ('A' for Active; 'I' for Inactive)
REMARK    1  A    between atoms: N_1  and  C_10
REMARK    2  A    between atoms: N_4  and  C_17
REMARK    3  A    between atoms: C_6  and  C_11
REMARK    4  A    between atoms: C_10  and  C_12
REMARK                            x       y       z     vdW  Elec       q    Type
REMARK                         _______ _______ _______ _____ _____    ______ ____
ROOT
ATOM      1  N   UNL     1      -1.339  10.529  36.827  0.00  0.00    -0.295 NA
ATOM      6  C   UNL     1       0.125  12.166  36.004  0.00  0.00    +0.070 C 
ATOM      7  C   UNL     1      -0.348  10.725  35.767  0.00  0.00    +0.096 C 
ATOM      8  C   UNL     1      -1.045  12.844  36.739  0.00  0.00    +0.028 C 
ATOM      9  C   UNL     1      -2.117  11.768  36.851  0.00  0.00    +0.085 C 
ENDROOT
BRANCH   6  11
ATOM      2  N   UNL     1       0.692  12.172  33.560  0.00  0.00    -0.342 N 
ATOM      3  N   UNL     1       0.863  14.131  34.596  0.00  0.00    -0.232 NA
ATOM     11  C   UNL     1       0.564  12.859  34.735  0.00  0.00    +0.113 A 
ATOM     13  C   UNL     1       1.101  13.060  32.599  0.00  0.00    +0.066 A 
ATOM     14  C   UNL     1       1.201  14.276  33.270  0.00  0.00    +0.089 A 
ATOM     18  C   UNL     1       1.384  12.910  31.241  0.00  0.00    +0.028 A 
ATOM     19  C   UNL     1       1.605  15.419  32.561  0.00  0.00    +0.030 A 
ATOM     22  C   UNL     1       1.785  14.058  30.550  0.00  0.00    +0.002 A 
ATOM     23  C   UNL     1       1.894  15.292  31.196  0.00  0.00    +0.002 A 
ATOM     26  H   UNL     1       0.517  11.186  33.420  0.00  0.00    +0.167 HD
ENDBRANCH   6  11
BRANCH   1  10
ATOM     10  C   UNL     1      -2.170   9.357  36.600  0.00  0.00    +0.158 C 
BRANCH  10  12
ATOM      4  N   UNL     1      -2.746   7.902  38.570  0.00  0.00    -0.330 N 
ATOM      5  N   UNL     1      -0.775   7.527  37.611  0.00  0.00    -0.231 NA
ATOM     12  C   UNL     1      -1.869   8.255  37.582  0.00  0.00    +0.125 A 
ATOM     15  C   UNL     1      -2.179   6.877  39.285  0.00  0.00    +0.069 A 
ATOM     16  C   UNL     1      -0.950   6.663  38.667  0.00  0.00    +0.089 A 
ATOM     17  C   UNL     1      -4.038   8.498  38.819  0.00  0.00    +0.150 C 
ATOM     20  C   UNL     1      -2.623   6.142  40.385  0.00  0.00    +0.028 A 
ATOM     21  C   UNL     1      -0.100   5.659  39.163  0.00  0.00    +0.030 A 
ATOM     24  C   UNL     1      -1.765   5.149  40.865  0.00  0.00    +0.002 A 
ATOM     25  C   UNL     1      -0.526   4.909  40.267  0.00  0.00    +0.002 A 
ENDBRANCH  10  12
ENDBRANCH   1  10
TORSDOF 3
ENDMDL
MODEL 2
REMARK VINA RESULT:      -7.1     20.699     24.801
REMARK  Name = 51137122
REMARK  4 active torsions:
REMARK  status: ('A' for Active; 'I' for Inactive)
REMARK    1  A    between atoms: N_1  and  C_10
REMARK    2  A    between atoms: N_4  and  C_17
REMARK    3  A    between atoms: C_6  and  C_11
REMARK    4  A    between atoms: C_10  and  C_12
REMARK                            x       y       z     vdW  Elec       q    Type
REMARK                         _______ _______ _______ _____ _____    ______ ____
ROOT
ATOM      1  N   UNL     1      17.523   7.905  20.660  0.00  0.00    -0.295 NA
ATOM      6  C   UNL     1      19.378   6.536  20.232  0.00  0.00    +0.070 C 
ATOM      7  C   UNL     1      18.884   7.670  21.143  0.00  0.00    +0.096 C 
ATOM      8  C   UNL     1      18.095   5.826  19.766  0.00  0.00    +0.028 C 
ATOM      9  C   UNL     1      16.959   6.571  20.454  0.00  0.00    +0.085 C 
ENDROOT
BRANCH   6  11
ATOM      2  N   UNL     1      20.995   4.617  20.227  0.00  0.00    -0.342 N 
ATOM      3  N   UNL     1      20.806   5.716  22.150  0.00  0.00    -0.232 NA
ATOM     11  C   UNL     1      20.392   5.640  20.904  0.00  0.00    +0.113 A 
ATOM     13  C   UNL     1      21.855   3.991  21.092  0.00  0.00    +0.066 A 
ATOM     14  C   UNL     1      21.719   4.695  22.286  0.00  0.00    +0.089 A 
ATOM     18  C   UNL     1      22.714   2.903  20.938  0.00  0.00    +0.028 A 
ATOM     19  C   UNL     1      22.476   4.304  23.402  0.00  0.00    +0.030 A 
ATOM     22  C   UNL     1      23.461   2.526  22.060  0.00  0.00    +0.002 A 
ATOM     23  C   UNL     1      23.346   3.213  23.271  0.00  0.00    +0.002 A 
ATOM     26  H   UNL     1      20.838   4.365  19.260  0.00  0.00    +0.167 HD
ENDBRANCH   6  11
BRANCH   1  10
ATOM     10  C   UNL     1      16.735   8.702  21.589  0.00  0.00    +0.158 C 
BRANCH  10  12
ATOM      4  N   UNL     1      14.594   9.179  20.356  0.00  0.00    -0.330 N 
ATOM      5  N   UNL     1      14.451   7.767  22.068  0.00  0.00    -0.231 NA
ATOM     12  C   UNL     1      15.256   8.530  21.361  0.00  0.00    +0.125 A 
ATOM     15  C   UNL     1      13.274   8.812  20.419  0.00  0.00    +0.069 A 
ATOM     16  C   UNL     1      13.211   7.931  21.494  0.00  0.00    +0.089 A 
ATOM     17  C   UNL     1      15.178  10.091  19.398  0.00  0.00    +0.150 C 
ATOM     20  C   UNL     1      12.165   9.164  19.649  0.00  0.00    +0.028 A 
ATOM     21  C   UNL     1      11.975   7.357  21.838  0.00  0.00    +0.030 A 
ATOM     24  C   UNL     1      10.943   8.584  20.005  0.00  0.00    +0.002 A 
ATOM     25  C   UNL     1      10.847   7.696  21.079  0.00  0.00    +0.002 A 
ENDBRANCH  10  12
ENDBRANCH   1  10
TORSDOF 3
ENDMDL
MODEL 3
REMARK VINA RESULT:      -7.0     28.336     29.325
REMARK  Name = 51137122
REMARK  4 active torsions:
REMARK  status: ('A' for Active; 'I' for Inactive)
REMARK    1  A    between atoms: N_1  and  C_10
REMARK    2  A    between atoms: N_4  and  C_17
REMARK    3  A    between atoms: C_6  and  C_11
REMARK    4  A    between atoms: C_10  and  C_12
REMARK                            x       y       z     vdW  Elec       q    Type
REMARK                         _______ _______ _______ _____ _____    ______ ____
ROOT
ATOM      1  N   UNL     1      -9.899  -8.423  16.143  0.00  0.00    -0.295 NA
ATOM      6  C   UNL     1     -11.422  -6.653  15.934  0.00  0.00    +0.070 C 
ATOM      7  C   UNL     1     -10.098  -7.193  15.376  0.00  0.00    +0.096 C 
ATOM      8  C   UNL     1     -12.148  -7.894  16.484  0.00  0.00    +0.028 C 
ATOM      9  C   UNL     1     -11.216  -9.061  16.184  0.00  0.00    +0.085 C 
ENDROOT
BRANCH   6  11
ATOM      2  N   UNL     1     -11.582  -5.046  14.013  0.00  0.00    -0.342 N 
ATOM      3  N   UNL     1     -13.516  -5.834  14.777  0.00  0.00    -0.232 NA
ATOM     11  C   UNL     1     -12.209  -5.856  14.919  0.00  0.00    +0.113 A 
ATOM     13  C   UNL     1     -12.549  -4.463  13.235  0.00  0.00    +0.066 A 
ATOM     14  C   UNL     1     -13.746  -4.970  13.731  0.00  0.00    +0.089 A 
ATOM     18  C   UNL     1     -12.481  -3.562  12.171  0.00  0.00    +0.028 A 
ATOM     19  C   UNL     1     -14.957  -4.566  13.145  0.00  0.00    +0.030 A 
ATOM     22  C   UNL     1     -13.695  -3.170  11.599  0.00  0.00    +0.002 A 
ATOM     23  C   UNL     1     -14.913  -3.662  12.075  0.00  0.00    +0.002 A 
ATOM     26  H   UNL     1     -10.585  -4.901  13.928  0.00  0.00    +0.167 HD
ENDBRANCH   6  11
BRANCH   1  10
ATOM     10  C   UNL     1      -8.885  -9.286  15.556  0.00  0.00    +0.158 C 
BRANCH  10  12
ATOM      4  N   UNL     1      -6.628 -10.101  16.313  0.00  0.00    -0.330 N 
ATOM      5  N   UNL     1      -8.236 -10.089  17.848  0.00  0.00    -0.231 NA
ATOM     12  C   UNL     1      -7.937  -9.826  16.595  0.00  0.00    +0.125 A 
ATOM     15  C   UNL     1      -6.043 -10.573  17.460  0.00  0.00    +0.069 A 
ATOM     16  C   UNL     1      -7.067 -10.556  18.402  0.00  0.00    +0.089 A 
ATOM     17  C   UNL     1      -5.974  -9.926  15.036  0.00  0.00    +0.150 C 
ATOM     20  C   UNL     1      -4.745 -11.000  17.745  0.00  0.00    +0.028 A 
ATOM     21  C   UNL     1      -6.799 -10.988  19.713  0.00  0.00    +0.030 A 
ATOM     24  C   UNL     1      -4.497 -11.427  19.054  0.00  0.00    +0.002 A 
ATOM     25  C   UNL     1      -5.504 -11.421  20.022  0.00  0.00    +0.002 A 
ENDBRANCH  10  12
ENDBRANCH   1  10
TORSDOF 3
ENDMDL
MODEL 4
REMARK VINA RESULT:      -6.9     18.745     21.730
REMARK  Name = 51137122
REMARK  4 active torsions:
REMARK  status: ('A' for Active; 'I' for Inactive)
REMARK    1  A    between atoms: N_1  and  C_10
REMARK    2  A    between atoms: N_4  and  C_17
REMARK    3  A    between atoms: C_6  and  C_11
REMARK    4  A    between atoms: C_10  and  C_12
REMARK                            x       y       z     vdW  Elec       q    Type
REMARK                         _______ _______ _______ _____ _____    ______ ____
ROOT
ATOM      1  N   UNL     1     -15.077   6.296  22.243  0.00  0.00    -0.295 NA
ATOM      6  C   UNL     1     -15.659   4.209  23.140  0.00  0.00    +0.070 C 
ATOM      7  C   UNL     1     -14.661   5.365  23.293  0.00  0.00    +0.096 C 
ATOM      8  C   UNL     1     -16.893   4.846  22.475  0.00  0.00    +0.028 C 
ATOM      9  C   UNL     1     -16.539   6.319  22.316  0.00  0.00    +0.085 C 
ENDROOT
BRANCH   6  11
ATOM      2  N   UNL     1     -15.746   4.113  25.646  0.00  0.00    -0.342 N 
ATOM      3  N   UNL     1     -16.374   2.263  24.587  0.00  0.00    -0.232 NA
ATOM     11  C   UNL     1     -15.938   3.495  24.442  0.00  0.00    +0.113 A 
ATOM     13  C   UNL     1     -16.081   3.222  26.633  0.00  0.00    +0.066 A 
ATOM     14  C   UNL     1     -16.469   2.075  25.946  0.00  0.00    +0.089 A 
ATOM     18  C   UNL     1     -16.077   3.317  28.025  0.00  0.00    +0.028 A 
ATOM     19  C   UNL     1     -16.881   0.947  26.675  0.00  0.00    +0.030 A 
ATOM     22  C   UNL     1     -16.490   2.185  28.735  0.00  0.00    +0.002 A 
ATOM     23  C   UNL     1     -16.885   1.019  28.074  0.00  0.00    +0.002 A 
ATOM     26  H   UNL     1     -15.418   5.059  25.788  0.00  0.00    +0.167 HD
ENDBRANCH   6  11
BRANCH   1  10
ATOM     10  C   UNL     1     -14.494   7.619  22.411  0.00  0.00    +0.158 C 
BRANCH  10  12
ATOM      4  N   UNL     1     -12.734   9.072  21.354  0.00  0.00    -0.330 N 
ATOM      5  N   UNL     1     -13.160   7.143  20.335  0.00  0.00    -0.231 NA
ATOM     12  C   UNL     1     -13.467   7.919  21.351  0.00  0.00    +0.125 A 
ATOM     15  C   UNL     1     -11.898   9.039  20.267  0.00  0.00    +0.069 A 
ATOM     16  C   UNL     1     -12.183   7.826  19.648  0.00  0.00    +0.089 A 
ATOM     17  C   UNL     1     -12.822  10.139  22.325  0.00  0.00    +0.150 C 
ATOM     20  C   UNL     1     -10.945   9.940  19.788  0.00  0.00    +0.028 A 
ATOM     21  C   UNL     1     -11.486   7.472  18.480  0.00  0.00    +0.030 A 
ATOM     24  C   UNL     1     -10.262   9.572  18.624  0.00  0.00    +0.002 A 
ATOM     25  C   UNL     1     -10.525   8.361  17.980  0.00  0.00    +0.002 A 
ENDBRANCH  10  12
ENDBRANCH   1  10
TORSDOF 3
ENDMDL
MODEL 5
REMARK VINA RESULT:      -6.9     20.564     24.388
REMARK  Name = 51137122
REMARK  4 active torsions:
REMARK  status: ('A' for Active; 'I' for Inactive)
REMARK    1  A    between atoms: N_1  and  C_10
REMARK    2  A    between atoms: N_4  and  C_17
REMARK    3  A    between atoms: C_6  and  C_11
REMARK    4  A    between atoms: C_10  and  C_12
REMARK                            x       y       z     vdW  Elec       q    Type
REMARK                         _______ _______ _______ _____ _____    ______ ____
ROOT
ATOM      1  N   UNL     1      18.105   6.216  20.637  0.00  0.00    -0.295 NA
ATOM      6  C   UNL     1      15.775   6.212  20.908  0.00  0.00    +0.070 C 
ATOM      7  C   UNL     1      17.081   6.649  21.588  0.00  0.00    +0.096 C 
ATOM      8  C   UNL     1      16.120   6.152  19.409  0.00  0.00    +0.028 C 
ATOM      9  C   UNL     1      17.578   6.582  19.321  0.00  0.00    +0.085 C 
ENDROOT
BRANCH   6  11
ATOM      2  N   UNL     1      13.335   6.600  21.343  0.00  0.00    -0.342 N 
ATOM      3  N   UNL     1      14.641   8.391  21.504  0.00  0.00    -0.232 NA
ATOM     11  C   UNL     1      14.604   7.100  21.255  0.00  0.00    +0.113 A 
ATOM     13  C   UNL     1      12.498   7.635  21.670  0.00  0.00    +0.066 A 
ATOM     14  C   UNL     1      13.337   8.742  21.765  0.00  0.00    +0.089 A 
ATOM     18  C   UNL     1      11.121   7.697  21.885  0.00  0.00    +0.028 A 
ATOM     19  C   UNL     1      12.787   9.992  22.092  0.00  0.00    +0.030 A 
ATOM     22  C   UNL     1      10.589   8.950  22.209  0.00  0.00    +0.002 A 
ATOM     23  C   UNL     1      11.406  10.079  22.312  0.00  0.00    +0.002 A 
ATOM     26  H   UNL     1      13.059   5.638  21.195  0.00  0.00    +0.167 HD
ENDBRANCH   6  11
BRANCH   1  10
ATOM     10  C   UNL     1      19.401   6.822  20.902  0.00  0.00    +0.158 C 
BRANCH  10  12
ATOM      4  N   UNL     1      21.022   5.831  22.552  0.00  0.00    -0.330 N 
ATOM      5  N   UNL     1      20.850   4.791  20.594  0.00  0.00    -0.231 NA
ATOM     12  C   UNL     1      20.424   5.799  21.323  0.00  0.00    +0.125 A 
ATOM     15  C   UNL     1      21.892   4.773  22.621  0.00  0.00    +0.069 A 
ATOM     16  C   UNL     1      21.767   4.141  21.388  0.00  0.00    +0.089 A 
ATOM     17  C   UNL     1      20.782   6.803  23.594  0.00  0.00    +0.150 C 
ATOM     20  C   UNL     1      22.752   4.330  23.626  0.00  0.00    +0.028 A 
ATOM     21  C   UNL     1      22.537   2.995  21.124  0.00  0.00    +0.030 A 
ATOM     24  C   UNL     1      23.512   3.190  23.346  0.00  0.00    +0.002 A 
ATOM     25  C   UNL     1      23.408   2.532  22.118  0.00  0.00    +0.002 A 
ENDBRANCH  10  12
ENDBRANCH   1  10
TORSDOF 3
ENDMDL
MODEL 6
REMARK VINA RESULT:      -6.9     31.944     37.118
REMARK  Name = 51137122
REMARK  4 active torsions:
REMARK  status: ('A' for Active; 'I' for Inactive)
REMARK    1  A    between atoms: N_1  and  C_10
REMARK    2  A    between atoms: N_4  and  C_17
REMARK    3  A    between atoms: C_6  and  C_11
REMARK    4  A    between atoms: C_10  and  C_12
REMARK                            x       y       z     vdW  Elec       q    Type
REMARK                         _______ _______ _______ _____ _____    ______ ____
ROOT
ATOM      1  N   UNL     1      11.567   4.662   1.759  0.00  0.00    -0.295 NA
ATOM      6  C   UNL     1      10.321   5.732   3.432  0.00  0.00    +0.070 C 
ATOM      7  C   UNL     1      10.651   4.347   2.856  0.00  0.00    +0.096 C 
ATOM      8  C   UNL     1      11.523   6.611   3.043  0.00  0.00    +0.028 C 
ATOM      9  C   UNL     1      12.470   5.678   2.300  0.00  0.00    +0.085 C 
ENDROOT
BRANCH   6  11
ATOM      2  N   UNL     1      10.221   4.566   5.653  0.00  0.00    -0.342 N 
ATOM      3  N   UNL     1       9.536   6.681   5.640  0.00  0.00    -0.232 NA
ATOM     11  C   UNL     1      10.013   5.696   4.911  0.00  0.00    +0.113 A 
ATOM     13  C   UNL     1       9.853   4.840   6.945  0.00  0.00    +0.066 A 
ATOM     14  C   UNL     1       9.429   6.165   6.911  0.00  0.00    +0.089 A 
ATOM     18  C   UNL     1       9.855   4.066   8.105  0.00  0.00    +0.028 A 
ATOM     19  C   UNL     1       8.976   6.770   8.095  0.00  0.00    +0.030 A 
ATOM     22  C   UNL     1       9.401   4.683   9.275  0.00  0.00    +0.002 A 
ATOM     23  C   UNL     1       8.969   6.011   9.273  0.00  0.00    +0.002 A 
ATOM     26  H   UNL     1      10.582   3.685   5.313  0.00  0.00    +0.167 HD
ENDBRANCH   6  11
BRANCH   1  10
ATOM     10  C   UNL     1      12.280   3.487   1.278  0.00  0.00    +0.158 C 
BRANCH  10  12
ATOM      4  N   UNL     1      14.636   3.805   0.455  0.00  0.00    -0.330 N 
ATOM      5  N   UNL     1      13.017   4.205  -1.015  0.00  0.00    -0.231 NA
ATOM     12  C   UNL     1      13.290   3.839   0.217  0.00  0.00    +0.125 A 
ATOM     15  C   UNL     1      15.274   4.175  -0.701  0.00  0.00    +0.069 A 
ATOM     16  C   UNL     1      14.243   4.419  -1.603  0.00  0.00    +0.089 A 
ATOM     17  C   UNL     1      15.275   3.446   1.700  0.00  0.00    +0.150 C 
ATOM     20  C   UNL     1      16.625   4.311  -1.026  0.00  0.00    +0.028 A 
ATOM     21  C   UNL     1      14.558   4.824  -2.911  0.00  0.00    +0.030 A 
ATOM     24  C   UNL     1      16.920   4.717  -2.331  0.00  0.00    +0.002 A 
ATOM     25  C   UNL     1      15.907   4.968  -3.259  0.00  0.00    +0.002 A 
ENDBRANCH  10  12
ENDBRANCH   1  10
TORSDOF 3
ENDMDL
MODEL 7
REMARK VINA RESULT:      -6.8     28.810     30.743
REMARK  Name = 51137122
REMARK  4 active torsions:
REMARK  status: ('A' for Active; 'I' for Inactive)
REMARK    1  A    between atoms: N_1  and  C_10
REMARK    2  A    between atoms: N_4  and  C_17
REMARK    3  A    between atoms: C_6  and  C_11
REMARK    4  A    between atoms: C_10  and  C_12
REMARK                            x       y       z     vdW  Elec       q    Type
REMARK                         _______ _______ _______ _____ _____    ______ ____
ROOT
ATOM      1  N   UNL     1      -4.572 -11.475  16.810  0.00  0.00    -0.295 NA
ATOM      6  C   UNL     1      -6.180 -10.346  18.091  0.00  0.00    +0.070 C 
ATOM      7  C   UNL     1      -5.939 -10.962  16.706  0.00  0.00    +0.096 C 
ATOM      8  C   UNL     1      -5.212 -11.097  19.024  0.00  0.00    +0.028 C 
ATOM      9  C   UNL     1      -4.505 -12.106  18.129  0.00  0.00    +0.085 C 
ENDROOT
BRANCH   6  11
ATOM      2  N   UNL     1      -8.575  -9.627  17.885  0.00  0.00    -0.342 N 
ATOM      3  N   UNL     1      -8.148 -11.122  19.474  0.00  0.00    -0.232 NA
ATOM     11  C   UNL     1      -7.630 -10.391  18.512  0.00  0.00    +0.113 A 
ATOM     13  C   UNL     1      -9.783  -9.882  18.483  0.00  0.00    +0.066 A 
ATOM     14  C   UNL     1      -9.490 -10.818  19.471  0.00  0.00    +0.089 A 
ATOM     18  C   UNL     1     -11.067  -9.390  18.251  0.00  0.00    +0.028 A 
ATOM     19  C   UNL     1     -10.527 -11.302  20.285  0.00  0.00    +0.030 A 
ATOM     22  C   UNL     1     -12.088  -9.881  19.070  0.00  0.00    +0.002 A 
ATOM     23  C   UNL     1     -11.826 -10.821  20.070  0.00  0.00    +0.002 A 
ATOM     26  H   UNL     1      -8.416  -8.988  17.118  0.00  0.00    +0.167 HD
ENDBRANCH   6  11
BRANCH   1  10
ATOM     10  C   UNL     1      -4.242 -12.400  15.736  0.00  0.00    +0.158 C 
BRANCH  10  12
ATOM      4  N   UNL     1      -2.633 -11.245  14.185  0.00  0.00    -0.330 N 
ATOM      5  N   UNL     1      -4.740 -11.389  13.489  0.00  0.00    -0.231 NA
ATOM     12  C   UNL     1      -3.900 -11.679  14.459  0.00  0.00    +0.125 A 
ATOM     15  C   UNL     1      -2.656 -10.635  12.957  0.00  0.00    +0.069 A 
ATOM     16  C   UNL     1      -3.981 -10.738  12.545  0.00  0.00    +0.089 A 
ATOM     17  C   UNL     1      -1.474 -11.400  15.035  0.00  0.00    +0.150 C 
ATOM     20  C   UNL     1      -1.661 -10.020  12.195  0.00  0.00    +0.028 A 
ATOM     21  C   UNL     1      -4.355 -10.201  11.300  0.00  0.00    +0.030 A 
ATOM     24  C   UNL     1      -2.051  -9.492  10.961  0.00  0.00    +0.002 A 
ATOM     25  C   UNL     1      -3.373  -9.580  10.518  0.00  0.00    +0.002 A 
ENDBRANCH  10  12
ENDBRANCH   1  10
TORSDOF 3
ENDMDL
MODEL 8
REMARK VINA RESULT:      -6.7     31.999     36.487
REMARK  Name = 51137122
REMARK  4 active torsions:
REMARK  status: ('A' for Active; 'I' for Inactive)
REMARK    1  A    between atoms: N_1  and  C_10
REMARK    2  A    between atoms: N_4  and  C_17
REMARK    3  A    between atoms: C_6  and  C_11
REMARK    4  A    between atoms: C_10  and  C_12
REMARK                            x       y       z     vdW  Elec       q    Type
REMARK                         _______ _______ _______ _____ _____    ______ ____
ROOT
ATOM      1  N   UNL     1      11.200   5.149   2.798  0.00  0.00    -0.295 NA
ATOM      6  C   UNL     1      11.987   3.849   1.012  0.00  0.00    +0.070 C 
ATOM      7  C   UNL     1      10.699   4.377   1.659  0.00  0.00    +0.096 C 
ATOM      8  C   UNL     1      13.076   4.849   1.441  0.00  0.00    +0.028 C 
ATOM      9  C   UNL     1      12.346   5.894   2.275  0.00  0.00    +0.085 C 
ENDROOT
BRANCH   6  11
ATOM      2  N   UNL     1      10.682   3.898  -1.130  0.00  0.00    -0.342 N 
ATOM      3  N   UNL     1      12.799   3.242  -1.304  0.00  0.00    -0.232 NA
ATOM     11  C   UNL     1      11.859   3.651  -0.480  0.00  0.00    +0.113 A 
ATOM     13  C   UNL     1      10.874   3.631  -2.461  0.00  0.00    +0.066 A 
ATOM     14  C   UNL     1      12.203   3.223  -2.544  0.00  0.00    +0.089 A 
ATOM     18  C   UNL     1      10.027   3.709  -3.567  0.00  0.00    +0.028 A 
ATOM     19  C   UNL     1      12.734   2.868  -3.795  0.00  0.00    +0.030 A 
ATOM     22  C   UNL     1      10.571   3.351  -4.804  0.00  0.00    +0.002 A 
ATOM     23  C   UNL     1      11.901   2.938  -4.919  0.00  0.00    +0.002 A 
ATOM     26  H   UNL     1       9.821   4.221  -0.709  0.00  0.00    +0.167 HD
ENDBRANCH   6  11
BRANCH   1  10
ATOM     10  C   UNL     1      10.184   6.023   3.365  0.00  0.00    +0.158 C 
BRANCH  10  12
ATOM      4  N   UNL     1       9.563   6.730   5.698  0.00  0.00    -0.330 N 
ATOM      5  N   UNL     1      10.125   4.596   5.433  0.00  0.00    -0.231 NA
ATOM     12  C   UNL     1       9.965   5.753   4.831  0.00  0.00    +0.125 A 
ATOM     15  C   UNL     1       9.457   6.166   6.943  0.00  0.00    +0.069 A 
ATOM     16  C   UNL     1       9.813   4.834   6.751  0.00  0.00    +0.089 A 
ATOM     17  C   UNL     1       9.296   8.111   5.366  0.00  0.00    +0.150 C 
ATOM     20  C   UNL     1       9.090   6.690   8.184  0.00  0.00    +0.028 A 
ATOM     21  C   UNL     1       9.810   3.959   7.851  0.00  0.00    +0.030 A 
ATOM     24  C   UNL     1       9.093   5.805   9.267  0.00  0.00    +0.002 A 
ATOM     25  C   UNL     1       9.446   4.463   9.106  0.00  0.00    +0.002 A 
ENDBRANCH  10  12
ENDBRANCH   1  10
TORSDOF 3
ENDMDL
MODEL 9
REMARK VINA RESULT:      -6.7     21.407     25.411
REMARK  Name = 51137122
REMARK  4 active torsions:
REMARK  status: ('A' for Active; 'I' for Inactive)
REMARK    1  A    between atoms: N_1  and  C_10
REMARK    2  A    between atoms: N_4  and  C_17
REMARK    3  A    between atoms: C_6  and  C_11
REMARK    4  A    between atoms: C_10  and  C_12
REMARK                            x       y       z     vdW  Elec       q    Type
REMARK                         _______ _______ _______ _____ _____    ______ ____
ROOT
ATOM      1  N   UNL     1      17.369   6.517  20.476  0.00  0.00    -0.295 NA
ATOM      6  C   UNL     1      19.520   6.315  21.388  0.00  0.00    +0.070 C 
ATOM      7  C   UNL     1      18.627   5.803  20.250  0.00  0.00    +0.096 C 
ATOM      8  C   UNL     1      18.931   7.688  21.756  0.00  0.00    +0.028 C 
ATOM      9  C   UNL     1      17.766   7.889  20.796  0.00  0.00    +0.085 C 
ENDROOT
BRANCH   6  11
ATOM      2  N   UNL     1      21.683   5.168  20.836  0.00  0.00    -0.342 N 
ATOM      3  N   UNL     1      21.744   7.390  20.854  0.00  0.00    -0.232 NA
ATOM     11  C   UNL     1      20.987   6.330  21.026  0.00  0.00    +0.113 A 
ATOM     13  C   UNL     1      22.975   5.502  20.521  0.00  0.00    +0.066 A 
ATOM     14  C   UNL     1      22.988   6.894  20.538  0.00  0.00    +0.089 A 
ATOM     18  C   UNL     1      24.099   4.729  20.231  0.00  0.00    +0.028 A 
ATOM     19  C   UNL     1      24.184   7.571  20.252  0.00  0.00    +0.030 A 
ATOM     22  C   UNL     1      25.283   5.419  19.949  0.00  0.00    +0.002 A 
ATOM     23  C   UNL     1      25.327   6.816  19.958  0.00  0.00    +0.002 A 
ATOM     26  H   UNL     1      21.314   4.230  20.913  0.00  0.00    +0.167 HD
ENDBRANCH   6  11
BRANCH   1  10
ATOM     10  C   UNL     1      16.479   6.452  19.326  0.00  0.00    +0.158 C 
BRANCH  10  12
ATOM      4  N   UNL     1      14.240   7.432  18.731  0.00  0.00    -0.330 N 
ATOM      5  N   UNL     1      14.529   6.857  20.859  0.00  0.00    -0.231 NA
ATOM     12  C   UNL     1      15.085   6.907  19.669  0.00  0.00    +0.125 A 
ATOM     15  C   UNL     1      13.060   7.742  19.358  0.00  0.00    +0.069 A 
ATOM     16  C   UNL     1      13.266   7.374  20.684  0.00  0.00    +0.089 A 
ATOM     17  C   UNL     1      14.533   7.626  17.329  0.00  0.00    +0.150 C 
ATOM     20  C   UNL     1      11.867   8.295  18.892  0.00  0.00    +0.028 A 
ATOM     21  C   UNL     1      12.231   7.563  21.616  0.00  0.00    +0.030 A 
ATOM     24  C   UNL     1      10.848   8.477  19.833  0.00  0.00    +0.002 A 
ATOM     25  C   UNL     1      11.024   8.117  21.171  0.00  0.00    +0.002 A 
ENDBRANCH  10  12
ENDBRANCH   1  10
TORSDOF 3
ENDMDL
MODEL 10
REMARK VINA RESULT:      -6.5     29.158     31.377
REMARK  Name = 51137122
REMARK  4 active torsions:
REMARK  status: ('A' for Active; 'I' for Inactive)
REMARK    1  A    between atoms: N_1  and  C_10
REMARK    2  A    between atoms: N_4  and  C_17
REMARK    3  A    between atoms: C_6  and  C_11
REMARK    4  A    between atoms: C_10  and  C_12
REMARK                            x       y       z     vdW  Elec       q    Type
REMARK                         _______ _______ _______ _____ _____    ______ ____
ROOT
ATOM      1  N   UNL     1      -4.946 -11.209  16.418  0.00  0.00    -0.295 NA
ATOM      6  C   UNL     1      -6.607 -10.861  18.035  0.00  0.00    +0.070 C 
ATOM      7  C   UNL     1      -6.356 -11.511  16.667  0.00  0.00    +0.096 C 
ATOM      8  C   UNL     1      -5.221 -10.809  18.701  0.00  0.00    +0.028 C 
ATOM      9  C   UNL     1      -4.275 -11.452  17.695  0.00  0.00    +0.085 C 
ENDROOT
BRANCH   6  11
ATOM      2  N   UNL     1      -7.435 -12.792  19.406  0.00  0.00    -0.342 N 
ATOM      3  N   UNL     1      -8.890 -11.142  19.085  0.00  0.00    -0.232 NA
ATOM     11  C   UNL     1      -7.672 -11.572  18.838  0.00  0.00    +0.113 A 
ATOM     13  C   UNL     1      -8.576 -13.177  20.063  0.00  0.00    +0.066 A 
ATOM     14  C   UNL     1      -9.469 -12.130  19.848  0.00  0.00    +0.089 A 
ATOM     18  C   UNL     1      -8.894 -14.315  20.804  0.00  0.00    +0.028 A 
ATOM     19  C   UNL     1     -10.759 -12.207  20.397  0.00  0.00    +0.030 A 
ATOM     22  C   UNL     1     -10.183 -14.375  21.344  0.00  0.00    +0.002 A 
ATOM     23  C   UNL     1     -11.101 -13.341  21.145  0.00  0.00    +0.002 A 
ATOM     26  H   UNL     1      -6.575 -13.321  19.354  0.00  0.00    +0.167 HD
ENDBRANCH   6  11
BRANCH   1  10
ATOM     10  C   UNL     1      -4.389 -12.012  15.339  0.00  0.00    +0.158 C 
BRANCH  10  12
ATOM      4  N   UNL     1      -3.151 -11.215  13.299  0.00  0.00    -0.330 N 
ATOM      5  N   UNL     1      -5.249 -10.510  13.516  0.00  0.00    -0.231 NA
ATOM     12  C   UNL     1      -4.291 -11.234  14.053  0.00  0.00    +0.125 A 
ATOM     15  C   UNL     1      -3.388 -10.425  12.203  0.00  0.00    +0.069 A 
ATOM     16  C   UNL     1      -4.703  -9.997  12.362  0.00  0.00    +0.089 A 
ATOM     17  C   UNL     1      -1.916 -11.902  13.599  0.00  0.00    +0.150 C 
ATOM     20  C   UNL     1      -2.588 -10.059  11.119  0.00  0.00    +0.028 A 
ATOM     21  C   UNL     1      -5.271  -9.154  11.392  0.00  0.00    +0.030 A 
ATOM     24  C   UNL     1      -3.170  -9.219  10.164  0.00  0.00    +0.002 A 
ATOM     25  C   UNL     1      -4.487  -8.774  10.295  0.00  0.00    +0.002 A 
ENDBRANCH  10  12
ENDBRANCH   1  10
TORSDOF 3
ENDMDL
