REMARK  Name = 7143792
REMARK  3 active torsions:
REMARK  status: ('A' for Active; 'I' for Inactive)
REMARK    1  A    between atoms: N_6  and  C_21
REMARK    2  A    between atoms: C_18  and  C_20
REMARK    3  A    between atoms: C_27  and  C_30
REMARK                            x       y       z     vdW  Elec       q    Type
REMARK                         _______ _______ _______ _____ _____    ______ ____
ROOT
ATOM      2  O   UNL     1       2.019   0.474  -2.048  0.00  0.00    -0.267 OA
ATOM      3  O   UNL     1      -1.793  -1.329   1.924  0.00  0.00    -0.252 OA
ATOM      4  N   UNL     1      -0.773  -2.834   0.493  0.00  0.00    -0.284 N 
ATOM      5  N   UNL     1       1.830  -1.327  -0.579  0.00  0.00    -0.311 N 
ATOM      6  N   UNL     1      -2.584  -1.516  -0.248  0.00  0.00    -0.269 N 
ATOM      8  C   UNL     1       0.835  -3.578  -1.279  0.00  0.00    +0.027 C 
ATOM      9  C   UNL     1       1.621  -3.257   1.026  0.00  0.00    +0.054 C 
ATOM     10  C   UNL     1       1.736  -4.161  -0.199  0.00  0.00    +0.018 C 
ATOM     11  C   UNL     1      -0.631  -3.513  -0.805  0.00  0.00    +0.114 C 
ATOM     12  C   UNL     1       1.370  -2.195  -1.671  0.00  0.00    +0.130 C 
ATOM     13  C   UNL     1       0.168  -3.273   1.530  0.00  0.00    +0.119 C 
ATOM     14  C   UNL     1       2.039  -1.834   0.706  0.00  0.00    +0.027 A 
ATOM     15  C   UNL     1       2.575  -1.056   1.659  0.00  0.00    +0.022 A 
ATOM     16  C   UNL     1       2.153   0.002  -0.918  0.00  0.00    +0.260 A 
ATOM     17  C   UNL     1      -1.727  -1.840   0.803  0.00  0.00    +0.306 C 
ATOM     18  C   UNL     1       2.713   0.863   0.182  0.00  0.00    +0.053 A 
ATOM     19  C   UNL     1       2.910   0.314   1.390  0.00  0.00    +0.016 A 
ATOM     31  H   UNL     1      -2.778  -2.226  -0.945  0.00  0.00    +0.156 HD
ENDROOT
BRANCH   6  21
ATOM     21  C   UNL     1      -3.275  -0.295  -0.444  0.00  0.00    +0.036 A 
ATOM     24  C   UNL     1      -3.057   0.772   0.424  0.00  0.00    +0.042 A 
ATOM     25  C   UNL     1      -4.170  -0.169  -1.504  0.00  0.00    +0.023 A 
ATOM     27  C   UNL     1      -3.739   1.973   0.231  0.00  0.00    +0.054 A 
ATOM     28  C   UNL     1      -4.851   1.033  -1.697  0.00  0.00    +0.003 A 
ATOM     29  C   UNL     1      -4.636   2.104  -0.830  0.00  0.00    +0.019 A 
BRANCH  27  30
ATOM      7  N   UNL     1      -3.340   3.963   1.841  0.00  0.00    -0.191 NA
ATOM     30  C   UNL     1      -3.519   3.071   1.119  0.00  0.00    +0.099 C 
ENDBRANCH  27  30
ENDBRANCH   6  21
BRANCH  18  20
ATOM      1  S   UNL     1       1.830   3.477   0.217  0.00  0.00    -0.096 S 
ATOM     20  C   UNL     1       3.033   2.282  -0.048  0.00  0.00    +0.024 A 
ATOM     22  C   UNL     1       4.223   2.845  -0.470  0.00  0.00    +0.016 A 
ATOM     23  C   UNL     1       4.144   4.264  -0.575  0.00  0.00    +0.008 A 
ATOM     26  C   UNL     1       2.897   4.739  -0.231  0.00  0.00    +0.046 A 
ENDBRANCH  18  20
TORSDOF 3
