MODEL 1
REMARK VINA RESULT:      -6.9      0.000      0.000
REMARK  Name = 24121228
REMARK  12 active torsions:
REMARK  status: ('A' for Active; 'I' for Inactive)
REMARK    1  A    between atoms: O_2  and  C_15
REMARK    2  A    between atoms: O_2  and  C_24
REMARK    3  A    between atoms: O_3  and  C_16
REMARK    4  A    between atoms: O_4  and  C_20
REMARK    5  A    between atoms: N_7  and  C_26
REMARK    6  A    between atoms: N_8  and  C_25
REMARK    7  A    between atoms: C_9  and  C_19
REMARK    8  A    between atoms: C_11  and  C_20
REMARK    9  A    between atoms: C_11  and  C_21
REMARK   10  A    between atoms: C_12  and  C_22
REMARK   11  A    between atoms: C_22  and  C_23
REMARK   12  A    between atoms: C_26  and  C_32
REMARK                            x       y       z     vdW  Elec       q    Type
REMARK                         _______ _______ _______ _____ _____    ______ ____
ROOT
ATOM      9  C   UNL     1      -6.059 -10.145  10.863  0.00  0.00    -0.023 C 
ATOM     10  C   UNL     1      -4.506 -10.208  10.593  0.00  0.00    +0.007 C 
ATOM     11  C   UNL     1      -3.625 -10.919  11.689  0.00  0.00    +0.031 C 
ATOM     12  C   UNL     1      -6.670  -9.126   9.813  0.00  0.00    +0.032 C 
ATOM     13  C   UNL     1      -6.286  -9.597  12.297  0.00  0.00    +0.011 C 
ATOM     14  C   UNL     1      -4.216 -10.656   9.143  0.00  0.00    +0.007 C 
ATOM     15  C   UNL     1      -4.000 -10.343  13.088  0.00  0.00    +0.186 C 
ATOM     16  C   UNL     1      -6.334  -9.479   8.346  0.00  0.00    +0.119 C 
ATOM     17  C   UNL     1      -5.499 -10.341  13.371  0.00  0.00    +0.046 C 
ATOM     18  C   UNL     1      -4.839  -9.694   8.129  0.00  0.00    +0.032 C 
ATOM     19  C   UNL     1      -6.762 -11.520  10.757  0.00  0.00    +0.012 C 
ATOM     21  C   UNL     1      -2.127 -10.584  11.435  0.00  0.00    +0.017 C 
ENDROOT
BRANCH  16   3
ATOM      3  O   UNL     1      -7.053 -10.631   7.923  0.00  0.00    -0.391 OA
ATOM     36  H   UNL     1      -7.555 -10.391   7.125  0.00  0.00    +0.210 HD
ENDBRANCH  16   3
BRANCH  15   2
ATOM      2  O   UNL     1      -3.376 -11.071  14.147  0.00  0.00    -0.446 OA
BRANCH   2  24
ATOM      6  O   UNL     1      -1.420  -9.905  14.442  0.00  0.00    -0.226 OA
ATOM      8  N   UNL     1      -2.878 -10.307  16.201  0.00  0.00    -0.278 N 
ATOM     24  C   UNL     1      -2.458 -10.381  14.890  0.00  0.00    +0.401 C 
ATOM     39  H   UNL     1      -2.260  -9.855  16.870  0.00  0.00    +0.152 HD
BRANCH   8  25
ATOM     25  C   UNL     1      -4.108 -10.885  16.682  0.00  0.00    +0.076 C 
ATOM     27  C   UNL     1      -3.884 -11.615  18.009  0.00  0.00    +0.022 C 
ATOM     28  C   UNL     1      -5.191  -9.810  16.815  0.00  0.00    +0.022 C 
ATOM     29  C   UNL     1      -5.185 -12.189  18.563  0.00  0.00    +0.002 C 
ATOM     30  C   UNL     1      -6.490 -10.385  17.372  0.00  0.00    +0.002 C 
ATOM     31  C   UNL     1      -6.262 -11.115  18.692  0.00  0.00    +0.000 C 
ENDBRANCH   8  25
ENDBRANCH   2  24
ENDBRANCH  15   2
BRANCH  11  20
ATOM     20  C   UNL     1      -3.717 -12.458  11.671  0.00  0.00    +0.166 C 
BRANCH  20   4
ATOM      4  O   UNL     1      -2.461 -12.973  12.057  0.00  0.00    -0.394 OA
ATOM     37  H   UNL     1      -2.561 -13.935  12.160  0.00  0.00    +0.209 HD
ENDBRANCH  20   4
ENDBRANCH  11  20
BRANCH  12  22
ATOM     22  C   UNL     1      -8.180  -8.877   9.958  0.00  0.00    +0.102 C 
BRANCH  22  23
ATOM      5  O   UNL     1      -7.903  -6.898   8.595  0.00  0.00    -0.276 OA
ATOM      7  N   UNL     1     -10.028  -7.782   8.915  0.00  0.00    -0.311 N 
ATOM     23  C   UNL     1      -8.651  -7.739   9.082  0.00  0.00    +0.214 C 
ATOM     38  H   UNL     1     -10.570  -8.507   9.376  0.00  0.00    +0.149 HD
BRANCH   7  26
ATOM     26  C   UNL     1     -10.757  -6.816   8.127  0.00  0.00    +0.146 C 
BRANCH  26  32
ATOM      1  S   UNL     1     -12.168  -5.864  10.318  0.00  0.00    -0.100 S 
ATOM     32  C   UNL     1     -11.120  -5.641   8.983  0.00  0.00    +0.007 A 
ATOM     33  C   UNL     1     -10.718  -4.330   8.854  0.00  0.00    +0.013 A 
ATOM     34  C   UNL     1     -11.278  -3.497   9.865  0.00  0.00    +0.008 A 
ATOM     35  C   UNL     1     -12.087  -4.203  10.728  0.00  0.00    +0.045 A 
ENDBRANCH  26  32
ENDBRANCH   7  26
ENDBRANCH  22  23
ENDBRANCH  12  22
TORSDOF 10
ENDMDL
MODEL 2
REMARK VINA RESULT:      -6.7     23.636     25.511
REMARK  Name = 24121228
REMARK  12 active torsions:
REMARK  status: ('A' for Active; 'I' for Inactive)
REMARK    1  A    between atoms: O_2  and  C_15
REMARK    2  A    between atoms: O_2  and  C_24
REMARK    3  A    between atoms: O_3  and  C_16
REMARK    4  A    between atoms: O_4  and  C_20
REMARK    5  A    between atoms: N_7  and  C_26
REMARK    6  A    between atoms: N_8  and  C_25
REMARK    7  A    between atoms: C_9  and  C_19
REMARK    8  A    between atoms: C_11  and  C_20
REMARK    9  A    between atoms: C_11  and  C_21
REMARK   10  A    between atoms: C_12  and  C_22
REMARK   11  A    between atoms: C_22  and  C_23
REMARK   12  A    between atoms: C_26  and  C_32
REMARK                            x       y       z     vdW  Elec       q    Type
REMARK                         _______ _______ _______ _____ _____    ______ ____
ROOT
ATOM      9  C   UNL     1       9.037   8.465   3.240  0.00  0.00    -0.023 C 
ATOM     10  C   UNL     1       9.343   6.948   3.546  0.00  0.00    +0.007 C 
ATOM     11  C   UNL     1      10.353   6.220   2.579  0.00  0.00    +0.031 C 
ATOM     12  C   UNL     1       7.785   8.872   4.122  0.00  0.00    +0.032 C 
ATOM     13  C   UNL     1       8.668   8.598   1.738  0.00  0.00    +0.011 C 
ATOM     14  C   UNL     1       9.625   6.736   5.051  0.00  0.00    +0.007 C 
ATOM     15  C   UNL     1       9.924   6.493   1.105  0.00  0.00    +0.186 C 
ATOM     16  C   UNL     1       7.980   8.596   5.631  0.00  0.00    +0.119 C 
ATOM     17  C   UNL     1       9.688   7.968   0.796  0.00  0.00    +0.046 C 
ATOM     18  C   UNL     1       8.432   7.165   5.905  0.00  0.00    +0.032 C 
ATOM     19  C   UNL     1      10.231   9.408   3.525  0.00  0.00    +0.012 C 
ATOM     21  C   UNL     1      10.264   4.684   2.813  0.00  0.00    +0.017 C 
ENDROOT
BRANCH  16   3
ATOM      3  O   UNL     1       8.909   9.512   6.199  0.00  0.00    -0.391 OA
ATOM     36  H   UNL     1       8.632  10.410   5.948  0.00  0.00    +0.210 HD
ENDBRANCH  16   3
BRANCH  15   2
ATOM      2  O   UNL     1      10.897   6.020   0.173  0.00  0.00    -0.446 OA
BRANCH   2  24
ATOM      6  O   UNL     1       9.442   4.703  -1.020  0.00  0.00    -0.226 OA
ATOM      8  N   UNL     1      11.634   4.054  -0.631  0.00  0.00    -0.278 N 
ATOM     24  C   UNL     1      10.552   4.904  -0.540  0.00  0.00    +0.401 C 
ATOM     39  H   UNL     1      11.497   3.163  -1.100  0.00  0.00    +0.152 HD
BRANCH   8  25
ATOM     25  C   UNL     1      12.923   4.333  -0.047  0.00  0.00    +0.076 C 
ATOM     27  C   UNL     1      13.242   3.334   1.069  0.00  0.00    +0.022 C 
ATOM     28  C   UNL     1      14.013   4.331  -1.124  0.00  0.00    +0.022 C 
ATOM     29  C   UNL     1      14.626   3.578   1.664  0.00  0.00    +0.002 C 
ATOM     30  C   UNL     1      15.395   4.573  -0.526  0.00  0.00    +0.002 C 
ATOM     31  C   UNL     1      15.709   3.578   0.588  0.00  0.00    +0.000 C 
ENDBRANCH   8  25
ENDBRANCH   2  24
ENDBRANCH  15   2
BRANCH  11  20
ATOM     20  C   UNL     1      11.830   6.593   2.813  0.00  0.00    +0.166 C 
BRANCH  20   4
ATOM      4  O   UNL     1      12.418   5.571   3.589  0.00  0.00    -0.394 OA
ATOM     37  H   UNL     1      13.086   5.988   4.159  0.00  0.00    +0.209 HD
ENDBRANCH  20   4
ENDBRANCH  11  20
BRANCH  12  22
ATOM     22  C   UNL     1       7.287  10.311   3.914  0.00  0.00    +0.102 C 
BRANCH  22  23
ATOM      5  O   UNL     1       5.004  10.705   4.608  0.00  0.00    -0.276 OA
ATOM      7  N   UNL     1       5.437   9.994   2.439  0.00  0.00    -0.311 N 
ATOM     23  C   UNL     1       5.789  10.370   3.727  0.00  0.00    +0.214 C 
ATOM     38  H   UNL     1       6.157   9.711   1.781  0.00  0.00    +0.149 HD
BRANCH   7  26
ATOM     26  C   UNL     1       4.069   9.953   1.975  0.00  0.00    +0.146 C 
BRANCH  26  32
ATOM      1  S   UNL     1       2.754  10.508  -0.404  0.00  0.00    -0.100 S 
ATOM     32  C   UNL     1       4.049   9.825   0.482  0.00  0.00    +0.007 A 
ATOM     33  C   UNL     1       4.966   9.203  -0.337  0.00  0.00    +0.013 A 
ATOM     34  C   UNL     1       4.599   9.290  -1.711  0.00  0.00    +0.008 A 
ATOM     35  C   UNL     1       3.418   9.974  -1.890  0.00  0.00    +0.045 A 
ENDBRANCH  26  32
ENDBRANCH   7  26
ENDBRANCH  22  23
ENDBRANCH  12  22
TORSDOF 10
ENDMDL
MODEL 3
REMARK VINA RESULT:      -6.5     20.567     23.825
REMARK  Name = 24121228
REMARK  12 active torsions:
REMARK  status: ('A' for Active; 'I' for Inactive)
REMARK    1  A    between atoms: O_2  and  C_15
REMARK    2  A    between atoms: O_2  and  C_24
REMARK    3  A    between atoms: O_3  and  C_16
REMARK    4  A    between atoms: O_4  and  C_20
REMARK    5  A    between atoms: N_7  and  C_26
REMARK    6  A    between atoms: N_8  and  C_25
REMARK    7  A    between atoms: C_9  and  C_19
REMARK    8  A    between atoms: C_11  and  C_20
REMARK    9  A    between atoms: C_11  and  C_21
REMARK   10  A    between atoms: C_12  and  C_22
REMARK   11  A    between atoms: C_22  and  C_23
REMARK   12  A    between atoms: C_26  and  C_32
REMARK                            x       y       z     vdW  Elec       q    Type
REMARK                         _______ _______ _______ _____ _____    ______ ____
ROOT
ATOM      9  C   UNL     1     -11.556  10.324  19.103  0.00  0.00    -0.023 C 
ATOM     10  C   UNL     1     -12.312   9.879  17.792  0.00  0.00    +0.007 C 
ATOM     11  C   UNL     1     -11.623  10.238  16.421  0.00  0.00    +0.031 C 
ATOM     12  C   UNL     1     -12.573  10.149  20.306  0.00  0.00    +0.032 C 
ATOM     13  C   UNL     1     -11.179  11.823  18.968  0.00  0.00    +0.011 C 
ATOM     14  C   UNL     1     -12.800   8.417  17.906  0.00  0.00    +0.007 C 
ATOM     15  C   UNL     1     -11.220  11.743  16.438  0.00  0.00    +0.186 C 
ATOM     16  C   UNL     1     -13.161   8.723  20.412  0.00  0.00    +0.119 C 
ATOM     17  C   UNL     1     -10.435  12.156  17.679  0.00  0.00    +0.046 C 
ATOM     18  C   UNL     1     -13.751   8.239  19.090  0.00  0.00    +0.032 C 
ATOM     19  C   UNL     1     -10.257   9.525  19.370  0.00  0.00    +0.012 C 
ATOM     21  C   UNL     1     -12.650  10.044  15.268  0.00  0.00    +0.017 C 
ENDROOT
BRANCH  16   3
ATOM      3  O   UNL     1     -12.179   7.800  20.868  0.00  0.00    -0.391 OA
ATOM     36  H   UNL     1     -11.887   8.089  21.749  0.00  0.00    +0.210 HD
ENDBRANCH  16   3
BRANCH  15   2
ATOM      2  O   UNL     1     -10.425  12.093  15.304  0.00  0.00    -0.446 OA
BRANCH   2  24
ATOM      6  O   UNL     1     -11.857  13.553  14.260  0.00  0.00    -0.226 OA
ATOM      8  N   UNL     1      -9.629  14.085  14.630  0.00  0.00    -0.278 N 
ATOM     24  C   UNL     1     -10.743  13.273  14.690  0.00  0.00    +0.401 C 
ATOM     39  H   UNL     1      -9.721  14.978  14.154  0.00  0.00    +0.152 HD
BRANCH   8  25
ATOM     25  C   UNL     1      -8.337  13.710  15.149  0.00  0.00    +0.076 C 
ATOM     27  C   UNL     1      -7.236  13.996  14.124  0.00  0.00    +0.022 C 
ATOM     28  C   UNL     1      -8.062  14.427  16.475  0.00  0.00    +0.022 C 
ATOM     29  C   UNL     1      -5.853  13.657  14.673  0.00  0.00    +0.002 C 
ATOM     30  C   UNL     1      -6.678  14.089  17.021  0.00  0.00    +0.002 C 
ATOM     31  C   UNL     1      -5.584  14.370  15.995  0.00  0.00    +0.000 C 
ENDBRANCH   8  25
ENDBRANCH   2  24
ENDBRANCH  15   2
BRANCH  11  20
ATOM     20  C   UNL     1     -10.422   9.338  16.065  0.00  0.00    +0.166 C 
BRANCH  20   4
ATOM      4  O   UNL     1     -10.423   9.145  14.667  0.00  0.00    -0.394 OA
ATOM     37  H   UNL     1      -9.907   8.342  14.485  0.00  0.00    +0.209 HD
ENDBRANCH  20   4
ENDBRANCH  11  20
BRANCH  12  22
ATOM     22  C   UNL     1     -12.038  10.596  21.676  0.00  0.00    +0.102 C 
BRANCH  22  23
ATOM      5  O   UNL     1     -14.226  11.372  22.357  0.00  0.00    -0.276 OA
ATOM      7  N   UNL     1     -12.796  10.440  23.935  0.00  0.00    -0.311 N 
ATOM     23  C   UNL     1     -13.154  10.857  22.660  0.00  0.00    +0.214 C 
ATOM     38  H   UNL     1     -11.876  10.042  24.096  0.00  0.00    +0.149 HD
BRANCH   7  26
ATOM     26  C   UNL     1     -13.667  10.568  25.080  0.00  0.00    +0.146 C 
BRANCH  26  32
ATOM      1  S   UNL     1     -13.632  10.666  27.853  0.00  0.00    -0.100 S 
ATOM     32  C   UNL     1     -12.861  10.460  26.338  0.00  0.00    +0.007 A 
ATOM     33  C   UNL     1     -11.513  10.207  26.474  0.00  0.00    +0.013 A 
ATOM     34  C   UNL     1     -11.109  10.181  27.839  0.00  0.00    +0.008 A 
ATOM     35  C   UNL     1     -12.162  10.416  28.696  0.00  0.00    +0.045 A 
ENDBRANCH  26  32
ENDBRANCH   7  26
ENDBRANCH  22  23
ENDBRANCH  12  22
TORSDOF 10
ENDMDL
MODEL 4
REMARK VINA RESULT:      -6.4     23.752     26.689
REMARK  Name = 24121228
REMARK  12 active torsions:
REMARK  status: ('A' for Active; 'I' for Inactive)
REMARK    1  A    between atoms: O_2  and  C_15
REMARK    2  A    between atoms: O_2  and  C_24
REMARK    3  A    between atoms: O_3  and  C_16
REMARK    4  A    between atoms: O_4  and  C_20
REMARK    5  A    between atoms: N_7  and  C_26
REMARK    6  A    between atoms: N_8  and  C_25
REMARK    7  A    between atoms: C_9  and  C_19
REMARK    8  A    between atoms: C_11  and  C_20
REMARK    9  A    between atoms: C_11  and  C_21
REMARK   10  A    between atoms: C_12  and  C_22
REMARK   11  A    between atoms: C_22  and  C_23
REMARK   12  A    between atoms: C_26  and  C_32
REMARK                            x       y       z     vdW  Elec       q    Type
REMARK                         _______ _______ _______ _____ _____    ______ ____
ROOT
ATOM      9  C   UNL     1      11.443   5.009   0.175  0.00  0.00    -0.023 C 
ATOM     10  C   UNL     1      12.048   3.724  -0.510  0.00  0.00    +0.007 C 
ATOM     11  C   UNL     1      11.910   3.625  -2.077  0.00  0.00    +0.031 C 
ATOM     12  C   UNL     1      11.414   4.733   1.735  0.00  0.00    +0.032 C 
ATOM     13  C   UNL     1       9.990   5.201  -0.337  0.00  0.00    +0.011 C 
ATOM     14  C   UNL     1      13.464   3.425   0.033  0.00  0.00    +0.007 C 
ATOM     15  C   UNL     1      10.430   3.913  -2.472  0.00  0.00    +0.186 C 
ATOM     16  C   UNL     1      12.792   4.340   2.316  0.00  0.00    +0.119 C 
ATOM     17  C   UNL     1       9.868   5.190  -1.857  0.00  0.00    +0.046 C 
ATOM     18  C   UNL     1      13.442   3.196   1.545  0.00  0.00    +0.032 C 
ATOM     19  C   UNL     1      12.234   6.304  -0.132  0.00  0.00    +0.012 C 
ATOM     21  C   UNL     1      12.237   2.171  -2.526  0.00  0.00    +0.017 C 
ENDROOT
BRANCH  16   3
ATOM      3  O   UNL     1      13.669   5.461   2.346  0.00  0.00    -0.391 OA
ATOM     36  H   UNL     1      14.564   5.131   2.531  0.00  0.00    +0.210 HD
ENDBRANCH  16   3
BRANCH  15   2
ATOM      2  O   UNL     1      10.271   4.024  -3.887  0.00  0.00    -0.446 OA
BRANCH   2  24
ATOM      6  O   UNL     1       9.357   1.978  -4.389  0.00  0.00    -0.226 OA
ATOM      8  N   UNL     1       8.372   3.958  -5.089  0.00  0.00    -0.278 N 
ATOM     24  C   UNL     1       9.333   3.202  -4.451  0.00  0.00    +0.401 C 
ATOM     39  H   UNL     1       7.639   3.463  -5.590  0.00  0.00    +0.152 HD
BRANCH   8  25
ATOM     25  C   UNL     1       8.387   5.399  -5.136  0.00  0.00    +0.076 C 
ATOM     27  C   UNL     1       8.367   5.896  -6.584  0.00  0.00    +0.022 C 
ATOM     28  C   UNL     1       7.215   5.975  -4.334  0.00  0.00    +0.022 C 
ATOM     29  C   UNL     1       8.328   7.420  -6.656  0.00  0.00    +0.002 C 
ATOM     30  C   UNL     1       7.176   7.498  -4.409  0.00  0.00    +0.002 C 
ATOM     31  C   UNL     1       7.161   7.990  -5.854  0.00  0.00    +0.000 C 
ENDBRANCH   8  25
ENDBRANCH   2  24
ENDBRANCH  15   2
BRANCH  11  20
ATOM     20  C   UNL     1      12.887   4.530  -2.854  0.00  0.00    +0.166 C 
BRANCH  20   4
ATOM      4  O   UNL     1      13.444   3.768  -3.903  0.00  0.00    -0.394 OA
ATOM     37  H   UNL     1      14.375   3.599  -3.676  0.00  0.00    +0.209 HD
ENDBRANCH  20   4
ENDBRANCH  11  20
BRANCH  12  22
ATOM     22  C   UNL     1      10.791   5.856   2.579  0.00  0.00    +0.102 C 
BRANCH  22  23
ATOM      5  O   UNL     1      10.366   4.645   4.630  0.00  0.00    -0.276 OA
ATOM      7  N   UNL     1      11.720   6.534   4.672  0.00  0.00    -0.311 N 
ATOM     23  C   UNL     1      10.914   5.584   4.060  0.00  0.00    +0.214 C 
ATOM     38  H   UNL     1      12.116   7.289   4.122  0.00  0.00    +0.149 HD
BRANCH   7  26
ATOM     26  C   UNL     1      12.014   6.526   6.087  0.00  0.00    +0.146 C 
BRANCH  26  32
ATOM      1  S   UNL     1      10.075   5.941   7.984  0.00  0.00    -0.100 S 
ATOM     32  C   UNL     1      10.812   6.991   6.851  0.00  0.00    +0.007 A 
ATOM     33  C   UNL     1      10.168   8.207   6.778  0.00  0.00    +0.013 A 
ATOM     34  C   UNL     1       9.055   8.276   7.664  0.00  0.00    +0.008 A 
ATOM     35  C   UNL     1       8.891   7.112   8.381  0.00  0.00    +0.045 A 
ENDBRANCH  26  32
ENDBRANCH   7  26
ENDBRANCH  22  23
ENDBRANCH  12  22
TORSDOF 10
ENDMDL
MODEL 5
REMARK VINA RESULT:      -6.4      3.575      7.597
REMARK  Name = 24121228
REMARK  12 active torsions:
REMARK  status: ('A' for Active; 'I' for Inactive)
REMARK    1  A    between atoms: O_2  and  C_15
REMARK    2  A    between atoms: O_2  and  C_24
REMARK    3  A    between atoms: O_3  and  C_16
REMARK    4  A    between atoms: O_4  and  C_20
REMARK    5  A    between atoms: N_7  and  C_26
REMARK    6  A    between atoms: N_8  and  C_25
REMARK    7  A    between atoms: C_9  and  C_19
REMARK    8  A    between atoms: C_11  and  C_20
REMARK    9  A    between atoms: C_11  and  C_21
REMARK   10  A    between atoms: C_12  and  C_22
REMARK   11  A    between atoms: C_22  and  C_23
REMARK   12  A    between atoms: C_26  and  C_32
REMARK                            x       y       z     vdW  Elec       q    Type
REMARK                         _______ _______ _______ _____ _____    ______ ____
ROOT
ATOM      9  C   UNL     1      -4.399 -11.649  15.791  0.00  0.00    -0.023 C 
ATOM     10  C   UNL     1      -4.543 -12.967  14.936  0.00  0.00    +0.007 C 
ATOM     11  C   UNL     1      -3.844 -12.973  13.523  0.00  0.00    +0.031 C 
ATOM     12  C   UNL     1      -5.429 -11.761  16.991  0.00  0.00    +0.032 C 
ATOM     13  C   UNL     1      -4.786 -10.439  14.898  0.00  0.00    +0.011 C 
ATOM     14  C   UNL     1      -4.262 -14.217  15.799  0.00  0.00    +0.007 C 
ATOM     15  C   UNL     1      -4.246 -11.676  12.757  0.00  0.00    +0.186 C 
ATOM     16  C   UNL     1      -5.249 -13.043  17.837  0.00  0.00    +0.119 C 
ATOM     17  C   UNL     1      -4.047 -10.398  13.565  0.00  0.00    +0.046 C 
ATOM     18  C   UNL     1      -5.230 -14.306  16.980  0.00  0.00    +0.032 C 
ATOM     19  C   UNL     1      -2.966 -11.411  16.326  0.00  0.00    +0.012 C 
ATOM     21  C   UNL     1      -4.374 -14.183  12.699  0.00  0.00    +0.017 C 
ENDROOT
BRANCH  16   3
ATOM      3  O   UNL     1      -4.063 -12.975  18.619  0.00  0.00    -0.391 OA
ATOM     36  H   UNL     1      -3.583 -13.812  18.504  0.00  0.00    +0.210 HD
ENDBRANCH  16   3
BRANCH  15   2
ATOM      2  O   UNL     1      -3.504 -11.524  11.545  0.00  0.00    -0.446 OA
BRANCH   2  24
ATOM      6  O   UNL     1      -1.644 -10.251  11.984  0.00  0.00    -0.226 OA
ATOM      8  N   UNL     1      -3.381  -9.459  10.665  0.00  0.00    -0.278 N 
ATOM     24  C   UNL     1      -2.738 -10.395  11.448  0.00  0.00    +0.401 C 
ATOM     39  H   UNL     1      -2.935  -8.553  10.550  0.00  0.00    +0.152 HD
BRANCH   8  25
ATOM     25  C   UNL     1      -4.670  -9.675  10.055  0.00  0.00    +0.076 C 
ATOM     27  C   UNL     1      -5.728  -8.765  10.686  0.00  0.00    +0.022 C 
ATOM     28  C   UNL     1      -4.589  -9.467   8.540  0.00  0.00    +0.022 C 
ATOM     29  C   UNL     1      -7.089  -8.938  10.019  0.00  0.00    +0.002 C 
ATOM     30  C   UNL     1      -5.952  -9.638   7.875  0.00  0.00    +0.002 C 
ATOM     31  C   UNL     1      -7.005  -8.733   8.509  0.00  0.00    +0.000 C 
ENDBRANCH   8  25
ENDBRANCH   2  24
ENDBRANCH  15   2
BRANCH  11  20
ATOM     20  C   UNL     1      -2.313 -13.144  13.577  0.00  0.00    +0.166 C 
BRANCH  20   4
ATOM      4  O   UNL     1      -1.915 -13.857  12.427  0.00  0.00    -0.394 OA
ATOM     37  H   UNL     1      -1.863 -13.220  11.694  0.00  0.00    +0.209 HD
ENDBRANCH  20   4
ENDBRANCH  11  20
BRANCH  12  22
ATOM     22  C   UNL     1      -5.485 -10.532  17.912  0.00  0.00    +0.102 C 
BRANCH  22  23
ATOM      5  O   UNL     1      -6.740 -10.575  19.980  0.00  0.00    -0.276 OA
ATOM      7  N   UNL     1      -7.870 -10.423  17.954  0.00  0.00    -0.311 N 
ATOM     23  C   UNL     1      -6.740 -10.514  18.754  0.00  0.00    +0.214 C 
ATOM     38  H   UNL     1      -7.774 -10.398  16.944  0.00  0.00    +0.149 HD
BRANCH   7  26
ATOM     26  C   UNL     1      -9.212 -10.388  18.488  0.00  0.00    +0.146 C 
BRANCH  26  32
ATOM      1  S   UNL     1     -11.658  -9.615  17.428  0.00  0.00    -0.100 S 
ATOM     32  C   UNL     1     -10.006  -9.333  17.781  0.00  0.00    +0.007 A 
ATOM     33  C   UNL     1      -9.588  -8.095  17.343  0.00  0.00    +0.013 A 
ATOM     34  C   UNL     1     -10.637  -7.370  16.709  0.00  0.00    +0.008 A 
ATOM     35  C   UNL     1     -11.818  -8.079  16.688  0.00  0.00    +0.045 A 
ENDBRANCH  26  32
ENDBRANCH   7  26
ENDBRANCH  22  23
ENDBRANCH  12  22
TORSDOF 10
ENDMDL
MODEL 6
REMARK VINA RESULT:      -6.4     19.424     21.933
REMARK  Name = 24121228
REMARK  12 active torsions:
REMARK  status: ('A' for Active; 'I' for Inactive)
REMARK    1  A    between atoms: O_2  and  C_15
REMARK    2  A    between atoms: O_2  and  C_24
REMARK    3  A    between atoms: O_3  and  C_16
REMARK    4  A    between atoms: O_4  and  C_20
REMARK    5  A    between atoms: N_7  and  C_26
REMARK    6  A    between atoms: N_8  and  C_25
REMARK    7  A    between atoms: C_9  and  C_19
REMARK    8  A    between atoms: C_11  and  C_20
REMARK    9  A    between atoms: C_11  and  C_21
REMARK   10  A    between atoms: C_12  and  C_22
REMARK   11  A    between atoms: C_22  and  C_23
REMARK   12  A    between atoms: C_26  and  C_32
REMARK                            x       y       z     vdW  Elec       q    Type
REMARK                         _______ _______ _______ _____ _____    ______ ____
ROOT
ATOM      9  C   UNL     1     -14.772   6.913  20.912  0.00  0.00    -0.023 C 
ATOM     10  C   UNL     1     -13.289   6.688  20.420  0.00  0.00    +0.007 C 
ATOM     11  C   UNL     1     -12.678   7.798  19.483  0.00  0.00    +0.031 C 
ATOM     12  C   UNL     1     -15.260   5.547  21.551  0.00  0.00    +0.032 C 
ATOM     13  C   UNL     1     -15.654   7.244  19.678  0.00  0.00    +0.011 C 
ATOM     14  C   UNL     1     -12.379   6.261  21.592  0.00  0.00    +0.007 C 
ATOM     15  C   UNL     1     -13.687   8.098  18.333  0.00  0.00    +0.186 C 
ATOM     16  C   UNL     1     -14.332   5.027  22.673  0.00  0.00    +0.119 C 
ATOM     17  C   UNL     1     -15.106   8.376  18.817  0.00  0.00    +0.046 C 
ATOM     18  C   UNL     1     -12.871   4.964  22.235  0.00  0.00    +0.032 C 
ATOM     19  C   UNL     1     -14.917   8.071  21.929  0.00  0.00    +0.012 C 
ATOM     21  C   UNL     1     -11.376   7.252  18.828  0.00  0.00    +0.017 C 
ENDROOT
BRANCH  16   3
ATOM      3  O   UNL     1     -14.449   5.829  23.843  0.00  0.00    -0.391 OA
ATOM     36  H   UNL     1     -13.862   5.452  24.520  0.00  0.00    +0.210 HD
ENDBRANCH  16   3
BRANCH  15   2
ATOM      2  O   UNL     1     -13.283   9.224  17.552  0.00  0.00    -0.446 OA
BRANCH   2  24
ATOM      6  O   UNL     1     -13.646   8.070  15.600  0.00  0.00    -0.226 OA
ATOM      8  N   UNL     1     -12.317   9.971  15.664  0.00  0.00    -0.278 N 
ATOM     24  C   UNL     1     -13.130   9.000  16.211  0.00  0.00    +0.401 C 
ATOM     39  H   UNL     1     -12.086   9.892  14.678  0.00  0.00    +0.152 HD
BRANCH   8  25
ATOM     25  C   UNL     1     -11.731  11.047  16.425  0.00  0.00    +0.076 C 
ATOM     27  C   UNL     1     -10.205  10.922  16.456  0.00  0.00    +0.022 C 
ATOM     28  C   UNL     1     -12.167  12.403  15.862  0.00  0.00    +0.022 C 
ATOM     29  C   UNL     1      -9.561  12.082  17.211  0.00  0.00    +0.002 C 
ATOM     30  C   UNL     1     -11.520  13.560  16.617  0.00  0.00    +0.002 C 
ATOM     31  C   UNL     1     -10.000  13.431  16.650  0.00  0.00    +0.000 C 
ENDBRANCH   8  25
ENDBRANCH   2  24
ENDBRANCH  15   2
BRANCH  11  20
ATOM     20  C   UNL     1     -12.265   9.088  20.220  0.00  0.00    +0.166 C 
BRANCH  20   4
ATOM      4  O   UNL     1     -11.113   9.599  19.587  0.00  0.00    -0.394 OA
ATOM     37  H   UNL     1     -11.408  10.245  18.922  0.00  0.00    +0.209 HD
ENDBRANCH  20   4
ENDBRANCH  11  20
BRANCH  12  22
ATOM     22  C   UNL     1     -16.717   5.545  22.036  0.00  0.00    +0.102 C 
BRANCH  22  23
ATOM      5  O   UNL     1     -17.574   3.341  21.524  0.00  0.00    -0.276 OA
ATOM      7  N   UNL     1     -17.166   3.929  23.736  0.00  0.00    -0.311 N 
ATOM     23  C   UNL     1     -17.201   4.153  22.367  0.00  0.00    +0.214 C 
ATOM     38  H   UNL     1     -16.861   4.669  24.360  0.00  0.00    +0.149 HD
BRANCH   7  26
ATOM     26  C   UNL     1     -17.575   2.683  24.342  0.00  0.00    +0.146 C 
BRANCH  26  32
ATOM      1  S   UNL     1     -17.128   1.114  26.587  0.00  0.00    -0.100 S 
ATOM     32  C   UNL     1     -17.009   2.589  25.726  0.00  0.00    +0.007 A 
ATOM     33  C   UNL     1     -16.372   3.566  26.460  0.00  0.00    +0.013 A 
ATOM     34  C   UNL     1     -15.976   3.096  27.745  0.00  0.00    +0.008 A 
ATOM     35  C   UNL     1     -16.325   1.779  27.945  0.00  0.00    +0.045 A 
ENDBRANCH  26  32
ENDBRANCH   7  26
ENDBRANCH  22  23
ENDBRANCH  12  22
TORSDOF 10
ENDMDL
MODEL 7
REMARK VINA RESULT:      -6.4     23.789     25.754
REMARK  Name = 24121228
REMARK  12 active torsions:
REMARK  status: ('A' for Active; 'I' for Inactive)
REMARK    1  A    between atoms: O_2  and  C_15
REMARK    2  A    between atoms: O_2  and  C_24
REMARK    3  A    between atoms: O_3  and  C_16
REMARK    4  A    between atoms: O_4  and  C_20
REMARK    5  A    between atoms: N_7  and  C_26
REMARK    6  A    between atoms: N_8  and  C_25
REMARK    7  A    between atoms: C_9  and  C_19
REMARK    8  A    between atoms: C_11  and  C_20
REMARK    9  A    between atoms: C_11  and  C_21
REMARK   10  A    between atoms: C_12  and  C_22
REMARK   11  A    between atoms: C_22  and  C_23
REMARK   12  A    between atoms: C_26  and  C_32
REMARK                            x       y       z     vdW  Elec       q    Type
REMARK                         _______ _______ _______ _____ _____    ______ ____
ROOT
ATOM      9  C   UNL     1      12.527   4.889   0.674  0.00  0.00    -0.023 C 
ATOM     10  C   UNL     1      12.828   6.436   0.755  0.00  0.00    +0.007 C 
ATOM     11  C   UNL     1      12.277   7.198   2.020  0.00  0.00    +0.031 C 
ATOM     12  C   UNL     1      12.886   4.424  -0.798  0.00  0.00    +0.032 C 
ATOM     13  C   UNL     1      11.011   4.669   0.924  0.00  0.00    +0.011 C 
ATOM     14  C   UNL     1      14.307   6.728   0.420  0.00  0.00    +0.007 C 
ATOM     15  C   UNL     1      10.773   6.836   2.211  0.00  0.00    +0.186 C 
ATOM     16  C   UNL     1      14.332   4.773  -1.218  0.00  0.00    +0.119 C 
ATOM     17  C   UNL     1      10.495   5.337   2.194  0.00  0.00    +0.046 C 
ATOM     18  C   UNL     1      14.664   6.244  -0.987  0.00  0.00    +0.032 C 
ATOM     19  C   UNL     1      13.311   4.051   1.714  0.00  0.00    +0.012 C 
ATOM     21  C   UNL     1      12.357   8.732   1.764  0.00  0.00    +0.017 C 
ENDROOT
BRANCH  16   3
ATOM      3  O   UNL     1      15.272   3.953  -0.534  0.00  0.00    -0.391 OA
ATOM     36  H   UNL     1      15.568   3.262  -1.151  0.00  0.00    +0.210 HD
ENDBRANCH  16   3
BRANCH  15   2
ATOM      2  O   UNL     1      10.257   7.344   3.442  0.00  0.00    -0.446 OA
BRANCH   2  24
ATOM      6  O   UNL     1       8.292   8.079   2.509  0.00  0.00    -0.226 OA
ATOM      8  N   UNL     1       8.394   7.328   4.701  0.00  0.00    -0.278 N 
ATOM     24  C   UNL     1       8.919   7.627   3.461  0.00  0.00    +0.401 C 
ATOM     39  H   UNL     1       7.412   7.536   4.861  0.00  0.00    +0.152 HD
BRANCH   8  25
ATOM     25  C   UNL     1       9.173   6.798   5.793  0.00  0.00    +0.076 C 
ATOM     27  C   UNL     1       8.707   7.386   7.128  0.00  0.00    +0.022 C 
ATOM     28  C   UNL     1       9.107   5.268   5.807  0.00  0.00    +0.022 C 
ATOM     29  C   UNL     1       9.483   6.798   8.304  0.00  0.00    +0.002 C 
ATOM     30  C   UNL     1       9.881   4.681   6.984  0.00  0.00    +0.002 C 
ATOM     31  C   UNL     1       9.417   5.273   8.312  0.00  0.00    +0.000 C 
ENDBRANCH   8  25
ENDBRANCH   2  24
ENDBRANCH  15   2
BRANCH  11  20
ATOM     20  C   UNL     1      13.085   6.948   3.309  0.00  0.00    +0.166 C 
BRANCH  20   4
ATOM      4  O   UNL     1      12.883   8.048   4.168  0.00  0.00    -0.394 OA
ATOM     37  H   UNL     1      13.745   8.275   4.556  0.00  0.00    +0.209 HD
ENDBRANCH  20   4
ENDBRANCH  11  20
BRANCH  12  22
ATOM     22  C   UNL     1      12.598   2.945  -1.097  0.00  0.00    +0.102 C 
BRANCH  22  23
ATOM      5  O   UNL     1      12.419   2.200  -3.392  0.00  0.00    -0.276 OA
ATOM      7  N   UNL     1      10.633   3.311  -2.404  0.00  0.00    -0.311 N 
ATOM     23  C   UNL     1      11.906   2.761  -2.428  0.00  0.00    +0.214 C 
ATOM     38  H   UNL     1      10.300   3.776  -1.564  0.00  0.00    +0.149 HD
BRANCH   7  26
ATOM     26  C   UNL     1       9.741   3.286  -3.540  0.00  0.00    +0.146 C 
BRANCH  26  32
ATOM      1  S   UNL     1       8.294   5.077  -5.088  0.00  0.00    -0.100 S 
ATOM     32  C   UNL     1       8.967   4.568  -3.599  0.00  0.00    +0.007 A 
ATOM     33  C   UNL     1       8.698   5.454  -2.579  0.00  0.00    +0.013 A 
ATOM     34  C   UNL     1       7.929   6.566  -3.028  0.00  0.00    +0.008 A 
ATOM     35  C   UNL     1       7.639   6.488  -4.372  0.00  0.00    +0.045 A 
ENDBRANCH  26  32
ENDBRANCH   7  26
ENDBRANCH  22  23
ENDBRANCH  12  22
TORSDOF 10
ENDMDL
MODEL 8
REMARK VINA RESULT:      -6.3      3.668      6.609
REMARK  Name = 24121228
REMARK  12 active torsions:
REMARK  status: ('A' for Active; 'I' for Inactive)
REMARK    1  A    between atoms: O_2  and  C_15
REMARK    2  A    between atoms: O_2  and  C_24
REMARK    3  A    between atoms: O_3  and  C_16
REMARK    4  A    between atoms: O_4  and  C_20
REMARK    5  A    between atoms: N_7  and  C_26
REMARK    6  A    between atoms: N_8  and  C_25
REMARK    7  A    between atoms: C_9  and  C_19
REMARK    8  A    between atoms: C_11  and  C_20
REMARK    9  A    between atoms: C_11  and  C_21
REMARK   10  A    between atoms: C_12  and  C_22
REMARK   11  A    between atoms: C_22  and  C_23
REMARK   12  A    between atoms: C_26  and  C_32
REMARK                            x       y       z     vdW  Elec       q    Type
REMARK                         _______ _______ _______ _____ _____    ______ ____
ROOT
ATOM      9  C   UNL     1      -4.388 -11.601  14.757  0.00  0.00    -0.023 C 
ATOM     10  C   UNL     1      -4.303 -10.991  16.210  0.00  0.00    +0.007 C 
ATOM     11  C   UNL     1      -5.480 -11.347  17.197  0.00  0.00    +0.031 C 
ATOM     12  C   UNL     1      -3.298 -10.858  13.879  0.00  0.00    +0.032 C 
ATOM     13  C   UNL     1      -5.798 -11.303  14.181  0.00  0.00    +0.011 C 
ATOM     14  C   UNL     1      -2.888 -11.172  16.802  0.00  0.00    +0.007 C 
ATOM     15  C   UNL     1      -6.837 -11.082  16.479  0.00  0.00    +0.186 C 
ATOM     16  C   UNL     1      -1.873 -10.932  14.474  0.00  0.00    +0.119 C 
ATOM     17  C   UNL     1      -6.940 -11.725  15.100  0.00  0.00    +0.046 C 
ATOM     18  C   UNL     1      -1.830 -10.489  15.934  0.00  0.00    +0.032 C 
ATOM     19  C   UNL     1      -4.167 -13.132  14.716  0.00  0.00    +0.012 C 
ATOM     21  C   UNL     1      -5.413 -10.400  18.430  0.00  0.00    +0.017 C 
ENDROOT
BRANCH  16   3
ATOM      3  O   UNL     1      -1.340 -12.246  14.355  0.00  0.00    -0.391 OA
ATOM     36  H   UNL     1      -2.005 -12.796  13.906  0.00  0.00    +0.210 HD
ENDBRANCH  16   3
BRANCH  15   2
ATOM      2  O   UNL     1      -7.945 -11.557  17.245  0.00  0.00    -0.446 OA
BRANCH   2  24
ATOM      6  O   UNL     1      -8.858  -9.450  17.224  0.00  0.00    -0.226 OA
ATOM      8  N   UNL     1      -9.857 -11.200  18.373  0.00  0.00    -0.278 N 
ATOM     24  C   UNL     1      -8.887 -10.623  17.581  0.00  0.00    +0.401 C 
ATOM     39  H   UNL     1     -10.594 -10.598  18.730  0.00  0.00    +0.152 HD
BRANCH   8  25
ATOM     25  C   UNL     1      -9.847 -12.586  18.770  0.00  0.00    +0.076 C 
ATOM     27  C   UNL     1     -10.091 -12.723  20.275  0.00  0.00    +0.022 C 
ATOM     28  C   UNL     1     -10.877 -13.383  17.964  0.00  0.00    +0.022 C 
ATOM     29  C   UNL     1     -10.138 -14.186  20.708  0.00  0.00    +0.002 C 
ATOM     30  C   UNL     1     -10.924 -14.845  18.400  0.00  0.00    +0.002 C 
ATOM     31  C   UNL     1     -11.164 -14.977  19.901  0.00  0.00    +0.000 C 
ENDBRANCH   8  25
ENDBRANCH   2  24
ENDBRANCH  15   2
BRANCH  11  20
ATOM     20  C   UNL     1      -5.414 -12.778  17.766  0.00  0.00    +0.166 C 
BRANCH  20   4
ATOM      4  O   UNL     1      -6.226 -12.825  18.919  0.00  0.00    -0.394 OA
ATOM     37  H   UNL     1      -7.093 -12.454  18.678  0.00  0.00    +0.209 HD
ENDBRANCH  20   4
ENDBRANCH  11  20
BRANCH  12  22
ATOM     22  C   UNL     1      -3.268 -11.272  12.399  0.00  0.00    +0.102 C 
BRANCH  22  23
ATOM      5  O   UNL     1      -2.234  -9.627  10.958  0.00  0.00    -0.276 OA
ATOM      7  N   UNL     1      -4.530  -9.563  11.310  0.00  0.00    -0.311 N 
ATOM     23  C   UNL     1      -3.252 -10.075  11.478  0.00  0.00    +0.214 C 
ATOM     38  H   UNL     1      -5.313  -9.988  11.798  0.00  0.00    +0.149 HD
BRANCH   7  26
ATOM     26  C   UNL     1      -4.817  -8.414  10.482  0.00  0.00    +0.146 C 
BRANCH  26  32
ATOM      1  S   UNL     1      -7.071  -8.372   8.863  0.00  0.00    -0.100 S 
ATOM     32  C   UNL     1      -5.468  -8.863   9.209  0.00  0.00    +0.007 A 
ATOM     33  C   UNL     1      -4.945  -9.660   8.214  0.00  0.00    +0.013 A 
ATOM     34  C   UNL     1      -5.873  -9.869   7.154  0.00  0.00    +0.008 A 
ATOM     35  C   UNL     1      -7.069  -9.225   7.378  0.00  0.00    +0.045 A 
ENDBRANCH  26  32
ENDBRANCH   7  26
ENDBRANCH  22  23
ENDBRANCH  12  22
TORSDOF 10
ENDMDL
MODEL 9
REMARK VINA RESULT:      -6.3     23.829     25.602
REMARK  Name = 24121228
REMARK  12 active torsions:
REMARK  status: ('A' for Active; 'I' for Inactive)
REMARK    1  A    between atoms: O_2  and  C_15
REMARK    2  A    between atoms: O_2  and  C_24
REMARK    3  A    between atoms: O_3  and  C_16
REMARK    4  A    between atoms: O_4  and  C_20
REMARK    5  A    between atoms: N_7  and  C_26
REMARK    6  A    between atoms: N_8  and  C_25
REMARK    7  A    between atoms: C_9  and  C_19
REMARK    8  A    between atoms: C_11  and  C_20
REMARK    9  A    between atoms: C_11  and  C_21
REMARK   10  A    between atoms: C_12  and  C_22
REMARK   11  A    between atoms: C_22  and  C_23
REMARK   12  A    between atoms: C_26  and  C_32
REMARK                            x       y       z     vdW  Elec       q    Type
REMARK                         _______ _______ _______ _____ _____    ______ ____
ROOT
ATOM      9  C   UNL     1       8.992   8.694   3.399  0.00  0.00    -0.023 C 
ATOM     10  C   UNL     1       9.305   7.300   4.069  0.00  0.00    +0.007 C 
ATOM     11  C   UNL     1      10.388   6.401   3.359  0.00  0.00    +0.031 C 
ATOM     12  C   UNL     1       7.678   9.253   4.087  0.00  0.00    +0.032 C 
ATOM     13  C   UNL     1       8.719   8.463   1.889  0.00  0.00    +0.011 C 
ATOM     14  C   UNL     1       9.492   7.452   5.595  0.00  0.00    +0.007 C 
ATOM     15  C   UNL     1      10.051   6.311   1.840  0.00  0.00    +0.186 C 
ATOM     16  C   UNL     1       7.779   9.341   5.627  0.00  0.00    +0.119 C 
ATOM     17  C   UNL     1       9.810   7.665   1.182  0.00  0.00    +0.046 C 
ATOM     18  C   UNL     1       8.238   8.028   6.254  0.00  0.00    +0.032 C 
ATOM     19  C   UNL     1      10.148   9.716   3.527  0.00  0.00    +0.012 C 
ATOM     21  C   UNL     1      10.312   4.959   3.940  0.00  0.00    +0.017 C 
ENDROOT
BRANCH  16   3
ATOM      3  O   UNL     1       8.653  10.394   6.020  0.00  0.00    -0.391 OA
ATOM     36  H   UNL     1       9.076  10.743   5.217  0.00  0.00    +0.210 HD
ENDBRANCH  16   3
BRANCH  15   2
ATOM      2  O   UNL     1      11.091   5.667   1.103  0.00  0.00    -0.446 OA
BRANCH   2  24
ATOM      6  O   UNL     1       9.523   4.501  -0.104  0.00  0.00    -0.226 OA
ATOM      8  N   UNL     1      11.789   4.038  -0.280  0.00  0.00    -0.278 N 
ATOM     24  C   UNL     1      10.691   4.713   0.208  0.00  0.00    +0.401 C 
ATOM     39  H   UNL     1      11.623   3.270  -0.924  0.00  0.00    +0.152 HD
BRANCH   8  25
ATOM     25  C   UNL     1      13.146   4.322   0.118  0.00  0.00    +0.076 C 
ATOM     27  C   UNL     1      13.613   3.341   1.196  0.00  0.00    +0.022 C 
ATOM     28  C   UNL     1      14.079   4.299  -1.097  0.00  0.00    +0.022 C 
ATOM     29  C   UNL     1      15.065   3.590   1.594  0.00  0.00    +0.002 C 
ATOM     30  C   UNL     1      15.530   4.546  -0.697  0.00  0.00    +0.002 C 
ATOM     31  C   UNL     1      15.991   3.569   0.381  0.00  0.00    +0.000 C 
ENDBRANCH   8  25
ENDBRANCH   2  24
ENDBRANCH  15   2
BRANCH  11  20
ATOM     20  C   UNL     1      11.841   6.866   3.587  0.00  0.00    +0.166 C 
BRANCH  20   4
ATOM      4  O   UNL     1      12.692   5.770   3.337  0.00  0.00    -0.394 OA
ATOM     37  H   UNL     1      12.263   4.979   3.707  0.00  0.00    +0.209 HD
ENDBRANCH  20   4
ENDBRANCH  11  20
BRANCH  12  22
ATOM     22  C   UNL     1       7.169  10.588   3.520  0.00  0.00    +0.102 C 
BRANCH  22  23
ATOM      5  O   UNL     1       4.875   9.948   3.092  0.00  0.00    -0.276 OA
ATOM      7  N   UNL     1       5.321  11.804   4.419  0.00  0.00    -0.311 N 
ATOM     23  C   UNL     1       5.668  10.714   3.633  0.00  0.00    +0.214 C 
ATOM     38  H   UNL     1       6.048  12.396   4.809  0.00  0.00    +0.149 HD
BRANCH   7  26
ATOM     26  C   UNL     1       3.952  12.171   4.699  0.00  0.00    +0.146 C 
BRANCH  26  32
ATOM      1  S   UNL     1       2.471  12.646   6.997  0.00  0.00    -0.100 S 
ATOM     32  C   UNL     1       3.876  12.838   6.038  0.00  0.00    +0.007 A 
ATOM     33  C   UNL     1       4.818  13.633   6.655  0.00  0.00    +0.013 A 
ATOM     34  C   UNL     1       4.379  14.089   7.931  0.00  0.00    +0.008 A 
ATOM     35  C   UNL     1       3.120  13.626   8.242  0.00  0.00    +0.045 A 
ENDBRANCH  26  32
ENDBRANCH   7  26
ENDBRANCH  22  23
ENDBRANCH  12  22
TORSDOF 10
ENDMDL
MODEL 10
REMARK VINA RESULT:      -6.2     30.071     33.083
REMARK  Name = 24121228
REMARK  12 active torsions:
REMARK  status: ('A' for Active; 'I' for Inactive)
REMARK    1  A    between atoms: O_2  and  C_15
REMARK    2  A    between atoms: O_2  and  C_24
REMARK    3  A    between atoms: O_3  and  C_16
REMARK    4  A    between atoms: O_4  and  C_20
REMARK    5  A    between atoms: N_7  and  C_26
REMARK    6  A    between atoms: N_8  and  C_25
REMARK    7  A    between atoms: C_9  and  C_19
REMARK    8  A    between atoms: C_11  and  C_20
REMARK    9  A    between atoms: C_11  and  C_21
REMARK   10  A    between atoms: C_12  and  C_22
REMARK   11  A    between atoms: C_22  and  C_23
REMARK   12  A    between atoms: C_26  and  C_32
REMARK                            x       y       z     vdW  Elec       q    Type
REMARK                         _______ _______ _______ _____ _____    ______ ____
ROOT
ATOM      9  C   UNL     1      23.670   3.137  21.781  0.00  0.00    -0.023 C 
ATOM     10  C   UNL     1      25.036   3.062  22.567  0.00  0.00    +0.007 C 
ATOM     11  C   UNL     1      25.126   2.002  23.730  0.00  0.00    +0.031 C 
ATOM     12  C   UNL     1      23.712   4.459  20.907  0.00  0.00    +0.032 C 
ATOM     13  C   UNL     1      22.515   3.243  22.812  0.00  0.00    +0.011 C 
ATOM     14  C   UNL     1      26.234   3.051  21.591  0.00  0.00    +0.007 C 
ATOM     15  C   UNL     1      23.876   2.155  24.648  0.00  0.00    +0.186 C 
ATOM     16  C   UNL     1      24.942   4.541  19.974  0.00  0.00    +0.119 C 
ATOM     17  C   UNL     1      22.553   2.165  23.890  0.00  0.00    +0.046 C 
ATOM     18  C   UNL     1      26.252   4.308  20.720  0.00  0.00    +0.032 C 
ATOM     19  C   UNL     1      23.403   1.902  20.886  0.00  0.00    +0.012 C 
ATOM     21  C   UNL     1      26.381   2.305  24.599  0.00  0.00    +0.017 C 
ENDROOT
BRANCH  16   3
ATOM      3  O   UNL     1      24.828   3.615  18.899  0.00  0.00    -0.391 OA
ATOM     36  H   UNL     1      24.176   2.941  19.157  0.00  0.00    +0.210 HD
ENDBRANCH  16   3
BRANCH  15   2
ATOM      2  O   UNL     1      23.796   1.106  25.615  0.00  0.00    -0.446 OA
BRANCH   2  24
ATOM      6  O   UNL     1      23.360   2.368  27.484  0.00  0.00    -0.226 OA
ATOM      8  N   UNL     1      22.141   0.457  26.991  0.00  0.00    -0.278 N 
ATOM     24  C   UNL     1      23.120   1.402  26.767  0.00  0.00    +0.401 C 
ATOM     39  H   UNL     1      21.593   0.538  27.843  0.00  0.00    +0.152 HD
BRANCH   8  25
ATOM     25  C   UNL     1      21.895  -0.664  26.118  0.00  0.00    +0.076 C 
ATOM     27  C   UNL     1      22.417  -1.962  26.742  0.00  0.00    +0.022 C 
ATOM     28  C   UNL     1      20.405  -0.768  25.782  0.00  0.00    +0.022 C 
ATOM     29  C   UNL     1      22.120  -3.171  25.858  0.00  0.00    +0.002 C 
ATOM     30  C   UNL     1      20.109  -1.978  24.901  0.00  0.00    +0.002 C 
ATOM     31  C   UNL     1      20.634  -3.269  25.524  0.00  0.00    +0.000 C 
ENDBRANCH   8  25
ENDBRANCH   2  24
ENDBRANCH  15   2
BRANCH  11  20
ATOM     20  C   UNL     1      25.295   0.548  23.246  0.00  0.00    +0.166 C 
BRANCH  20   4
ATOM      4  O   UNL     1      25.991  -0.164  24.246  0.00  0.00    -0.394 OA
ATOM     37  H   UNL     1      25.631  -1.067  24.263  0.00  0.00    +0.209 HD
ENDBRANCH  20   4
ENDBRANCH  11  20
BRANCH  12  22
ATOM     22  C   UNL     1      22.431   4.746  20.108  0.00  0.00    +0.102 C 
BRANCH  22  23
ATOM      5  O   UNL     1      22.400   7.151  20.369  0.00  0.00    -0.276 OA
ATOM      7  N   UNL     1      20.528   5.908  20.963  0.00  0.00    -0.311 N 
ATOM     23  C   UNL     1      21.818   6.075  20.481  0.00  0.00    +0.214 C 
ATOM     38  H   UNL     1      20.135   4.974  21.040  0.00  0.00    +0.149 HD
BRANCH   7  26
ATOM     26  C   UNL     1      19.699   7.008  21.399  0.00  0.00    +0.146 C 
BRANCH  26  32
ATOM      1  S   UNL     1      17.130   8.030  21.165  0.00  0.00    -0.100 S 
ATOM     32  C   UNL     1      18.366   6.932  20.720  0.00  0.00    +0.007 A 
ATOM     33  C   UNL     1      17.954   6.061  19.735  0.00  0.00    +0.013 A 
ATOM     34  C   UNL     1      16.606   6.299  19.340  0.00  0.00    +0.008 A 
ATOM     35  C   UNL     1      16.039   7.342  20.038  0.00  0.00    +0.045 A 
ENDBRANCH  26  32
ENDBRANCH   7  26
ENDBRANCH  22  23
ENDBRANCH  12  22
TORSDOF 10
ENDMDL
