MODEL 1
REMARK VINA RESULT:      -8.3      0.000      0.000
REMARK  Name = 25388691
REMARK  4 active torsions:
REMARK  status: ('A' for Active; 'I' for Inactive)
REMARK    1  A    between atoms: N_6  and  C_14
REMARK    2  A    between atoms: C_23  and  C_26
REMARK    3  A    between atoms: C_25  and  C_27
REMARK    4  A    between atoms: C_30  and  C_33
REMARK                            x       y       z     vdW  Elec       q    Type
REMARK                         _______ _______ _______ _____ _____    ______ ____
ROOT
ATOM      4  O   UNL     1      12.319   7.129   3.381  0.00  0.00    -0.267 OA
ATOM      6  N   UNL     1      12.830   4.986  -1.124  0.00  0.00    -0.298 NA
ATOM      7  N   UNL     1      12.904   5.307   2.048  0.00  0.00    -0.311 N 
ATOM      9  C   UNL     1      14.819   5.397   0.345  0.00  0.00    +0.024 C 
ATOM     10  C   UNL     1      13.528   3.333   0.615  0.00  0.00    +0.050 C 
ATOM     11  C   UNL     1      14.942   3.905   0.629  0.00  0.00    +0.017 C 
ATOM     12  C   UNL     1      14.149   5.620  -1.027  0.00  0.00    +0.090 C 
ATOM     13  C   UNL     1      12.892   3.558  -0.777  0.00  0.00    +0.094 C 
ATOM     15  C   UNL     1      14.043   6.055   1.495  0.00  0.00    +0.130 C 
ATOM     16  C   UNL     1      12.677   3.975   1.696  0.00  0.00    +0.026 A 
ATOM     21  C   UNL     1      11.701   3.276   2.296  0.00  0.00    +0.022 A 
ATOM     22  C   UNL     1      12.127   5.966   3.021  0.00  0.00    +0.259 A 
ATOM     23  C   UNL     1      11.018   5.168   3.652  0.00  0.00    +0.047 A 
ATOM     24  C   UNL     1      10.858   3.888   3.285  0.00  0.00    +0.015 A 
ENDROOT
BRANCH   6  14
ATOM      5  O   UNL     1       9.784   2.578  -5.892  0.00  0.00    -0.276 OA
ATOM      8  N   UNL     1      11.283   4.083  -4.953  0.00  0.00    -0.302 N 
ATOM     14  C   UNL     1      12.253   5.175  -2.453  0.00  0.00    +0.060 C 
ATOM     17  C   UNL     1      10.899   4.462  -2.547  0.00  0.00    +0.038 C 
ATOM     18  C   UNL     1      13.215   4.645  -3.525  0.00  0.00    +0.038 C 
ATOM     19  C   UNL     1      10.323   4.568  -3.958  0.00  0.00    +0.109 C 
ATOM     20  C   UNL     1      12.593   4.746  -4.918  0.00  0.00    +0.109 C 
ATOM     25  C   UNL     1      10.904   3.094  -5.859  0.00  0.00    +0.212 C 
ATOM     27  C   UNL     1      11.949   2.648  -6.849  0.00  0.00    +0.109 C 
ENDBRANCH   6  14
BRANCH  23  26
ATOM     26  C   UNL     1      10.115   5.771   4.648  0.00  0.00    -0.012 A 
ATOM     28  C   UNL     1      10.233   5.430   5.995  0.00  0.00    +0.021 A 
ATOM     29  C   UNL     1       9.139   6.681   4.242  0.00  0.00    +0.009 A 
ATOM     30  C   UNL     1       9.376   6.000   6.938  0.00  0.00    +0.055 A 
ATOM     31  C   UNL     1       8.282   7.251   5.184  0.00  0.00    +0.001 A 
ATOM     32  C   UNL     1       8.401   6.911   6.531  0.00  0.00    +0.012 A 
BRANCH  30  33
ATOM      1  F   UNL     1      10.743   5.911   8.881  0.00  0.00    -0.166 F 
ATOM      2  F   UNL     1       8.624   6.294   9.189  0.00  0.00    -0.166 F 
ATOM      3  F   UNL     1       9.294   4.309   8.627  0.00  0.00    -0.166 F 
ATOM     33  C   UNL     1       9.504   5.635   8.377  0.00  0.00    +0.417 C 
ENDBRANCH  30  33
ENDBRANCH  23  26
TORSDOF 3
ENDMDL
MODEL 2
REMARK VINA RESULT:      -8.1     23.680     26.903
REMARK  Name = 25388691
REMARK  4 active torsions:
REMARK  status: ('A' for Active; 'I' for Inactive)
REMARK    1  A    between atoms: N_6  and  C_14
REMARK    2  A    between atoms: C_23  and  C_26
REMARK    3  A    between atoms: C_25  and  C_27
REMARK    4  A    between atoms: C_30  and  C_33
REMARK                            x       y       z     vdW  Elec       q    Type
REMARK                         _______ _______ _______ _____ _____    ______ ____
ROOT
ATOM      4  O   UNL     1      -5.469 -12.484  10.359  0.00  0.00    -0.267 OA
ATOM      6  N   UNL     1      -4.007 -11.078  14.946  0.00  0.00    -0.298 NA
ATOM      7  N   UNL     1      -3.795 -11.878  11.865  0.00  0.00    -0.311 N 
ATOM      9  C   UNL     1      -3.251 -13.255  13.958  0.00  0.00    +0.024 C 
ATOM     10  C   UNL     1      -1.985 -11.213  13.484  0.00  0.00    +0.050 C 
ATOM     11  C   UNL     1      -1.843 -12.705  13.773  0.00  0.00    +0.017 C 
ATOM     12  C   UNL     1      -3.951 -12.533  15.129  0.00  0.00    +0.090 C 
ATOM     13  C   UNL     1      -2.673 -10.518  14.681  0.00  0.00    +0.094 C 
ATOM     15  C   UNL     1      -4.016 -13.111  12.635  0.00  0.00    +0.130 C 
ATOM     16  C   UNL     1      -2.779 -10.984  12.211  0.00  0.00    +0.026 A 
ATOM     21  C   UNL     1      -2.521  -9.923  11.431  0.00  0.00    +0.022 A 
ATOM     22  C   UNL     1      -4.586 -11.700  10.713  0.00  0.00    +0.259 A 
ATOM     23  C   UNL     1      -4.297 -10.483   9.877  0.00  0.00    +0.047 A 
ATOM     24  C   UNL     1      -3.298  -9.669  10.250  0.00  0.00    +0.015 A 
ENDROOT
BRANCH   6  14
ATOM      5  O   UNL     1      -7.333 -11.622  20.088  0.00  0.00    -0.276 OA
ATOM      8  N   UNL     1      -6.573 -10.436  18.242  0.00  0.00    -0.302 N 
ATOM     14  C   UNL     1      -4.628 -10.429  16.097  0.00  0.00    +0.060 C 
ATOM     17  C   UNL     1      -4.437 -11.287  17.353  0.00  0.00    +0.038 C 
ATOM     18  C   UNL     1      -6.121 -10.196  15.829  0.00  0.00    +0.038 C 
ATOM     19  C   UNL     1      -5.160 -10.672  18.550  0.00  0.00    +0.109 C 
ATOM     20  C   UNL     1      -6.813  -9.603  17.056  0.00  0.00    +0.109 C 
ATOM     25  C   UNL     1      -7.561 -10.956  19.076  0.00  0.00    +0.212 C 
ATOM     27  C   UNL     1      -8.991 -10.671  18.689  0.00  0.00    +0.109 C 
ENDBRANCH   6  14
BRANCH  23  26
ATOM     26  C   UNL     1      -5.093 -10.174   8.676  0.00  0.00    -0.012 A 
ATOM     28  C   UNL     1      -6.109  -9.220   8.738  0.00  0.00    +0.021 A 
ATOM     29  C   UNL     1      -4.832 -10.837   7.478  0.00  0.00    +0.009 A 
ATOM     30  C   UNL     1      -6.863  -8.929   7.601  0.00  0.00    +0.055 A 
ATOM     31  C   UNL     1      -5.586 -10.547   6.341  0.00  0.00    +0.001 A 
ATOM     32  C   UNL     1      -6.601  -9.593   6.402  0.00  0.00    +0.012 A 
BRANCH  30  33
ATOM      1  F   UNL     1      -9.188  -8.449   7.478  0.00  0.00    -0.166 F 
ATOM      2  F   UNL     1      -8.015  -7.258   8.868  0.00  0.00    -0.166 F 
ATOM      3  F   UNL     1      -7.832  -6.922   6.734  0.00  0.00    -0.166 F 
ATOM     33  C   UNL     1      -7.949  -7.910   7.669  0.00  0.00    +0.417 C 
ENDBRANCH  30  33
ENDBRANCH  23  26
TORSDOF 3
ENDMDL
MODEL 3
REMARK VINA RESULT:      -8.1     23.748     27.028
REMARK  Name = 25388691
REMARK  4 active torsions:
REMARK  status: ('A' for Active; 'I' for Inactive)
REMARK    1  A    between atoms: N_6  and  C_14
REMARK    2  A    between atoms: C_23  and  C_26
REMARK    3  A    between atoms: C_25  and  C_27
REMARK    4  A    between atoms: C_30  and  C_33
REMARK                            x       y       z     vdW  Elec       q    Type
REMARK                         _______ _______ _______ _____ _____    ______ ____
ROOT
ATOM      4  O   UNL     1      -5.191 -12.771  10.475  0.00  0.00    -0.267 OA
ATOM      6  N   UNL     1      -3.908 -11.192  15.059  0.00  0.00    -0.298 NA
ATOM      7  N   UNL     1      -3.578 -12.099  12.019  0.00  0.00    -0.311 N 
ATOM      9  C   UNL     1      -3.103 -13.397  14.178  0.00  0.00    +0.024 C 
ATOM     10  C   UNL     1      -1.833 -11.364  13.677  0.00  0.00    +0.050 C 
ATOM     11  C   UNL     1      -1.693 -12.843  14.024  0.00  0.00    +0.017 C 
ATOM     12  C   UNL     1      -3.850 -12.639  15.296  0.00  0.00    +0.090 C 
ATOM     13  C   UNL     1      -2.569 -10.631  14.823  0.00  0.00    +0.094 C 
ATOM     15  C   UNL     1      -3.820 -13.306  12.823  0.00  0.00    +0.130 C 
ATOM     16  C   UNL     1      -2.581 -11.187  12.368  0.00  0.00    +0.026 A 
ATOM     21  C   UNL     1      -2.301 -10.152  11.561  0.00  0.00    +0.022 A 
ATOM     22  C   UNL     1      -4.327 -11.969  10.833  0.00  0.00    +0.259 A 
ATOM     23  C   UNL     1      -4.015 -10.780   9.964  0.00  0.00    +0.047 A 
ATOM     24  C   UNL     1      -3.036  -9.946  10.345  0.00  0.00    +0.015 A 
ENDROOT
BRANCH   6  14
ATOM      5  O   UNL     1      -7.437 -11.575  20.079  0.00  0.00    -0.276 OA
ATOM      8  N   UNL     1      -6.604 -10.447  18.227  0.00  0.00    -0.302 N 
ATOM     14  C   UNL     1      -4.575 -10.506  16.162  0.00  0.00    +0.060 C 
ATOM     17  C   UNL     1      -4.434 -11.323  17.452  0.00  0.00    +0.038 C 
ATOM     18  C   UNL     1      -6.056 -10.285  15.827  0.00  0.00    +0.038 C 
ATOM     19  C   UNL     1      -5.205 -10.671  18.599  0.00  0.00    +0.109 C 
ATOM     20  C   UNL     1      -6.797  -9.654  17.006  0.00  0.00    +0.109 C 
ATOM     25  C   UNL     1      -7.625 -10.942  19.037  0.00  0.00    +0.212 C 
ATOM     27  C   UNL     1      -9.038 -10.672  18.585  0.00  0.00    +0.109 C 
ENDBRANCH   6  14
BRANCH  23  26
ATOM     26  C   UNL     1      -4.768 -10.520   8.725  0.00  0.00    -0.012 A 
ATOM     28  C   UNL     1      -4.497 -11.262   7.575  0.00  0.00    +0.021 A 
ATOM     29  C   UNL     1      -5.751  -9.531   8.701  0.00  0.00    +0.009 A 
ATOM     30  C   UNL     1      -5.210 -11.015   6.401  0.00  0.00    +0.055 A 
ATOM     31  C   UNL     1      -6.464  -9.284   7.528  0.00  0.00    +0.001 A 
ATOM     32  C   UNL     1      -6.194 -10.026   6.378  0.00  0.00    +0.012 A 
BRANCH  30  33
ATOM      1  F   UNL     1      -3.595 -11.795   4.840  0.00  0.00    -0.166 F 
ATOM      2  F   UNL     1      -5.255 -13.129   5.281  0.00  0.00    -0.166 F 
ATOM      3  F   UNL     1      -5.579 -11.363   4.064  0.00  0.00    -0.166 F 
ATOM     33  C   UNL     1      -4.919 -11.808   5.173  0.00  0.00    +0.417 C 
ENDBRANCH  30  33
ENDBRANCH  23  26
TORSDOF 3
ENDMDL
MODEL 4
REMARK VINA RESULT:      -7.9      1.519      1.974
REMARK  Name = 25388691
REMARK  4 active torsions:
REMARK  status: ('A' for Active; 'I' for Inactive)
REMARK    1  A    between atoms: N_6  and  C_14
REMARK    2  A    between atoms: C_23  and  C_26
REMARK    3  A    between atoms: C_25  and  C_27
REMARK    4  A    between atoms: C_30  and  C_33
REMARK                            x       y       z     vdW  Elec       q    Type
REMARK                         _______ _______ _______ _____ _____    ______ ____
ROOT
ATOM      4  O   UNL     1      12.017   7.163   3.024  0.00  0.00    -0.267 OA
ATOM      6  N   UNL     1      12.314   4.708  -1.339  0.00  0.00    -0.298 NA
ATOM      7  N   UNL     1      12.649   5.296   1.778  0.00  0.00    -0.311 N 
ATOM      9  C   UNL     1      14.382   5.413  -0.108  0.00  0.00    +0.024 C 
ATOM     10  C   UNL     1      13.325   3.273   0.441  0.00  0.00    +0.050 C 
ATOM     11  C   UNL     1      14.673   3.967   0.271  0.00  0.00    +0.017 C 
ATOM     12  C   UNL     1      13.570   5.462  -1.420  0.00  0.00    +0.090 C 
ATOM     13  C   UNL     1      12.546   3.325  -0.894  0.00  0.00    +0.094 C 
ATOM     15  C   UNL     1      13.655   6.093   1.061  0.00  0.00    +0.130 C 
ATOM     16  C   UNL     1      12.519   3.924   1.550  0.00  0.00    +0.026 A 
ATOM     21  C   UNL     1      11.674   3.194   2.294  0.00  0.00    +0.022 A 
ATOM     22  C   UNL     1      11.905   5.961   2.772  0.00  0.00    +0.259 A 
ATOM     23  C   UNL     1      10.941   5.124   3.568  0.00  0.00    +0.047 A 
ATOM     24  C   UNL     1      10.870   3.809   3.314  0.00  0.00    +0.015 A 
ENDROOT
BRANCH   6  14
ATOM      5  O   UNL     1       8.359   7.596  -5.055  0.00  0.00    -0.276 OA
ATOM      8  N   UNL     1       9.416   5.690  -4.254  0.00  0.00    -0.302 N 
ATOM     14  C   UNL     1      11.603   4.735  -2.614  0.00  0.00    +0.060 C 
ATOM     17  C   UNL     1      11.582   6.162  -3.175  0.00  0.00    +0.038 C 
ATOM     18  C   UNL     1      10.173   4.210  -2.431  0.00  0.00    +0.038 C 
ATOM     19  C   UNL     1      10.762   6.230  -4.462  0.00  0.00    +0.109 C 
ATOM     20  C   UNL     1       9.378   4.318  -3.733  0.00  0.00    +0.109 C 
ATOM     25  C   UNL     1       8.301   6.458  -4.584  0.00  0.00    +0.212 C 
ATOM     27  C   UNL     1       6.951   5.832  -4.337  0.00  0.00    +0.109 C 
ENDBRANCH   6  14
BRANCH  23  26
ATOM     26  C   UNL     1      10.079   5.725   4.600  0.00  0.00    -0.012 A 
ATOM     28  C   UNL     1      10.225   5.351   5.936  0.00  0.00    +0.021 A 
ATOM     29  C   UNL     1       9.114   6.665   4.242  0.00  0.00    +0.009 A 
ATOM     30  C   UNL     1       9.408   5.920   6.914  0.00  0.00    +0.055 A 
ATOM     31  C   UNL     1       8.296   7.234   5.219  0.00  0.00    +0.001 A 
ATOM     32  C   UNL     1       8.444   6.861   6.555  0.00  0.00    +0.012 A 
BRANCH  30  33
ATOM      1  F   UNL     1      10.797   5.835   8.842  0.00  0.00    -0.166 F 
ATOM      2  F   UNL     1       8.667   6.116   9.180  0.00  0.00    -0.166 F 
ATOM      3  F   UNL     1       9.417   4.180   8.555  0.00  0.00    -0.166 F 
ATOM     33  C   UNL     1       9.566   5.520   8.341  0.00  0.00    +0.417 C 
ENDBRANCH  30  33
ENDBRANCH  23  26
TORSDOF 3
ENDMDL
MODEL 5
REMARK VINA RESULT:      -7.9     23.661     26.467
REMARK  Name = 25388691
REMARK  4 active torsions:
REMARK  status: ('A' for Active; 'I' for Inactive)
REMARK    1  A    between atoms: N_6  and  C_14
REMARK    2  A    between atoms: C_23  and  C_26
REMARK    3  A    between atoms: C_25  and  C_27
REMARK    4  A    between atoms: C_30  and  C_33
REMARK                            x       y       z     vdW  Elec       q    Type
REMARK                         _______ _______ _______ _____ _____    ______ ____
ROOT
ATOM      4  O   UNL     1      -7.598 -10.992   9.415  0.00  0.00    -0.267 OA
ATOM      6  N   UNL     1      -4.376 -11.027  13.258  0.00  0.00    -0.298 NA
ATOM      7  N   UNL     1      -5.438 -11.240  10.258  0.00  0.00    -0.311 N 
ATOM      9  C   UNL     1      -4.801 -13.096  11.908  0.00  0.00    +0.024 C 
ATOM     10  C   UNL     1      -3.102 -11.498  11.160  0.00  0.00    +0.050 C 
ATOM     11  C   UNL     1      -3.423 -12.986  11.269  0.00  0.00    +0.017 C 
ATOM     12  C   UNL     1      -4.792 -12.433  13.302  0.00  0.00    +0.090 C 
ATOM     13  C   UNL     1      -3.084 -10.869  12.572  0.00  0.00    +0.094 C 
ATOM     15  C   UNL     1      -5.835 -12.468  10.963  0.00  0.00    +0.130 C 
ATOM     16  C   UNL     1      -4.116 -10.792  10.278  0.00  0.00    +0.026 A 
ATOM     21  C   UNL     1      -3.751  -9.734   9.538  0.00  0.00    +0.022 A 
ATOM     22  C   UNL     1      -6.430 -10.606   9.484  0.00  0.00    +0.259 A 
ATOM     23  C   UNL     1      -6.000  -9.402   8.691  0.00  0.00    +0.047 A 
ATOM     24  C   UNL     1      -4.713  -9.027   8.738  0.00  0.00    +0.015 A 
ENDROOT
BRANCH   6  14
ATOM      5  O   UNL     1      -4.272 -11.946  19.336  0.00  0.00    -0.276 OA
ATOM      8  N   UNL     1      -4.771 -10.684  17.451  0.00  0.00    -0.302 N 
ATOM     14  C   UNL     1      -4.329 -10.452  14.600  0.00  0.00    +0.060 C 
ATOM     17  C   UNL     1      -3.395 -11.276  15.494  0.00  0.00    +0.038 C 
ATOM     18  C   UNL     1      -5.740 -10.402  15.200  0.00  0.00    +0.038 C 
ATOM     19  C   UNL     1      -3.405 -10.747  16.927  0.00  0.00    +0.109 C 
ATOM     20  C   UNL     1      -5.705  -9.891  16.641  0.00  0.00    +0.109 C 
ATOM     25  C   UNL     1      -5.084 -11.316  18.654  0.00  0.00    +0.212 C 
ATOM     27  C   UNL     1      -6.512 -11.207  19.125  0.00  0.00    +0.109 C 
ENDBRANCH   6  14
BRANCH  23  26
ATOM     26  C   UNL     1      -6.964  -8.634   7.883  0.00  0.00    -0.012 A 
ATOM     28  C   UNL     1      -7.740  -7.641   8.480  0.00  0.00    +0.021 A 
ATOM     29  C   UNL     1      -7.103  -8.903   6.522  0.00  0.00    +0.009 A 
ATOM     30  C   UNL     1      -8.654  -6.915   7.715  0.00  0.00    +0.055 A 
ATOM     31  C   UNL     1      -8.017  -8.179   5.757  0.00  0.00    +0.001 A 
ATOM     32  C   UNL     1      -8.792  -7.185   6.353  0.00  0.00    +0.012 A 
BRANCH  30  33
ATOM      1  F   UNL     1     -10.485  -5.408   7.540  0.00  0.00    -0.166 F 
ATOM      2  F   UNL     1     -10.099  -6.258   9.505  0.00  0.00    -0.166 F 
ATOM      3  F   UNL     1      -8.774  -4.740   8.703  0.00  0.00    -0.166 F 
ATOM     33  C   UNL     1      -9.483  -5.854   8.354  0.00  0.00    +0.417 C 
ENDBRANCH  30  33
ENDBRANCH  23  26
TORSDOF 3
ENDMDL
MODEL 6
REMARK VINA RESULT:      -7.9     32.129     37.571
REMARK  Name = 25388691
REMARK  4 active torsions:
REMARK  status: ('A' for Active; 'I' for Inactive)
REMARK    1  A    between atoms: N_6  and  C_14
REMARK    2  A    between atoms: C_23  and  C_26
REMARK    3  A    between atoms: C_25  and  C_27
REMARK    4  A    between atoms: C_30  and  C_33
REMARK                            x       y       z     vdW  Elec       q    Type
REMARK                         _______ _______ _______ _____ _____    ______ ____
ROOT
ATOM      4  O   UNL     1     -16.946   6.839  24.301  0.00  0.00    -0.267 OA
ATOM      6  N   UNL     1     -16.279   3.416  27.904  0.00  0.00    -0.298 NA
ATOM      7  N   UNL     1     -17.399   4.750  25.232  0.00  0.00    -0.311 N 
ATOM      9  C   UNL     1     -18.522   4.469  27.520  0.00  0.00    +0.024 C 
ATOM     10  C   UNL     1     -17.884   2.490  26.227  0.00  0.00    +0.050 C 
ATOM     11  C   UNL     1     -19.054   3.169  26.932  0.00  0.00    +0.017 C 
ATOM     12  C   UNL     1     -17.379   4.172  28.514  0.00  0.00    +0.090 C 
ATOM     13  C   UNL     1     -16.766   2.190  27.253  0.00  0.00    +0.094 C 
ATOM     15  C   UNL     1     -18.079   5.386  26.370  0.00  0.00    +0.130 C 
ATOM     16  C   UNL     1     -17.353   3.361  25.104  0.00  0.00    +0.026 A 
ATOM     21  C   UNL     1     -16.826   2.803  24.003  0.00  0.00    +0.022 A 
ATOM     22  C   UNL     1     -16.893   5.610  24.237  0.00  0.00    +0.259 A 
ATOM     23  C   UNL     1     -16.277   4.955  23.030  0.00  0.00    +0.047 A 
ATOM     24  C   UNL     1     -16.276   3.617  22.955  0.00  0.00    +0.015 A 
ENDROOT
BRANCH   6  14
ATOM      5  O   UNL     1     -14.776   0.811  33.267  0.00  0.00    -0.276 OA
ATOM      8  N   UNL     1     -14.474   2.382  31.583  0.00  0.00    -0.302 N 
ATOM     14  C   UNL     1     -15.245   3.110  28.889  0.00  0.00    +0.060 C 
ATOM     17  C   UNL     1     -15.429   1.683  29.421  0.00  0.00    +0.038 C 
ATOM     18  C   UNL     1     -15.298   4.123  30.041  0.00  0.00    +0.038 C 
ATOM     19  C   UNL     1     -14.415   1.376  30.521  0.00  0.00    +0.109 C 
ATOM     20  C   UNL     1     -14.286   3.767  31.130  0.00  0.00    +0.109 C 
ATOM     25  C   UNL     1     -14.657   1.985  32.907  0.00  0.00    +0.212 C 
ATOM     27  C   UNL     1     -14.710   3.081  33.941  0.00  0.00    +0.109 C 
ENDBRANCH   6  14
BRANCH  23  26
ATOM     26  C   UNL     1     -15.676   5.757  21.950  0.00  0.00    -0.012 A 
ATOM     28  C   UNL     1     -14.294   5.941  21.903  0.00  0.00    +0.021 A 
ATOM     29  C   UNL     1     -16.490   6.335  20.975  0.00  0.00    +0.009 A 
ATOM     30  C   UNL     1     -13.725   6.702  20.880  0.00  0.00    +0.055 A 
ATOM     31  C   UNL     1     -15.922   7.095  19.953  0.00  0.00    +0.001 A 
ATOM     32  C   UNL     1     -14.540   7.279  19.905  0.00  0.00    +0.012 A 
BRANCH  30  33
ATOM      1  F   UNL     1     -11.572   5.981  21.584  0.00  0.00    -0.166 F 
ATOM      2  F   UNL     1     -11.724   6.796  19.574  0.00  0.00    -0.166 F 
ATOM      3  F   UNL     1     -11.842   8.118  21.289  0.00  0.00    -0.166 F 
ATOM     33  C   UNL     1     -12.249   6.898  20.831  0.00  0.00    +0.417 C 
ENDBRANCH  30  33
ENDBRANCH  23  26
TORSDOF 3
ENDMDL
MODEL 7
REMARK VINA RESULT:      -7.6     25.248     29.032
REMARK  Name = 25388691
REMARK  4 active torsions:
REMARK  status: ('A' for Active; 'I' for Inactive)
REMARK    1  A    between atoms: N_6  and  C_14
REMARK    2  A    between atoms: C_23  and  C_26
REMARK    3  A    between atoms: C_25  and  C_27
REMARK    4  A    between atoms: C_30  and  C_33
REMARK                            x       y       z     vdW  Elec       q    Type
REMARK                         _______ _______ _______ _____ _____    ______ ____
ROOT
ATOM      4  O   UNL     1      -5.513 -13.400  15.043  0.00  0.00    -0.267 OA
ATOM      6  N   UNL     1      -9.133 -11.069  17.614  0.00  0.00    -0.298 NA
ATOM      7  N   UNL     1      -6.282 -12.350  16.978  0.00  0.00    -0.311 N 
ATOM      9  C   UNL     1      -8.221 -13.277  18.377  0.00  0.00    +0.024 C 
ATOM     10  C   UNL     1      -7.104 -11.208  19.065  0.00  0.00    +0.050 C 
ATOM     11  C   UNL     1      -7.507 -12.601  19.541  0.00  0.00    +0.017 C 
ATOM     12  C   UNL     1      -9.462 -12.455  17.970  0.00  0.00    +0.090 C 
ATOM     13  C   UNL     1      -8.369 -10.407  18.682  0.00  0.00    +0.094 C 
ATOM     15  C   UNL     1      -7.225 -13.452  17.222  0.00  0.00    +0.130 C 
ATOM     16  C   UNL     1      -6.154 -11.296  17.885  0.00  0.00    +0.026 A 
ATOM     21  C   UNL     1      -5.211 -10.360  17.701  0.00  0.00    +0.022 A 
ATOM     22  C   UNL     1      -5.451 -12.467  15.847  0.00  0.00    +0.259 A 
ATOM     23  C   UNL     1      -4.425 -11.384  15.648  0.00  0.00    +0.047 A 
ATOM     24  C   UNL     1      -4.339 -10.406  16.560  0.00  0.00    +0.015 A 
ENDROOT
BRANCH   6  14
ATOM      5  O   UNL     1     -12.174  -7.580  13.567  0.00  0.00    -0.276 OA
ATOM      8  N   UNL     1     -11.684  -8.277  15.727  0.00  0.00    -0.302 N 
ATOM     14  C   UNL     1     -10.339 -10.312  17.287  0.00  0.00    +0.060 C 
ATOM     17  C   UNL     1     -10.726 -10.547  15.822  0.00  0.00    +0.038 C 
ATOM     18  C   UNL     1     -10.109  -8.818  17.548  0.00  0.00    +0.038 C 
ATOM     19  C   UNL     1     -11.930  -9.690  15.431  0.00  0.00    +0.109 C 
ATOM     20  C   UNL     1     -11.325  -7.994  17.123  0.00  0.00    +0.109 C 
ATOM     25  C   UNL     1     -11.835  -7.321  14.724  0.00  0.00    +0.212 C 
ATOM     27  C   UNL     1     -11.562  -5.889  15.107  0.00  0.00    +0.109 C 
ENDBRANCH   6  14
BRANCH  23  26
ATOM     26  C   UNL     1      -3.534 -11.382  14.474  0.00  0.00    -0.012 A 
ATOM     28  C   UNL     1      -3.876 -10.646  13.340  0.00  0.00    +0.021 A 
ATOM     29  C   UNL     1      -2.350 -12.118  14.497  0.00  0.00    +0.009 A 
ATOM     30  C   UNL     1      -3.033 -10.645  12.228  0.00  0.00    +0.055 A 
ATOM     31  C   UNL     1      -1.507 -12.118  13.386  0.00  0.00    +0.001 A 
ATOM     32  C   UNL     1      -1.848 -11.381  12.252  0.00  0.00    +0.012 A 
BRANCH  30  33
ATOM      1  F   UNL     1      -2.369  -9.085  10.562  0.00  0.00    -0.166 F 
ATOM      2  F   UNL     1      -3.773 -10.630   9.953  0.00  0.00    -0.166 F 
ATOM      3  F   UNL     1      -4.441  -8.998  11.216  0.00  0.00    -0.166 F 
ATOM     33  C   UNL     1      -3.399  -9.857  11.016  0.00  0.00    +0.417 C 
ENDBRANCH  30  33
ENDBRANCH  23  26
TORSDOF 3
ENDMDL
MODEL 8
REMARK VINA RESULT:      -7.4     23.656     26.651
REMARK  Name = 25388691
REMARK  4 active torsions:
REMARK  status: ('A' for Active; 'I' for Inactive)
REMARK    1  A    between atoms: N_6  and  C_14
REMARK    2  A    between atoms: C_23  and  C_26
REMARK    3  A    between atoms: C_25  and  C_27
REMARK    4  A    between atoms: C_30  and  C_33
REMARK                            x       y       z     vdW  Elec       q    Type
REMARK                         _______ _______ _______ _____ _____    ______ ____
ROOT
ATOM      4  O   UNL     1      -7.154 -11.193   9.483  0.00  0.00    -0.267 OA
ATOM      6  N   UNL     1      -4.347 -11.006  13.636  0.00  0.00    -0.298 NA
ATOM      7  N   UNL     1      -5.078 -11.275  10.543  0.00  0.00    -0.311 N 
ATOM      9  C   UNL     1      -4.464 -13.090  12.246  0.00  0.00    +0.024 C 
ATOM     10  C   UNL     1      -2.833 -11.354  11.679  0.00  0.00    +0.050 C 
ATOM     11  C   UNL     1      -3.042 -12.864  11.752  0.00  0.00    +0.017 C 
ATOM     12  C   UNL     1      -4.651 -12.442  13.635  0.00  0.00    +0.090 C 
ATOM     13  C   UNL     1      -3.009 -10.739  13.087  0.00  0.00    +0.094 C 
ATOM     15  C   UNL     1      -5.444 -12.537  11.201  0.00  0.00    +0.130 C 
ATOM     16  C   UNL     1      -3.805 -10.722  10.699  0.00  0.00    +0.026 A 
ATOM     21  C   UNL     1      -3.453  -9.631  10.001  0.00  0.00    +0.022 A 
ATOM     22  C   UNL     1      -6.033 -10.715   9.672  0.00  0.00    +0.259 A 
ATOM     23  C   UNL     1      -5.623  -9.472   8.929  0.00  0.00    +0.047 A 
ATOM     24  C   UNL     1      -4.382  -8.997   9.108  0.00  0.00    +0.015 A 
ENDROOT
BRANCH   6  14
ATOM      5  O   UNL     1      -5.590 -11.920  19.587  0.00  0.00    -0.276 OA
ATOM      8  N   UNL     1      -5.514 -10.601  17.678  0.00  0.00    -0.302 N 
ATOM     14  C   UNL     1      -4.485 -10.442  14.976  0.00  0.00    +0.060 C 
ATOM     17  C   UNL     1      -3.878 -11.395  16.013  0.00  0.00    +0.038 C 
ATOM     18  C   UNL     1      -5.964 -10.181  15.288  0.00  0.00    +0.038 C 
ATOM     19  C   UNL     1      -4.095 -10.869  17.431  0.00  0.00    +0.109 C 
ATOM     20  C   UNL     1      -6.141  -9.679  16.722  0.00  0.00    +0.109 C 
ATOM     25  C   UNL     1      -6.149 -11.177  18.777  0.00  0.00    +0.212 C 
ATOM     27  C   UNL     1      -7.610 -10.854  18.960  0.00  0.00    +0.109 C 
ENDBRANCH   6  14
BRANCH  23  26
ATOM     26  C   UNL     1      -6.558  -8.777   8.028  0.00  0.00    -0.012 A 
ATOM     28  C   UNL     1      -6.683  -9.186   6.700  0.00  0.00    +0.021 A 
ATOM     29  C   UNL     1      -7.318  -7.708   8.502  0.00  0.00    +0.009 A 
ATOM     30  C   UNL     1      -7.569  -8.527   5.847  0.00  0.00    +0.055 A 
ATOM     31  C   UNL     1      -8.203  -7.048   7.649  0.00  0.00    +0.001 A 
ATOM     32  C   UNL     1      -8.329  -7.458   6.322  0.00  0.00    +0.012 A 
BRANCH  30  33
ATOM      1  F   UNL     1      -6.915 -10.043   4.136  0.00  0.00    -0.166 F 
ATOM      2  F   UNL     1      -8.971  -9.336   4.086  0.00  0.00    -0.166 F 
ATOM      3  F   UNL     1      -7.355  -8.004   3.523  0.00  0.00    -0.166 F 
ATOM     33  C   UNL     1      -7.701  -8.965   4.428  0.00  0.00    +0.417 C 
ENDBRANCH  30  33
ENDBRANCH  23  26
TORSDOF 3
ENDMDL
MODEL 9
REMARK VINA RESULT:      -7.4     27.505     29.388
REMARK  Name = 25388691
REMARK  4 active torsions:
REMARK  status: ('A' for Active; 'I' for Inactive)
REMARK    1  A    between atoms: N_6  and  C_14
REMARK    2  A    between atoms: C_23  and  C_26
REMARK    3  A    between atoms: C_25  and  C_27
REMARK    4  A    between atoms: C_30  and  C_33
REMARK                            x       y       z     vdW  Elec       q    Type
REMARK                         _______ _______ _______ _____ _____    ______ ____
ROOT
ATOM      4  O   UNL     1      -9.504 -10.504  14.774  0.00  0.00    -0.267 OA
ATOM      6  N   UNL     1     -12.302  -6.511  13.597  0.00  0.00    -0.298 NA
ATOM      7  N   UNL     1     -11.136  -8.930  15.319  0.00  0.00    -0.311 N 
ATOM      9  C   UNL     1     -13.355  -8.741  14.049  0.00  0.00    +0.024 C 
ATOM     10  C   UNL     1     -12.891  -7.228  15.918  0.00  0.00    +0.050 C 
ATOM     11  C   UNL     1     -13.901  -8.236  15.378  0.00  0.00    +0.017 C 
ATOM     12  C   UNL     1     -13.178  -7.563  13.068  0.00  0.00    +0.090 C 
ATOM     13  C   UNL     1     -12.750  -6.054  14.922  0.00  0.00    +0.094 C 
ATOM     15  C   UNL     1     -12.043  -9.495  14.309  0.00  0.00    +0.130 C 
ATOM     16  C   UNL     1     -11.545  -7.888  16.153  0.00  0.00    +0.026 A 
ATOM     21  C   UNL     1     -10.744  -7.463  17.142  0.00  0.00    +0.022 A 
ATOM     22  C   UNL     1      -9.885  -9.560  15.469  0.00  0.00    +0.259 A 
ATOM     23  C   UNL     1      -8.994  -9.039  16.564  0.00  0.00    +0.047 A 
ATOM     24  C   UNL     1      -9.447  -8.046  17.343  0.00  0.00    +0.015 A 
ENDROOT
BRANCH   6  14
ATOM      5  O   UNL     1     -15.175  -2.270  10.197  0.00  0.00    -0.276 OA
ATOM      8  N   UNL     1     -13.389  -3.685  10.650  0.00  0.00    -0.302 N 
ATOM     14  C   UNL     1     -12.202  -5.393  12.664  0.00  0.00    +0.060 C 
ATOM     17  C   UNL     1     -13.223  -4.309  13.029  0.00  0.00    +0.038 C 
ATOM     18  C   UNL     1     -12.431  -5.883  11.228  0.00  0.00    +0.038 C 
ATOM     19  C   UNL     1     -13.201  -3.172  12.009  0.00  0.00    +0.109 C 
ATOM     20  C   UNL     1     -12.425  -4.715  10.242  0.00  0.00    +0.109 C 
ATOM     25  C   UNL     1     -14.400  -3.163   9.845  0.00  0.00    +0.212 C 
ATOM     27  C   UNL     1     -14.531  -3.745   8.460  0.00  0.00    +0.109 C 
ENDBRANCH   6  14
BRANCH  23  26
ATOM     26  C   UNL     1      -7.646  -9.593  16.781  0.00  0.00    -0.012 A 
ATOM     28  C   UNL     1      -7.333 -10.217  17.988  0.00  0.00    +0.021 A 
ATOM     29  C   UNL     1      -6.682  -9.492  15.778  0.00  0.00    +0.009 A 
ATOM     30  C   UNL     1      -6.056 -10.741  18.194  0.00  0.00    +0.055 A 
ATOM     31  C   UNL     1      -5.405 -10.015  15.983  0.00  0.00    +0.001 A 
ATOM     32  C   UNL     1      -5.092 -10.639  17.190  0.00  0.00    +0.012 A 
BRANCH  30  33
ATOM      1  F   UNL     1      -5.957 -10.605  20.565  0.00  0.00    -0.166 F 
ATOM      2  F   UNL     1      -6.441 -12.547  19.714  0.00  0.00    -0.166 F 
ATOM      3  F   UNL     1      -4.415 -11.784  19.586  0.00  0.00    -0.166 F 
ATOM     33  C   UNL     1      -5.723 -11.407  19.485  0.00  0.00    +0.417 C 
ENDBRANCH  30  33
ENDBRANCH  23  26
TORSDOF 3
ENDMDL
MODEL 10
REMARK VINA RESULT:      -7.3     25.030     28.740
REMARK  Name = 25388691
REMARK  4 active torsions:
REMARK  status: ('A' for Active; 'I' for Inactive)
REMARK    1  A    between atoms: N_6  and  C_14
REMARK    2  A    between atoms: C_23  and  C_26
REMARK    3  A    between atoms: C_25  and  C_27
REMARK    4  A    between atoms: C_30  and  C_33
REMARK                            x       y       z     vdW  Elec       q    Type
REMARK                         _______ _______ _______ _____ _____    ______ ____
ROOT
ATOM      4  O   UNL     1      -7.257 -11.904  13.470  0.00  0.00    -0.267 OA
ATOM      6  N   UNL     1     -10.043  -9.364  16.776  0.00  0.00    -0.298 NA
ATOM      7  N   UNL     1      -7.737 -11.263  15.660  0.00  0.00    -0.311 N 
ATOM      9  C   UNL     1      -9.937 -11.868  16.828  0.00  0.00    +0.024 C 
ATOM     10  C   UNL     1      -8.243 -10.566  18.025  0.00  0.00    +0.050 C 
ATOM     11  C   UNL     1      -9.101 -11.826  18.100  0.00  0.00    +0.017 C 
ATOM     12  C   UNL     1     -10.822 -10.607  16.734  0.00  0.00    +0.090 C 
ATOM     13  C   UNL     1      -9.159  -9.322  17.950  0.00  0.00    +0.094 C 
ATOM     15  C   UNL     1      -8.997 -12.019  15.623  0.00  0.00    +0.130 C 
ATOM     16  C   UNL     1      -7.317 -10.615  16.823  0.00  0.00    +0.026 A 
ATOM     21  C   UNL     1      -6.113 -10.026  16.870  0.00  0.00    +0.022 A 
ATOM     22  C   UNL     1      -6.935 -11.315  14.503  0.00  0.00    +0.259 A 
ATOM     23  C   UNL     1      -5.603 -10.616  14.573  0.00  0.00    +0.047 A 
ATOM     24  C   UNL     1      -5.249 -10.024  15.723  0.00  0.00    +0.015 A 
ENDROOT
BRANCH   6  14
ATOM      5  O   UNL     1     -14.288  -6.109  13.744  0.00  0.00    -0.276 OA
ATOM      8  N   UNL     1     -12.529  -6.306  15.248  0.00  0.00    -0.302 N 
ATOM     14  C   UNL     1     -10.919  -8.195  16.738  0.00  0.00    +0.060 C 
ATOM     17  C   UNL     1     -12.288  -8.581  16.167  0.00  0.00    +0.038 C 
ATOM     18  C   UNL     1     -10.279  -7.084  15.895  0.00  0.00    +0.038 C 
ATOM     19  C   UNL     1     -13.189  -7.354  16.031  0.00  0.00    +0.109 C 
ATOM     20  C   UNL     1     -11.220  -5.886  15.763  0.00  0.00    +0.109 C 
ATOM     25  C   UNL     1     -13.170  -5.764  14.135  0.00  0.00    +0.212 C 
ATOM     27  C   UNL     1     -12.425  -4.692  13.381  0.00  0.00    +0.109 C 
ENDBRANCH   6  14
BRANCH  23  26
ATOM     26  C   UNL     1      -4.704 -10.567  13.407  0.00  0.00    -0.012 A 
ATOM     28  C   UNL     1      -5.047  -9.804  12.292  0.00  0.00    +0.021 A 
ATOM     29  C   UNL     1      -3.509 -11.287  13.418  0.00  0.00    +0.009 A 
ATOM     30  C   UNL     1      -4.196  -9.758  11.187  0.00  0.00    +0.055 A 
ATOM     31  C   UNL     1      -2.658 -11.243  12.314  0.00  0.00    +0.001 A 
ATOM     32  C   UNL     1      -3.000 -10.478  11.199  0.00  0.00    +0.012 A 
BRANCH  30  33
ATOM      1  F   UNL     1      -3.516  -8.759   9.140  0.00  0.00    -0.166 F 
ATOM      2  F   UNL     1      -5.560  -9.493   9.240  0.00  0.00    -0.166 F 
ATOM      3  F   UNL     1      -5.005  -7.688  10.306  0.00  0.00    -0.166 F 
ATOM     33  C   UNL     1      -4.564  -8.942   9.996  0.00  0.00    +0.417 C 
ENDBRANCH  30  33
ENDBRANCH  23  26
TORSDOF 3
ENDMDL
