MODEL 1
REMARK VINA RESULT:      -7.2      0.000      0.000
REMARK  Name = 11885339
REMARK  7 active torsions:
REMARK  status: ('A' for Active; 'I' for Inactive)
REMARK    1  A    between atoms: N_2  and  C_12
REMARK    2  A    between atoms: N_4  and  C_25
REMARK    3  A    between atoms: N_4  and  C_30
REMARK    4  A    between atoms: N_4  and  C_31
REMARK    5  A    between atoms: C_12  and  C_17
REMARK    6  A    between atoms: C_15  and  C_18
REMARK    7  A    between atoms: C_21  and  C_25
REMARK                            x       y       z     vdW  Elec       q    Type
REMARK                         _______ _______ _______ _____ _____    ______ ____
ROOT
ATOM      1  O   UNL     1      12.266   7.620   2.831  0.00  0.00    -0.267 OA
ATOM      2  N   UNL     1      13.575   4.506  -0.875  0.00  0.00    -0.297 NA
ATOM      3  N   UNL     1      12.836   5.493   2.066  0.00  0.00    -0.311 N 
ATOM      5  C   UNL     1      15.124   4.956   1.044  0.00  0.00    +0.024 C 
ATOM      6  C   UNL     1      13.439   3.191   1.245  0.00  0.00    +0.050 C 
ATOM      7  C   UNL     1      14.878   3.558   1.596  0.00  0.00    +0.017 C 
ATOM      8  C   UNL     1      14.913   4.966  -0.485  0.00  0.00    +0.090 C 
ATOM      9  C   UNL     1      13.266   3.192  -0.291  0.00  0.00    +0.094 C 
ATOM     10  C   UNL     1      14.204   5.945   1.773  0.00  0.00    +0.130 C 
ATOM     11  C   UNL     1      12.463   4.158   1.889  0.00  0.00    +0.026 A 
ATOM     13  C   UNL     1      11.245   3.742   2.270  0.00  0.00    +0.022 A 
ATOM     14  C   UNL     1      11.962   6.443   2.629  0.00  0.00    +0.259 A 
ATOM     15  C   UNL     1      10.590   5.956   3.013  0.00  0.00    +0.047 A 
ATOM     16  C   UNL     1      10.296   4.659   2.834  0.00  0.00    +0.015 A 
ENDROOT
BRANCH  15  18
ATOM     18  C   UNL     1       9.581   6.874   3.568  0.00  0.00    -0.008 A 
ATOM     21  C   UNL     1       9.252   6.860   4.925  0.00  0.00    -0.026 A 
ATOM     22  C   UNL     1       8.945   7.774   2.710  0.00  0.00    +0.009 A 
ATOM     26  C   UNL     1       8.292   7.742   5.423  0.00  0.00    +0.005 A 
ATOM     28  C   UNL     1       7.984   8.655   3.208  0.00  0.00    +0.001 A 
ATOM     29  C   UNL     1       7.658   8.639   4.564  0.00  0.00    +0.000 A 
BRANCH  21  25
ATOM     25  C   UNL     1       9.911   5.912   5.875  0.00  0.00    +0.119 C 
BRANCH  25   4
ATOM      4  N   UNL     1      10.710   6.605   6.885  0.00  0.00    -0.304 NA
ATOM     30  C   UNL     1      12.084   6.780   6.415  0.00  0.00    +0.104 C 
ATOM     31  C   UNL     1      10.692   5.867   8.147  0.00  0.00    +0.104 C 
ENDBRANCH  25   4
ENDBRANCH  21  25
ENDBRANCH  15  18
BRANCH   2  12
ATOM     12  C   UNL     1      13.434   4.480  -2.329  0.00  0.00    +0.119 C 
BRANCH  12  17
ATOM     17  C   UNL     1      12.014   4.207  -2.750  0.00  0.00    -0.033 A 
ATOM     19  C   UNL     1      11.001   5.060  -2.332  0.00  0.00    +0.005 A 
ATOM     20  C   UNL     1      11.738   3.107  -3.550  0.00  0.00    +0.005 A 
ATOM     23  C   UNL     1       9.686   4.807  -2.722  0.00  0.00    +0.000 A 
ATOM     24  C   UNL     1      10.422   2.855  -3.940  0.00  0.00    +0.000 A 
ATOM     27  C   UNL     1       9.397   3.705  -3.526  0.00  0.00    +0.000 A 
ENDBRANCH  12  17
ENDBRANCH   2  12
TORSDOF 5
ENDMDL
MODEL 2
REMARK VINA RESULT:      -7.0     23.408     26.113
REMARK  Name = 11885339
REMARK  7 active torsions:
REMARK  status: ('A' for Active; 'I' for Inactive)
REMARK    1  A    between atoms: N_2  and  C_12
REMARK    2  A    between atoms: N_4  and  C_25
REMARK    3  A    between atoms: N_4  and  C_30
REMARK    4  A    between atoms: N_4  and  C_31
REMARK    5  A    between atoms: C_12  and  C_17
REMARK    6  A    between atoms: C_15  and  C_18
REMARK    7  A    between atoms: C_21  and  C_25
REMARK                            x       y       z     vdW  Elec       q    Type
REMARK                         _______ _______ _______ _____ _____    ______ ____
ROOT
ATOM      1  O   UNL     1      -6.078 -11.744  11.007  0.00  0.00    -0.267 OA
ATOM      2  N   UNL     1      -3.145 -11.043  15.014  0.00  0.00    -0.297 NA
ATOM      3  N   UNL     1      -3.968 -11.668  11.997  0.00  0.00    -0.311 N 
ATOM      5  C   UNL     1      -3.258 -13.270  13.868  0.00  0.00    +0.024 C 
ATOM      6  C   UNL     1      -1.686 -11.576  13.056  0.00  0.00    +0.050 C 
ATOM      7  C   UNL     1      -1.857 -13.072  13.303  0.00  0.00    +0.017 C 
ATOM      8  C   UNL     1      -3.415 -12.476  15.182  0.00  0.00    +0.090 C 
ATOM      9  C   UNL     1      -1.832 -10.812  14.393  0.00  0.00    +0.094 C 
ATOM     10  C   UNL     1      -4.283 -12.857  12.803  0.00  0.00    +0.130 C 
ATOM     11  C   UNL     1      -2.704 -11.076  12.047  0.00  0.00    +0.026 A 
ATOM     13  C   UNL     1      -2.400 -10.063  11.221  0.00  0.00    +0.022 A 
ATOM     14  C   UNL     1      -4.964 -11.227  11.104  0.00  0.00    +0.259 A 
ATOM     15  C   UNL     1      -4.607 -10.065  10.215  0.00  0.00    +0.047 A 
ATOM     16  C   UNL     1      -3.371  -9.549  10.296  0.00  0.00    +0.015 A 
ENDROOT
BRANCH  15  18
ATOM     18  C   UNL     1      -5.587  -9.494   9.275  0.00  0.00    -0.008 A 
ATOM     21  C   UNL     1      -5.715  -9.979   7.972  0.00  0.00    -0.026 A 
ATOM     22  C   UNL     1      -6.400  -8.443   9.706  0.00  0.00    +0.009 A 
ATOM     26  C   UNL     1      -6.652  -9.418   7.104  0.00  0.00    +0.005 A 
ATOM     28  C   UNL     1      -7.337  -7.881   8.837  0.00  0.00    +0.001 A 
ATOM     29  C   UNL     1      -7.462  -8.369   7.537  0.00  0.00    +0.000 A 
BRANCH  21  25
ATOM     25  C   UNL     1      -4.863 -11.102   7.473  0.00  0.00    +0.119 C 
BRANCH  25   4
ATOM      4  N   UNL     1      -5.444 -11.763   6.306  0.00  0.00    -0.304 NA
ATOM     30  C   UNL     1      -5.935 -13.094   6.663  0.00  0.00    +0.104 C 
ATOM     31  C   UNL     1      -4.462 -11.853   5.227  0.00  0.00    +0.104 C 
ENDBRANCH  25   4
ENDBRANCH  21  25
ENDBRANCH  15  18
BRANCH   2  12
ATOM     12  C   UNL     1      -3.252 -10.337  16.288  0.00  0.00    +0.119 C 
BRANCH  12  17
ATOM     17  C   UNL     1      -4.677 -10.257  16.767  0.00  0.00    -0.033 A 
ATOM     19  C   UNL     1      -5.645  -9.695  15.945  0.00  0.00    +0.005 A 
ATOM     20  C   UNL     1      -5.004 -10.747  18.024  0.00  0.00    +0.005 A 
ATOM     23  C   UNL     1      -6.965  -9.621  16.389  0.00  0.00    +0.000 A 
ATOM     24  C   UNL     1      -6.325 -10.674  18.467  0.00  0.00    +0.000 A 
ATOM     27  C   UNL     1      -7.305 -10.111  17.651  0.00  0.00    +0.000 A 
ENDBRANCH  12  17
ENDBRANCH   2  12
TORSDOF 5
ENDMDL
MODEL 3
REMARK VINA RESULT:      -6.7     32.758     35.903
REMARK  Name = 11885339
REMARK  7 active torsions:
REMARK  status: ('A' for Active; 'I' for Inactive)
REMARK    1  A    between atoms: N_2  and  C_12
REMARK    2  A    between atoms: N_4  and  C_25
REMARK    3  A    between atoms: N_4  and  C_30
REMARK    4  A    between atoms: N_4  and  C_31
REMARK    5  A    between atoms: C_12  and  C_17
REMARK    6  A    between atoms: C_15  and  C_18
REMARK    7  A    between atoms: C_21  and  C_25
REMARK                            x       y       z     vdW  Elec       q    Type
REMARK                         _______ _______ _______ _____ _____    ______ ____
ROOT
ATOM      1  O   UNL     1       8.980 -11.947  31.991  0.00  0.00    -0.267 OA
ATOM      2  N   UNL     1       6.718  -8.650  35.017  0.00  0.00    -0.297 NA
ATOM      3  N   UNL     1       8.336  -9.766  32.507  0.00  0.00    -0.311 N 
ATOM      5  C   UNL     1       9.184  -8.527  34.584  0.00  0.00    +0.024 C 
ATOM      6  C   UNL     1       7.635  -7.411  33.051  0.00  0.00    +0.050 C 
ATOM      7  C   UNL     1       8.992  -7.277  33.735  0.00  0.00    +0.017 C 
ATOM      8  C   UNL     1       8.052  -8.636  35.628  0.00  0.00    +0.090 C 
ATOM      9  C   UNL     1       6.523  -7.500  34.122  0.00  0.00    +0.094 C 
ATOM     10  C   UNL     1       9.251  -9.749  33.657  0.00  0.00    +0.130 C 
ATOM     11  C   UNL     1       7.602  -8.632  32.151  0.00  0.00    +0.026 A 
ATOM     13  C   UNL     1       6.860  -8.633  31.032  0.00  0.00    +0.022 A 
ATOM     14  C   UNL     1       8.320 -10.940  31.728  0.00  0.00    +0.259 A 
ATOM     15  C   UNL     1       7.451 -10.923  30.499  0.00  0.00    +0.047 A 
ATOM     16  C   UNL     1       6.783  -9.799  30.200  0.00  0.00    +0.015 A 
ENDROOT
BRANCH  15  18
ATOM     18  C   UNL     1       7.325 -12.111  29.637  0.00  0.00    -0.008 A 
ATOM     21  C   UNL     1       6.405 -13.122  29.921  0.00  0.00    -0.026 A 
ATOM     22  C   UNL     1       8.148 -12.219  28.513  0.00  0.00    +0.009 A 
ATOM     26  C   UNL     1       6.307 -14.236  29.086  0.00  0.00    +0.005 A 
ATOM     28  C   UNL     1       8.051 -13.333  27.679  0.00  0.00    +0.001 A 
ATOM     29  C   UNL     1       7.131 -14.342  27.966  0.00  0.00    +0.000 A 
BRANCH  21  25
ATOM     25  C   UNL     1       5.506 -13.044  31.113  0.00  0.00    +0.119 C 
BRANCH  25   4
ATOM      4  N   UNL     1       5.509 -14.281  31.893  0.00  0.00    -0.304 NA
ATOM     30  C   UNL     1       4.147 -14.642  32.283  0.00  0.00    +0.104 C 
ATOM     31  C   UNL     1       6.359 -14.139  33.074  0.00  0.00    +0.104 C 
ENDBRANCH  25   4
ENDBRANCH  21  25
ENDBRANCH  15  18
BRANCH   2  12
ATOM     12  C   UNL     1       5.675  -8.701  36.039  0.00  0.00    +0.119 C 
BRANCH  12  17
ATOM     17  C   UNL     1       4.599  -9.697  35.695  0.00  0.00    -0.033 A 
ATOM     19  C   UNL     1       4.919 -10.812  34.932  0.00  0.00    +0.005 A 
ATOM     20  C   UNL     1       3.304  -9.487  36.146  0.00  0.00    +0.005 A 
ATOM     23  C   UNL     1       3.923 -11.734  34.613  0.00  0.00    +0.000 A 
ATOM     24  C   UNL     1       2.308 -10.411  35.828  0.00  0.00    +0.000 A 
ATOM     27  C   UNL     1       2.617 -11.534  35.061  0.00  0.00    +0.000 A 
ENDBRANCH  12  17
ENDBRANCH   2  12
TORSDOF 5
ENDMDL
MODEL 4
REMARK VINA RESULT:      -6.7      1.394      2.775
REMARK  Name = 11885339
REMARK  7 active torsions:
REMARK  status: ('A' for Active; 'I' for Inactive)
REMARK    1  A    between atoms: N_2  and  C_12
REMARK    2  A    between atoms: N_4  and  C_25
REMARK    3  A    between atoms: N_4  and  C_30
REMARK    4  A    between atoms: N_4  and  C_31
REMARK    5  A    between atoms: C_12  and  C_17
REMARK    6  A    between atoms: C_15  and  C_18
REMARK    7  A    between atoms: C_21  and  C_25
REMARK                            x       y       z     vdW  Elec       q    Type
REMARK                         _______ _______ _______ _____ _____    ______ ____
ROOT
ATOM      1  O   UNL     1      12.478   7.279   3.722  0.00  0.00    -0.267 OA
ATOM      2  N   UNL     1      13.143   5.062  -0.726  0.00  0.00    -0.297 NA
ATOM      3  N   UNL     1      12.909   5.381   2.438  0.00  0.00    -0.311 N 
ATOM      5  C   UNL     1      14.993   5.151   0.964  0.00  0.00    +0.024 C 
ATOM      6  C   UNL     1      13.364   3.326   1.058  0.00  0.00    +0.050 C 
ATOM      7  C   UNL     1      14.842   3.661   1.238  0.00  0.00    +0.017 C 
ATOM      8  C   UNL     1      14.528   5.475  -0.472  0.00  0.00    +0.090 C 
ATOM      9  C   UNL     1      12.935   3.644  -0.393  0.00  0.00    +0.094 C 
ATOM     10  C   UNL     1      14.209   5.932   2.028  0.00  0.00    +0.130 C 
ATOM     11  C   UNL     1      12.511   4.102   2.045  0.00  0.00    +0.026 A 
ATOM     13  C   UNL     1      11.373   3.573   2.523  0.00  0.00    +0.022 A 
ATOM     14  C   UNL     1      12.143   6.161   3.326  0.00  0.00    +0.259 A 
ATOM     15  C   UNL     1      10.855   5.556   3.818  0.00  0.00    +0.047 A 
ATOM     16  C   UNL     1      10.533   4.317   3.418  0.00  0.00    +0.015 A 
ENDROOT
BRANCH  15  18
ATOM     18  C   UNL     1       9.954   6.302   4.714  0.00  0.00    -0.008 A 
ATOM     21  C   UNL     1       9.014   7.206   4.214  0.00  0.00    -0.026 A 
ATOM     22  C   UNL     1      10.051   6.093   6.092  0.00  0.00    +0.009 A 
ATOM     26  C   UNL     1       8.174   7.897   5.088  0.00  0.00    +0.005 A 
ATOM     28  C   UNL     1       9.212   6.786   6.965  0.00  0.00    +0.001 A 
ATOM     29  C   UNL     1       8.274   7.688   6.463  0.00  0.00    +0.000 A 
BRANCH  21  25
ATOM     25  C   UNL     1       8.880   7.456   2.747  0.00  0.00    +0.119 C 
BRANCH  25   4
ATOM      4  N   UNL     1       9.138   8.852   2.397  0.00  0.00    -0.304 NA
ATOM     30  C   UNL     1       7.971   9.437   1.735  0.00  0.00    +0.104 C 
ATOM     31  C   UNL     1      10.317   8.955   1.538  0.00  0.00    +0.104 C 
ENDBRANCH  25   4
ENDBRANCH  21  25
ENDBRANCH  15  18
BRANCH   2  12
ATOM     12  C   UNL     1      12.759   5.337  -2.108  0.00  0.00    +0.119 C 
BRANCH  12  17
ATOM     17  C   UNL     1      11.277   5.564  -2.245  0.00  0.00    -0.033 A 
ATOM     19  C   UNL     1      10.534   4.744  -3.084  0.00  0.00    +0.005 A 
ATOM     20  C   UNL     1      10.674   6.589  -1.530  0.00  0.00    +0.005 A 
ATOM     23  C   UNL     1       9.162   4.955  -3.211  0.00  0.00    +0.000 A 
ATOM     24  C   UNL     1       9.301   6.799  -1.656  0.00  0.00    +0.000 A 
ATOM     27  C   UNL     1       8.545   5.983  -2.496  0.00  0.00    +0.000 A 
ENDBRANCH  12  17
ENDBRANCH   2  12
TORSDOF 5
ENDMDL
MODEL 5
REMARK VINA RESULT:      -6.5     32.077     35.615
REMARK  Name = 11885339
REMARK  7 active torsions:
REMARK  status: ('A' for Active; 'I' for Inactive)
REMARK    1  A    between atoms: N_2  and  C_12
REMARK    2  A    between atoms: N_4  and  C_25
REMARK    3  A    between atoms: N_4  and  C_30
REMARK    4  A    between atoms: N_4  and  C_31
REMARK    5  A    between atoms: C_12  and  C_17
REMARK    6  A    between atoms: C_15  and  C_18
REMARK    7  A    between atoms: C_21  and  C_25
REMARK                            x       y       z     vdW  Elec       q    Type
REMARK                         _______ _______ _______ _____ _____    ______ ____
ROOT
ATOM      1  O   UNL     1       8.491 -12.498  32.132  0.00  0.00    -0.267 OA
ATOM      2  N   UNL     1       6.711  -8.728  34.918  0.00  0.00    -0.297 NA
ATOM      3  N   UNL     1       8.215 -10.218  32.534  0.00  0.00    -0.311 N 
ATOM      5  C   UNL     1       9.177  -9.052  34.604  0.00  0.00    +0.024 C 
ATOM      6  C   UNL     1       7.912  -7.755  32.956  0.00  0.00    +0.050 C 
ATOM      7  C   UNL     1       9.242  -7.826  33.701  0.00  0.00    +0.017 C 
ATOM      8  C   UNL     1       8.000  -8.917  35.594  0.00  0.00    +0.090 C 
ATOM      9  C   UNL     1       6.758  -7.603  33.973  0.00  0.00    +0.094 C 
ATOM     10  C   UNL     1       9.070 -10.307  33.728  0.00  0.00    +0.130 C 
ATOM     11  C   UNL     1       7.705  -8.992  32.101  0.00  0.00    +0.026 A 
ATOM     13  C   UNL     1       7.023  -8.915  30.947  0.00  0.00    +0.022 A 
ATOM     14  C   UNL     1       8.028 -11.405  31.800  0.00  0.00    +0.259 A 
ATOM     15  C   UNL     1       7.229 -11.295  30.529  0.00  0.00    +0.047 A 
ATOM     16  C   UNL     1       6.779 -10.087  30.156  0.00  0.00    +0.015 A 
ENDROOT
BRANCH  15  18
ATOM     18  C   UNL     1       6.934 -12.481  29.706  0.00  0.00    -0.008 A 
ATOM     21  C   UNL     1       7.806 -12.904  28.700  0.00  0.00    -0.026 A 
ATOM     22  C   UNL     1       5.754 -13.190  29.945  0.00  0.00    +0.009 A 
ATOM     26  C   UNL     1       7.500 -14.032  27.937  0.00  0.00    +0.005 A 
ATOM     28  C   UNL     1       5.449 -14.317  29.181  0.00  0.00    +0.001 A 
ATOM     29  C   UNL     1       6.321 -14.738  28.177  0.00  0.00    +0.000 A 
BRANCH  21  25
ATOM     25  C   UNL     1       9.077 -12.173  28.415  0.00  0.00    +0.119 C 
BRANCH  25   4
ATOM      4  N   UNL     1      10.236 -13.064  28.389  0.00  0.00    -0.304 NA
ATOM     30  C   UNL     1      10.591 -13.480  29.746  0.00  0.00    +0.104 C 
ATOM     31  C   UNL     1      11.372 -12.408  27.743  0.00  0.00    +0.104 C 
ENDBRANCH  25   4
ENDBRANCH  21  25
ENDBRANCH  15  18
BRANCH   2  12
ATOM     12  C   UNL     1       5.632  -8.552  35.888  0.00  0.00    +0.119 C 
BRANCH  12  17
ATOM     17  C   UNL     1       4.534  -9.564  35.697  0.00  0.00    -0.033 A 
ATOM     19  C   UNL     1       4.760 -10.675  34.895  0.00  0.00    +0.005 A 
ATOM     20  C   UNL     1       3.312  -9.373  36.325  0.00  0.00    +0.005 A 
ATOM     23  C   UNL     1       3.743 -11.612  34.717  0.00  0.00    +0.000 A 
ATOM     24  C   UNL     1       2.295 -10.312  36.148  0.00  0.00    +0.000 A 
ATOM     27  C   UNL     1       2.510 -11.431  35.344  0.00  0.00    +0.000 A 
ENDBRANCH  12  17
ENDBRANCH   2  12
TORSDOF 5
ENDMDL
MODEL 6
REMARK VINA RESULT:      -6.4     33.656     36.439
REMARK  Name = 11885339
REMARK  7 active torsions:
REMARK  status: ('A' for Active; 'I' for Inactive)
REMARK    1  A    between atoms: N_2  and  C_12
REMARK    2  A    between atoms: N_4  and  C_25
REMARK    3  A    between atoms: N_4  and  C_30
REMARK    4  A    between atoms: N_4  and  C_31
REMARK    5  A    between atoms: C_12  and  C_17
REMARK    6  A    between atoms: C_15  and  C_18
REMARK    7  A    between atoms: C_21  and  C_25
REMARK                            x       y       z     vdW  Elec       q    Type
REMARK                         _______ _______ _______ _____ _____    ______ ____
ROOT
ATOM      1  O   UNL     1       9.381  -9.497  32.917  0.00  0.00    -0.267 OA
ATOM      2  N   UNL     1       8.551  -5.913  36.325  0.00  0.00    -0.297 NA
ATOM      3  N   UNL     1       8.736  -7.326  33.472  0.00  0.00    -0.311 N 
ATOM      5  C   UNL     1      10.328  -5.649  34.576  0.00  0.00    +0.024 C 
ATOM      6  C   UNL     1       8.028  -4.985  34.065  0.00  0.00    +0.050 C 
ATOM      7  C   UNL     1       9.490  -4.602  33.854  0.00  0.00    +0.017 C 
ATOM      8  C   UNL     1       9.977  -5.663  36.079  0.00  0.00    +0.090 C 
ATOM      9  C   UNL     1       7.704  -4.973  35.576  0.00  0.00    +0.094 C 
ATOM     10  C   UNL     1      10.106  -7.011  33.905  0.00  0.00    +0.130 C 
ATOM     11  C   UNL     1       7.736  -6.351  33.472  0.00  0.00    +0.026 A 
ATOM     13  C   UNL     1       6.524  -6.628  32.966  0.00  0.00    +0.022 A 
ATOM     14  C   UNL     1       8.515  -8.621  32.965  0.00  0.00    +0.259 A 
ATOM     15  C   UNL     1       7.136  -8.914  32.438  0.00  0.00    +0.047 A 
ATOM     16  C   UNL     1       6.222  -7.932  32.448  0.00  0.00    +0.015 A 
ENDROOT
BRANCH  15  18
ATOM     18  C   UNL     1       6.782 -10.249  31.924  0.00  0.00    -0.008 A 
ATOM     21  C   UNL     1       6.313 -11.254  32.773  0.00  0.00    -0.026 A 
ATOM     22  C   UNL     1       6.923 -10.505  30.558  0.00  0.00    +0.009 A 
ATOM     26  C   UNL     1       5.985 -12.509  32.258  0.00  0.00    +0.005 A 
ATOM     28  C   UNL     1       6.596 -11.760  30.044  0.00  0.00    +0.001 A 
ATOM     29  C   UNL     1       6.127 -12.762  30.893  0.00  0.00    +0.000 A 
BRANCH  21  25
ATOM     25  C   UNL     1       6.148 -11.020  34.240  0.00  0.00    +0.119 C 
BRANCH  25   4
ATOM      4  N   UNL     1       4.748 -11.082  34.658  0.00  0.00    -0.304 NA
ATOM     30  C   UNL     1       4.274  -9.756  35.053  0.00  0.00    +0.104 C 
ATOM     31  C   UNL     1       4.584 -12.032  35.757  0.00  0.00    +0.104 C 
ENDBRANCH  25   4
ENDBRANCH  21  25
ENDBRANCH  15  18
BRANCH   2  12
ATOM     12  C   UNL     1       8.250  -5.866  37.754  0.00  0.00    +0.119 C 
BRANCH  12  17
ATOM     17  C   UNL     1       6.788  -6.098  38.027  0.00  0.00    -0.033 A 
ATOM     19  C   UNL     1       6.192  -7.278  37.603  0.00  0.00    +0.005 A 
ATOM     20  C   UNL     1       6.057  -5.129  38.700  0.00  0.00    +0.005 A 
ATOM     23  C   UNL     1       4.837  -7.492  37.856  0.00  0.00    +0.000 A 
ATOM     24  C   UNL     1       4.702  -5.344  38.954  0.00  0.00    +0.000 A 
ATOM     27  C   UNL     1       4.092  -6.525  38.532  0.00  0.00    +0.000 A 
ENDBRANCH  12  17
ENDBRANCH   2  12
TORSDOF 5
ENDMDL
MODEL 7
REMARK VINA RESULT:      -6.3     15.974     22.801
REMARK  Name = 11885339
REMARK  7 active torsions:
REMARK  status: ('A' for Active; 'I' for Inactive)
REMARK    1  A    between atoms: N_2  and  C_12
REMARK    2  A    between atoms: N_4  and  C_25
REMARK    3  A    between atoms: N_4  and  C_30
REMARK    4  A    between atoms: N_4  and  C_31
REMARK    5  A    between atoms: C_12  and  C_17
REMARK    6  A    between atoms: C_15  and  C_18
REMARK    7  A    between atoms: C_21  and  C_25
REMARK                            x       y       z     vdW  Elec       q    Type
REMARK                         _______ _______ _______ _____ _____    ______ ____
ROOT
ATOM      1  O   UNL     1      14.810  11.349  20.618  0.00  0.00    -0.267 OA
ATOM      2  N   UNL     1      12.157  13.739  24.139  0.00  0.00    -0.297 NA
ATOM      3  N   UNL     1      12.778  12.122  21.461  0.00  0.00    -0.311 N 
ATOM      5  C   UNL     1      12.274  14.613  21.792  0.00  0.00    +0.024 C 
ATOM      6  C   UNL     1      10.580  12.943  22.372  0.00  0.00    +0.050 C 
ATOM      7  C   UNL     1      10.828  14.201  21.546  0.00  0.00    +0.017 C 
ATOM      8  C   UNL     1      12.497  14.890  23.294  0.00  0.00    +0.090 C 
ATOM      9  C   UNL     1      10.794  13.258  23.871  0.00  0.00    +0.094 C 
ATOM     10  C   UNL     1      13.200  13.514  21.251  0.00  0.00    +0.130 C 
ATOM     11  C   UNL     1      11.498  11.818  21.932  0.00  0.00    +0.026 A 
ATOM     13  C   UNL     1      11.094  10.540  22.008  0.00  0.00    +0.022 A 
ATOM     14  C   UNL     1      13.686  11.119  21.068  0.00  0.00    +0.259 A 
ATOM     15  C   UNL     1      13.218   9.694  21.199  0.00  0.00    +0.047 A 
ATOM     16  C   UNL     1      11.972   9.466  21.641  0.00  0.00    +0.015 A 
ENDROOT
BRANCH  15  18
ATOM     18  C   UNL     1      14.101   8.565  20.859  0.00  0.00    -0.008 A 
ATOM     21  C   UNL     1      14.153   8.047  19.563  0.00  0.00    -0.026 A 
ATOM     22  C   UNL     1      14.899   8.009  21.861  0.00  0.00    +0.009 A 
ATOM     26  C   UNL     1      14.999   6.977  19.270  0.00  0.00    +0.005 A 
ATOM     28  C   UNL     1      15.745   6.938  21.568  0.00  0.00    +0.001 A 
ATOM     29  C   UNL     1      15.795   6.422  20.273  0.00  0.00    +0.000 A 
BRANCH  21  25
ATOM     25  C   UNL     1      13.315   8.615  18.464  0.00  0.00    +0.119 C 
BRANCH  25   4
ATOM      4  N   UNL     1      14.113   9.335  17.473  0.00  0.00    -0.304 NA
ATOM     30  C   UNL     1      13.684  10.731  17.389  0.00  0.00    +0.104 C 
ATOM     31  C   UNL     1      14.011   8.689  16.166  0.00  0.00    +0.104 C 
ENDBRANCH  25   4
ENDBRANCH  21  25
ENDBRANCH  15  18
BRANCH   2  12
ATOM     12  C   UNL     1      12.331  14.058  25.554  0.00  0.00    +0.119 C 
BRANCH  12  17
ATOM     17  C   UNL     1      13.420  13.232  26.186  0.00  0.00    -0.033 A 
ATOM     19  C   UNL     1      13.919  12.127  25.511  0.00  0.00    +0.005 A 
ATOM     20  C   UNL     1      13.909  13.588  27.435  0.00  0.00    +0.005 A 
ATOM     23  C   UNL     1      14.927  11.362  26.097  0.00  0.00    +0.000 A 
ATOM     24  C   UNL     1      14.918  12.823  28.021  0.00  0.00    +0.000 A 
ATOM     27  C   UNL     1      15.427  11.710  27.352  0.00  0.00    +0.000 A 
ENDBRANCH  12  17
ENDBRANCH   2  12
TORSDOF 5
ENDMDL
MODEL 8
REMARK VINA RESULT:      -6.2     31.100     34.207
REMARK  Name = 11885339
REMARK  7 active torsions:
REMARK  status: ('A' for Active; 'I' for Inactive)
REMARK    1  A    between atoms: N_2  and  C_12
REMARK    2  A    between atoms: N_4  and  C_25
REMARK    3  A    between atoms: N_4  and  C_30
REMARK    4  A    between atoms: N_4  and  C_31
REMARK    5  A    between atoms: C_12  and  C_17
REMARK    6  A    between atoms: C_15  and  C_18
REMARK    7  A    between atoms: C_21  and  C_25
REMARK                            x       y       z     vdW  Elec       q    Type
REMARK                         _______ _______ _______ _____ _____    ______ ____
ROOT
ATOM      1  O   UNL     1      13.016  -7.083  33.952  0.00  0.00    -0.267 OA
ATOM      2  N   UNL     1       8.126  -7.048  35.058  0.00  0.00    -0.297 NA
ATOM      3  N   UNL     1      11.086  -5.951  34.608  0.00  0.00    -0.311 N 
ATOM      5  C   UNL     1       9.847  -6.477  36.789  0.00  0.00    +0.024 C 
ATOM      6  C   UNL     1       9.004  -4.721  35.305  0.00  0.00    +0.050 C 
ATOM      7  C   UNL     1       9.440  -5.010  36.739  0.00  0.00    +0.017 C 
ATOM      8  C   UNL     1       8.654  -7.371  36.389  0.00  0.00    +0.090 C 
ATOM      9  C   UNL     1       7.798  -5.619  34.942  0.00  0.00    +0.094 C 
ATOM     10  C   UNL     1      11.069  -6.683  35.883  0.00  0.00    +0.130 C 
ATOM     11  C   UNL     1      10.148  -4.954  34.335  0.00  0.00    +0.026 A 
ATOM     13  C   UNL     1      10.250  -4.220  33.216  0.00  0.00    +0.022 A 
ATOM     14  C   UNL     1      12.151  -6.234  33.731  0.00  0.00    +0.259 A 
ATOM     15  C   UNL     1      12.219  -5.420  32.466  0.00  0.00    +0.047 A 
ATOM     16  C   UNL     1      11.299  -4.464  32.267  0.00  0.00    +0.015 A 
ENDROOT
BRANCH  15  18
ATOM     18  C   UNL     1      13.265  -5.662  31.457  0.00  0.00    -0.008 A 
ATOM     21  C   UNL     1      14.436  -4.902  31.426  0.00  0.00    -0.026 A 
ATOM     22  C   UNL     1      13.070  -6.675  30.515  0.00  0.00    +0.009 A 
ATOM     26  C   UNL     1      15.409  -5.154  30.458  0.00  0.00    +0.005 A 
ATOM     28  C   UNL     1      14.043  -6.926  29.547  0.00  0.00    +0.001 A 
ATOM     29  C   UNL     1      15.212  -6.166  29.518  0.00  0.00    +0.000 A 
BRANCH  21  25
ATOM     25  C   UNL     1      14.681  -3.809  32.416  0.00  0.00    +0.119 C 
BRANCH  25   4
ATOM      4  N   UNL     1      15.803  -4.108  33.305  0.00  0.00    -0.304 NA
ATOM     30  C   UNL     1      15.326  -4.354  34.665  0.00  0.00    +0.104 C 
ATOM     31  C   UNL     1      16.771  -3.011  33.293  0.00  0.00    +0.104 C 
ENDBRANCH  25   4
ENDBRANCH  21  25
ENDBRANCH  15  18
BRANCH   2  12
ATOM     12  C   UNL     1       6.967  -7.878  34.739  0.00  0.00    +0.119 C 
BRANCH  12  17
ATOM     17  C   UNL     1       7.015  -8.390  33.324  0.00  0.00    -0.033 A 
ATOM     19  C   UNL     1       7.820  -9.478  33.017  0.00  0.00    +0.005 A 
ATOM     20  C   UNL     1       6.254  -7.766  32.345  0.00  0.00    +0.005 A 
ATOM     23  C   UNL     1       7.866  -9.952  31.707  0.00  0.00    +0.000 A 
ATOM     24  C   UNL     1       6.298  -8.241  31.034  0.00  0.00    +0.000 A 
ATOM     27  C   UNL     1       7.105  -9.333  30.714  0.00  0.00    +0.000 A 
ENDBRANCH  12  17
ENDBRANCH   2  12
TORSDOF 5
ENDMDL
MODEL 9
REMARK VINA RESULT:      -6.2     24.893     27.219
REMARK  Name = 11885339
REMARK  7 active torsions:
REMARK  status: ('A' for Active; 'I' for Inactive)
REMARK    1  A    between atoms: N_2  and  C_12
REMARK    2  A    between atoms: N_4  and  C_25
REMARK    3  A    between atoms: N_4  and  C_30
REMARK    4  A    between atoms: N_4  and  C_31
REMARK    5  A    between atoms: C_12  and  C_17
REMARK    6  A    between atoms: C_15  and  C_18
REMARK    7  A    between atoms: C_21  and  C_25
REMARK                            x       y       z     vdW  Elec       q    Type
REMARK                         _______ _______ _______ _____ _____    ______ ____
ROOT
ATOM      1  O   UNL     1      -6.880 -13.410  15.019  0.00  0.00    -0.267 OA
ATOM      2  N   UNL     1      -6.365 -11.513  10.406  0.00  0.00    -0.297 NA
ATOM      3  N   UNL     1      -7.682 -12.128  13.244  0.00  0.00    -0.311 N 
ATOM      5  C   UNL     1      -8.209 -13.125  10.943  0.00  0.00    +0.024 C 
ATOM      6  C   UNL     1      -8.549 -10.732  11.337  0.00  0.00    +0.050 C 
ATOM      7  C   UNL     1      -9.239 -12.006  10.857  0.00  0.00    +0.017 C 
ATOM      8  C   UNL     1      -6.992 -12.792  10.053  0.00  0.00    +0.090 C 
ATOM      9  C   UNL     1      -7.347 -10.418  10.416  0.00  0.00    +0.094 C 
ATOM     10  C   UNL     1      -7.825 -13.333  12.414  0.00  0.00    +0.130 C 
ATOM     11  C   UNL     1      -8.089 -10.876  12.776  0.00  0.00    +0.026 A 
ATOM     13  C   UNL     1      -8.057  -9.809  13.590  0.00  0.00    +0.022 A 
ATOM     14  C   UNL     1      -7.217 -12.317  14.560  0.00  0.00    +0.259 A 
ATOM     15  C   UNL     1      -7.157 -11.096  15.438  0.00  0.00    +0.047 A 
ATOM     16  C   UNL     1      -7.578  -9.924  14.938  0.00  0.00    +0.015 A 
ENDROOT
BRANCH  15  18
ATOM     18  C   UNL     1      -6.644 -11.170  16.817  0.00  0.00    -0.008 A 
ATOM     21  C   UNL     1      -5.306 -10.902  17.112  0.00  0.00    -0.026 A 
ATOM     22  C   UNL     1      -7.524 -11.519  17.845  0.00  0.00    +0.009 A 
ATOM     26  C   UNL     1      -4.849 -10.981  18.428  0.00  0.00    +0.005 A 
ATOM     28  C   UNL     1      -7.066 -11.598  19.161  0.00  0.00    +0.001 A 
ATOM     29  C   UNL     1      -5.729 -11.329  19.452  0.00  0.00    +0.000 A 
BRANCH  21  25
ATOM     25  C   UNL     1      -4.334 -10.526  16.040  0.00  0.00    +0.119 C 
BRANCH  25   4
ATOM      4  N   UNL     1      -3.179 -11.422  15.999  0.00  0.00    -0.304 NA
ATOM     30  C   UNL     1      -1.973 -10.685  15.625  0.00  0.00    +0.104 C 
ATOM     31  C   UNL     1      -3.417 -12.521  15.064  0.00  0.00    +0.104 C 
ENDBRANCH  25   4
ENDBRANCH  21  25
ENDBRANCH  15  18
BRANCH   2  12
ATOM     12  C   UNL     1      -5.252 -11.210   9.509  0.00  0.00    +0.119 C 
BRANCH  12  17
ATOM     17  C   UNL     1      -4.020 -10.791  10.266  0.00  0.00    -0.033 A 
ATOM     19  C   UNL     1      -3.482 -11.643  11.221  0.00  0.00    +0.005 A 
ATOM     20  C   UNL     1      -3.438  -9.560   9.997  0.00  0.00    +0.005 A 
ATOM     23  C   UNL     1      -2.340 -11.256  11.922  0.00  0.00    +0.000 A 
ATOM     24  C   UNL     1      -2.295  -9.174  10.697  0.00  0.00    +0.000 A 
ATOM     27  C   UNL     1      -1.746 -10.021  11.660  0.00  0.00    +0.000 A 
ENDBRANCH  12  17
ENDBRANCH   2  12
TORSDOF 5
ENDMDL
MODEL 10
REMARK VINA RESULT:      -6.2     16.963     22.605
REMARK  Name = 11885339
REMARK  7 active torsions:
REMARK  status: ('A' for Active; 'I' for Inactive)
REMARK    1  A    between atoms: N_2  and  C_12
REMARK    2  A    between atoms: N_4  and  C_25
REMARK    3  A    between atoms: N_4  and  C_30
REMARK    4  A    between atoms: N_4  and  C_31
REMARK    5  A    between atoms: C_12  and  C_17
REMARK    6  A    between atoms: C_15  and  C_18
REMARK    7  A    between atoms: C_21  and  C_25
REMARK                            x       y       z     vdW  Elec       q    Type
REMARK                         _______ _______ _______ _____ _____    ______ ____
ROOT
ATOM      1  O   UNL     1      12.669  12.187  19.870  0.00  0.00    -0.267 OA
ATOM      2  N   UNL     1      12.922  13.036  24.806  0.00  0.00    -0.297 NA
ATOM      3  N   UNL     1      11.701  12.166  21.992  0.00  0.00    -0.311 N 
ATOM      5  C   UNL     1      11.313  14.299  23.357  0.00  0.00    +0.024 C 
ATOM      6  C   UNL     1      10.654  12.129  24.280  0.00  0.00    +0.050 C 
ATOM      7  C   UNL     1      10.141  13.528  23.953  0.00  0.00    +0.017 C 
ATOM      8  C   UNL     1      12.473  14.364  24.373  0.00  0.00    +0.090 C 
ATOM      9  C   UNL     1      11.802  12.228  25.311  0.00  0.00    +0.094 C 
ATOM     10  C   UNL     1      11.722  13.635  22.036  0.00  0.00    +0.130 C 
ATOM     11  C   UNL     1      11.129  11.420  23.025  0.00  0.00    +0.026 A 
ATOM     13  C   UNL     1      11.019  10.087  22.913  0.00  0.00    +0.022 A 
ATOM     14  C   UNL     1      12.189  11.561  20.817  0.00  0.00    +0.259 A 
ATOM     15  C   UNL     1      12.084  10.061  20.736  0.00  0.00    +0.047 A 
ATOM     16  C   UNL     1      11.509   9.401  21.752  0.00  0.00    +0.015 A 
ENDROOT
BRANCH  15  18
ATOM     18  C   UNL     1      12.603   9.321  19.572  0.00  0.00    -0.008 A 
ATOM     21  C   UNL     1      13.965   9.049  19.431  0.00  0.00    -0.026 A 
ATOM     22  C   UNL     1      11.704   8.887  18.595  0.00  0.00    +0.009 A 
ATOM     26  C   UNL     1      14.428   8.346  18.318  0.00  0.00    +0.005 A 
ATOM     28  C   UNL     1      12.167   8.184  17.481  0.00  0.00    +0.001 A 
ATOM     29  C   UNL     1      13.528   7.914  17.343  0.00  0.00    +0.000 A 
BRANCH  21  25
ATOM     25  C   UNL     1      14.958   9.497  20.455  0.00  0.00    +0.119 C 
BRANCH  25   4
ATOM      4  N   UNL     1      15.691   8.377  21.043  0.00  0.00    -0.304 NA
ATOM     30  C   UNL     1      14.890   7.731  22.082  0.00  0.00    +0.104 C 
ATOM     31  C   UNL     1      16.968   8.832  21.592  0.00  0.00    +0.104 C 
ENDBRANCH  25   4
ENDBRANCH  21  25
ENDBRANCH  15  18
BRANCH   2  12
ATOM     12  C   UNL     1      13.984  13.141  25.804  0.00  0.00    +0.119 C 
BRANCH  12  17
ATOM     17  C   UNL     1      15.345  12.914  25.203  0.00  0.00    -0.033 A 
ATOM     19  C   UNL     1      16.476  13.313  25.901  0.00  0.00    +0.005 A 
ATOM     20  C   UNL     1      15.449  12.308  23.958  0.00  0.00    +0.005 A 
ATOM     23  C   UNL     1      17.737  13.102  25.344  0.00  0.00    +0.000 A 
ATOM     24  C   UNL     1      16.711  12.096  23.402  0.00  0.00    +0.000 A 
ATOM     27  C   UNL     1      17.855  12.493  24.093  0.00  0.00    +0.000 A 
ENDBRANCH  12  17
ENDBRANCH   2  12
TORSDOF 5
ENDMDL
