REMARK  Name = 45783459
REMARK  11 active torsions:
REMARK  status: ('A' for Active; 'I' for Inactive)
REMARK    1  A    between atoms: O_2  and  C_25
REMARK    2  A    between atoms: O_2  and  C_30
REMARK    3  A    between atoms: O_4  and  C_31
REMARK    4  A    between atoms: O_4  and  C_32
REMARK    5  A    between atoms: N_5  and  C_14
REMARK    6  A    between atoms: N_8  and  C_22
REMARK    7  A    between atoms: C_10  and  C_15
REMARK    8  A    between atoms: C_14  and  C_16
REMARK    9  A    between atoms: C_19  and  C_23
REMARK   10  A    between atoms: C_26  and  C_29
REMARK   11  A    between atoms: C_30  and  C_31
REMARK                            x       y       z     vdW  Elec       q    Type
REMARK                         _______ _______ _______ _____ _____    ______ ____
ROOT
ATOM      5  N   UNL     1      -3.773  -0.646   1.265  0.00  0.00    -0.287 NA
ATOM     10  C   UNL     1      -4.116   0.373   0.253  0.00  0.00    +0.146 C 
ATOM     11  C   UNL     1      -4.955   1.415   1.015  0.00  0.00    +0.030 C 
ATOM     12  C   UNL     1      -5.083   0.865   2.429  0.00  0.00    +0.017 C 
ATOM     13  C   UNL     1      -4.849  -0.622   2.256  0.00  0.00    +0.085 C 
ENDROOT
BRANCH  10  15
ATOM      1  O   UNL     1      -3.052   1.450  -1.666  0.00  0.00    -0.336 OA
ATOM      6  N   UNL     1      -1.678   1.113   0.070  0.00  0.00    -0.189 NA
ATOM      7  N   UNL     1      -1.803   1.950  -2.055  0.00  0.00    -0.054 NA
ATOM     15  C   UNL     1      -2.891   0.977  -0.403  0.00  0.00    +0.245 A 
ATOM     19  C   UNL     1      -1.046   1.715  -0.979  0.00  0.00    +0.221 A 
BRANCH  19  23
ATOM      9  N   UNL     1       0.844   2.660  -2.027  0.00  0.00    -0.252 NA
ATOM     23  C   UNL     1       0.342   2.070  -0.919  0.00  0.00    +0.115 A 
ATOM     24  C   UNL     1       1.083   1.805   0.222  0.00  0.00    +0.077 A 
ATOM     25  C   UNL     1       2.424   2.170   0.226  0.00  0.00    +0.124 A 
ATOM     27  C   UNL     1       2.151   3.001  -1.986  0.00  0.00    +0.115 A 
ATOM     28  C   UNL     1       2.977   2.780  -0.895  0.00  0.00    +0.065 A 
BRANCH  25   2
ATOM      2  O   UNL     1       3.194   1.932   1.323  0.00  0.00    -0.490 OA
BRANCH   2  30
ATOM     30  C   UNL     1       2.851   0.802   2.124  0.00  0.00    +0.257 C 
BRANCH  30  31
ATOM     31  C   UNL     1       4.111   0.243   2.756  0.00  0.00    +0.200 C 
BRANCH  31   4
ATOM      4  O   UNL     1       5.003  -0.168   1.728  0.00  0.00    -0.380 OA
ATOM     32  C   UNL     1       6.214  -0.681   2.264  0.00  0.00    +0.194 C 
ENDBRANCH  31   4
ENDBRANCH  30  31
ENDBRANCH   2  30
ENDBRANCH  25   2
ENDBRANCH  19  23
ENDBRANCH  10  15
BRANCH   5  14
ATOM     14  C   UNL     1      -3.579  -1.975   0.699  0.00  0.00    +0.120 C 
BRANCH  14  16
ATOM     16  C   UNL     1      -2.218  -2.124   0.072  0.00  0.00    -0.033 A 
ATOM     17  C   UNL     1      -2.104  -2.457  -1.278  0.00  0.00    +0.007 A 
ATOM     18  C   UNL     1      -1.071  -1.930   0.842  0.00  0.00    +0.007 A 
ATOM     20  C   UNL     1      -0.844  -2.595  -1.858  0.00  0.00    +0.023 A 
ATOM     21  C   UNL     1       0.190  -2.069   0.262  0.00  0.00    +0.023 A 
ATOM     22  C   UNL     1       0.303  -2.402  -1.088  0.00  0.00    +0.033 A 
BRANCH  22   8
ATOM      3  O   UNL     1       3.050  -2.101   0.110  0.00  0.00    -0.276 OA
ATOM      8  N   UNL     1       1.565  -2.541  -1.668  0.00  0.00    -0.286 N 
ATOM     26  C   UNL     1       2.818  -2.387  -1.061  0.00  0.00    +0.214 C 
ATOM     29  C   UNL     1       3.945  -2.623  -2.035  0.00  0.00    +0.109 C 
ATOM     33  H   UNL     1       1.564  -2.784  -2.657  0.00  0.00    +0.155 HD
ENDBRANCH  22   8
ENDBRANCH  14  16
ENDBRANCH   5  14
TORSDOF 9
