MODEL 1
REMARK VINA RESULT:      -7.5      0.000      0.000
REMARK  Name = 11941643
REMARK  9 active torsions:
REMARK  status: ('A' for Active; 'I' for Inactive)
REMARK    1  A    between atoms: N_5  and  C_12
REMARK    2  A    between atoms: N_6  and  C_13
REMARK    3  A    between atoms: N_8  and  C_25
REMARK    4  A    between atoms: C_18  and  C_19
REMARK    5  A    between atoms: C_18  and  C_22
REMARK    6  A    between atoms: C_18  and  C_23
REMARK    7  A    between atoms: C_18  and  C_24
REMARK    8  A    between atoms: C_30  and  C_31
REMARK    9  A    between atoms: C_31  and  C_32
REMARK                            x       y       z     vdW  Elec       q    Type
REMARK                         _______ _______ _______ _____ _____    ______ ____
ROOT
ATOM      1  O   UNL     1     -18.670   4.039  25.514  0.00  0.00    -0.370 OA
ATOM      2  O   UNL     1     -15.753   2.935  25.613  0.00  0.00    -0.370 OA
ATOM     10  C   UNL     1     -16.465   3.906  26.399  0.00  0.00    +0.171 C 
ATOM     11  C   UNL     1     -17.378   4.666  25.457  0.00  0.00    +0.171 C 
ATOM     12  C   UNL     1     -17.412   3.214  27.353  0.00  0.00    +0.130 C 
ATOM     13  C   UNL     1     -16.754   4.460  24.095  0.00  0.00    +0.131 C 
ATOM     14  C   UNL     1     -18.644   2.992  26.495  0.00  0.00    +0.185 C 
ATOM     15  C   UNL     1     -16.117   3.089  24.233  0.00  0.00    +0.185 C 
ENDROOT
BRANCH  12   5
ATOM      5  N   UNL     1     -17.724   4.090  28.461  0.00  0.00    -0.306 N 
ATOM      7  N   UNL     1     -16.333   2.906  29.932  0.00  0.00    -0.219 NA
ATOM      9  N   UNL     1     -17.570   4.834  30.682  0.00  0.00    -0.223 NA
ATOM     16  C   UNL     1     -17.193   3.939  29.730  0.00  0.00    +0.216 A 
ATOM     19  C   UNL     1     -15.834   2.787  31.181  0.00  0.00    +0.052 A 
ATOM     20  C   UNL     1     -16.152   3.642  32.217  0.00  0.00    +0.043 A 
ATOM     21  C   UNL     1     -17.033   4.657  31.906  0.00  0.00    +0.116 A 
ATOM     33  H   UNL     1     -18.322   4.894  28.307  0.00  0.00    +0.149 HD
BRANCH  19  18
ATOM     18  C   UNL     1     -14.889   1.660  31.422  0.00  0.00    +0.005 C 
ATOM     22  C   UNL     1     -15.345   0.271  30.864  0.00  0.00    +0.017 C 
ATOM     23  C   UNL     1     -13.501   1.935  30.768  0.00  0.00    +0.017 C 
ATOM     24  C   UNL     1     -14.653   1.436  32.948  0.00  0.00    +0.017 C 
ENDBRANCH  19  18
ENDBRANCH  12   5
BRANCH  13   6
ATOM      3  O   UNL     1     -15.430   4.921  21.596  0.00  0.00    -0.252 OA
ATOM      6  N   UNL     1     -15.764   5.472  23.816  0.00  0.00    -0.292 N 
ATOM      8  N   UNL     1     -14.248   6.688  22.592  0.00  0.00    -0.269 N 
ATOM     17  C   UNL     1     -15.163   5.632  22.562  0.00  0.00    +0.304 C 
ATOM     34  H   UNL     1     -15.540   6.143  24.546  0.00  0.00    +0.151 HD
ATOM     35  H   UNL     1     -14.144   7.176  23.478  0.00  0.00    +0.156 HD
BRANCH   8  25
ATOM     25  C   UNL     1     -13.440   7.166  21.534  0.00  0.00    +0.035 A 
ATOM     26  C   UNL     1     -13.819   8.314  20.857  0.00  0.00    +0.024 A 
ATOM     27  C   UNL     1     -12.287   6.476  21.196  0.00  0.00    +0.024 A 
ATOM     28  C   UNL     1     -13.022   8.785  19.813  0.00  0.00    +0.013 A 
ATOM     29  C   UNL     1     -11.491   6.947  20.152  0.00  0.00    +0.013 A 
ATOM     30  C   UNL     1     -11.858   8.101  19.461  0.00  0.00    +0.017 A 
BRANCH  30  31
ATOM      4  O   UNL     1     -11.014   8.032  17.259  0.00  0.00    -0.292 OA
ATOM     31  C   UNL     1     -11.027   8.593  18.374  0.00  0.00    +0.160 C 
ATOM     32  C   UNL     1     -10.143   9.820  18.575  0.00  0.00    +0.091 C 
ENDBRANCH  30  31
ENDBRANCH   8  25
ENDBRANCH  13   6
TORSDOF 5
ENDMDL
MODEL 2
REMARK VINA RESULT:      -7.1     31.469     36.070
REMARK  Name = 11941643
REMARK  9 active torsions:
REMARK  status: ('A' for Active; 'I' for Inactive)
REMARK    1  A    between atoms: N_5  and  C_12
REMARK    2  A    between atoms: N_6  and  C_13
REMARK    3  A    between atoms: N_8  and  C_25
REMARK    4  A    between atoms: C_18  and  C_19
REMARK    5  A    between atoms: C_18  and  C_22
REMARK    6  A    between atoms: C_18  and  C_23
REMARK    7  A    between atoms: C_18  and  C_24
REMARK    8  A    between atoms: C_30  and  C_31
REMARK    9  A    between atoms: C_31  and  C_32
REMARK                            x       y       z     vdW  Elec       q    Type
REMARK                         _______ _______ _______ _____ _____    ______ ____
ROOT
ATOM      1  O   UNL     1      19.488   8.419  22.543  0.00  0.00    -0.370 OA
ATOM      2  O   UNL     1      19.605   6.553  20.045  0.00  0.00    -0.370 OA
ATOM     10  C   UNL     1      18.707   6.643  21.165  0.00  0.00    +0.171 C 
ATOM     11  C   UNL     1      19.541   6.992  22.383  0.00  0.00    +0.171 C 
ATOM     12  C   UNL     1      17.782   7.826  21.000  0.00  0.00    +0.130 C 
ATOM     13  C   UNL     1      20.940   6.557  22.007  0.00  0.00    +0.131 C 
ATOM     14  C   UNL     1      18.605   8.973  21.556  0.00  0.00    +0.185 C 
ATOM     15  C   UNL     1      20.950   6.758  20.502  0.00  0.00    +0.185 C 
ENDROOT
BRANCH  12   5
ATOM      5  N   UNL     1      16.589   7.634  21.795  0.00  0.00    -0.306 N 
ATOM      7  N   UNL     1      15.175   8.184  20.007  0.00  0.00    -0.219 NA
ATOM      9  N   UNL     1      14.271   7.595  22.162  0.00  0.00    -0.223 NA
ATOM     16  C   UNL     1      15.306   7.809  21.307  0.00  0.00    +0.216 A 
ATOM     19  C   UNL     1      13.910   8.346  19.562  0.00  0.00    +0.052 A 
ATOM     20  C   UNL     1      12.791   8.153  20.348  0.00  0.00    +0.043 A 
ATOM     21  C   UNL     1      13.035   7.775  21.652  0.00  0.00    +0.116 A 
ATOM     33  H   UNL     1      16.675   7.304  22.750  0.00  0.00    +0.149 HD
BRANCH  19  18
ATOM     18  C   UNL     1      13.746   8.756  18.138  0.00  0.00    +0.005 C 
ATOM     22  C   UNL     1      14.227   7.710  17.079  0.00  0.00    +0.017 C 
ATOM     23  C   UNL     1      12.250   9.034  17.798  0.00  0.00    +0.017 C 
ATOM     24  C   UNL     1      14.548  10.058  17.829  0.00  0.00    +0.017 C 
ENDBRANCH  19  18
ENDBRANCH  12   5
BRANCH  13   6
ATOM      3  O   UNL     1      23.439   5.158  21.923  0.00  0.00    -0.252 OA
ATOM      6  N   UNL     1      21.168   5.175  22.352  0.00  0.00    -0.292 N 
ATOM      8  N   UNL     1      22.339   3.226  22.677  0.00  0.00    -0.269 N 
ATOM     17  C   UNL     1      22.426   4.564  22.284  0.00  0.00    +0.304 C 
ATOM     34  H   UNL     1      20.391   4.636  22.726  0.00  0.00    +0.151 HD
ATOM     35  H   UNL     1      21.418   2.888  22.946  0.00  0.00    +0.156 HD
BRANCH   8  25
ATOM     25  C   UNL     1      23.382   2.273  22.747  0.00  0.00    +0.035 A 
ATOM     26  C   UNL     1      23.832   1.849  23.987  0.00  0.00    +0.024 A 
ATOM     27  C   UNL     1      23.933   1.784  21.573  0.00  0.00    +0.024 A 
ATOM     28  C   UNL     1      24.861   0.910  24.055  0.00  0.00    +0.013 A 
ATOM     29  C   UNL     1      24.962   0.845  21.641  0.00  0.00    +0.013 A 
ATOM     30  C   UNL     1      25.426   0.408  22.882  0.00  0.00    +0.017 A 
BRANCH  30  31
ATOM      4  O   UNL     1      27.480  -0.410  23.705  0.00  0.00    -0.292 OA
ATOM     31  C   UNL     1      26.498  -0.573  22.953  0.00  0.00    +0.160 C 
ATOM     32  C   UNL     1      26.443  -1.835  22.099  0.00  0.00    +0.091 C 
ENDBRANCH  30  31
ENDBRANCH   8  25
ENDBRANCH  13   6
TORSDOF 5
ENDMDL
MODEL 3
REMARK VINA RESULT:      -7.0     29.146     33.804
REMARK  Name = 11941643
REMARK  9 active torsions:
REMARK  status: ('A' for Active; 'I' for Inactive)
REMARK    1  A    between atoms: N_5  and  C_12
REMARK    2  A    between atoms: N_6  and  C_13
REMARK    3  A    between atoms: N_8  and  C_25
REMARK    4  A    between atoms: C_18  and  C_19
REMARK    5  A    between atoms: C_18  and  C_22
REMARK    6  A    between atoms: C_18  and  C_23
REMARK    7  A    between atoms: C_18  and  C_24
REMARK    8  A    between atoms: C_30  and  C_31
REMARK    9  A    between atoms: C_31  and  C_32
REMARK                            x       y       z     vdW  Elec       q    Type
REMARK                         _______ _______ _______ _____ _____    ______ ____
ROOT
ATOM      1  O   UNL     1      12.570   7.362  17.631  0.00  0.00    -0.370 OA
ATOM      2  O   UNL     1      14.083   9.380  19.468  0.00  0.00    -0.370 OA
ATOM     10  C   UNL     1      14.046   9.183  18.045  0.00  0.00    +0.171 C 
ATOM     11  C   UNL     1      13.960   7.688  17.799  0.00  0.00    +0.171 C 
ATOM     12  C   UNL     1      12.756   9.725  17.474  0.00  0.00    +0.130 C 
ATOM     13  C   UNL     1      14.492   7.075  19.075  0.00  0.00    +0.131 C 
ATOM     14  C   UNL     1      11.794   8.569  17.669  0.00  0.00    +0.185 C 
ATOM     15  C   UNL     1      14.092   8.101  20.120  0.00  0.00    +0.185 C 
ENDROOT
BRANCH  12   5
ATOM      5  N   UNL     1      12.920  10.010  16.066  0.00  0.00    -0.306 N 
ATOM      7  N   UNL     1      14.653  11.540  16.464  0.00  0.00    -0.219 NA
ATOM      9  N   UNL     1      13.903  11.076  14.220  0.00  0.00    -0.223 NA
ATOM     16  C   UNL     1      13.854  10.902  15.568  0.00  0.00    +0.216 A 
ATOM     19  C   UNL     1      15.552  12.403  15.945  0.00  0.00    +0.052 A 
ATOM     20  C   UNL     1      15.685  12.651  14.593  0.00  0.00    +0.043 A 
ATOM     21  C   UNL     1      14.825  11.952  13.770  0.00  0.00    +0.116 A 
ATOM     33  H   UNL     1      12.365   9.501  15.387  0.00  0.00    +0.149 HD
BRANCH  19  18
ATOM     18  C   UNL     1      16.439  13.111  16.912  0.00  0.00    +0.005 C 
ATOM     22  C   UNL     1      17.969  13.039  16.597  0.00  0.00    +0.017 C 
ATOM     23  C   UNL     1      16.100  14.632  16.981  0.00  0.00    +0.017 C 
ATOM     24  C   UNL     1      16.283  12.530  18.351  0.00  0.00    +0.017 C 
ENDBRANCH  19  18
ENDBRANCH  12   5
BRANCH  13   6
ATOM      3  O   UNL     1      16.201   6.172  21.190  0.00  0.00    -0.252 OA
ATOM      6  N   UNL     1      15.925   6.916  19.019  0.00  0.00    -0.292 N 
ATOM      8  N   UNL     1      18.042   6.412  19.754  0.00  0.00    -0.269 N 
ATOM     17  C   UNL     1      16.689   6.467  20.102  0.00  0.00    +0.304 C 
ATOM     34  H   UNL     1      16.394   7.074  18.131  0.00  0.00    +0.151 HD
ATOM     35  H   UNL     1      18.280   6.694  18.806  0.00  0.00    +0.156 HD
BRANCH   8  25
ATOM     25  C   UNL     1      19.131   6.012  20.563  0.00  0.00    +0.035 A 
ATOM     26  C   UNL     1      19.370   6.675  21.756  0.00  0.00    +0.024 A 
ATOM     27  C   UNL     1      19.937   4.965  20.145  0.00  0.00    +0.024 A 
ATOM     28  C   UNL     1      20.445   6.281  22.552  0.00  0.00    +0.013 A 
ATOM     29  C   UNL     1      21.011   4.571  20.942  0.00  0.00    +0.013 A 
ATOM     30  C   UNL     1      21.265   5.228  22.146  0.00  0.00    +0.017 A 
BRANCH  30  31
ATOM      4  O   UNL     1      22.263   4.679  24.211  0.00  0.00    -0.292 OA
ATOM     31  C   UNL     1      22.385   4.816  22.977  0.00  0.00    +0.160 C 
ATOM     32  C   UNL     1      23.748   4.540  22.351  0.00  0.00    +0.091 C 
ENDBRANCH  30  31
ENDBRANCH   8  25
ENDBRANCH  13   6
TORSDOF 5
ENDMDL
MODEL 4
REMARK VINA RESULT:      -6.9     18.224     20.803
REMARK  Name = 11941643
REMARK  9 active torsions:
REMARK  status: ('A' for Active; 'I' for Inactive)
REMARK    1  A    between atoms: N_5  and  C_12
REMARK    2  A    between atoms: N_6  and  C_13
REMARK    3  A    between atoms: N_8  and  C_25
REMARK    4  A    between atoms: C_18  and  C_19
REMARK    5  A    between atoms: C_18  and  C_22
REMARK    6  A    between atoms: C_18  and  C_23
REMARK    7  A    between atoms: C_18  and  C_24
REMARK    8  A    between atoms: C_30  and  C_31
REMARK    9  A    between atoms: C_31  and  C_32
REMARK                            x       y       z     vdW  Elec       q    Type
REMARK                         _______ _______ _______ _____ _____    ______ ____
ROOT
ATOM      1  O   UNL     1      -5.682 -11.812  19.373  0.00  0.00    -0.370 OA
ATOM      2  O   UNL     1      -7.063 -11.842  16.575  0.00  0.00    -0.370 OA
ATOM     10  C   UNL     1      -5.901 -11.172  17.091  0.00  0.00    +0.171 C 
ATOM     11  C   UNL     1      -6.207 -10.778  18.523  0.00  0.00    +0.171 C 
ATOM     12  C   UNL     1      -4.748 -12.141  17.213  0.00  0.00    +0.130 C 
ATOM     13  C   UNL     1      -7.718 -10.764  18.585  0.00  0.00    +0.131 C 
ATOM     14  C   UNL     1      -4.993 -12.780  18.568  0.00  0.00    +0.185 C 
ATOM     15  C   UNL     1      -8.095 -11.831  17.573  0.00  0.00    +0.185 C 
ENDROOT
BRANCH  12   5
ATOM      5  N   UNL     1      -3.495 -11.420  17.218  0.00  0.00    -0.306 N 
ATOM      7  N   UNL     1      -3.443 -11.273  14.877  0.00  0.00    -0.219 NA
ATOM      9  N   UNL     1      -1.678 -10.323  16.216  0.00  0.00    -0.223 NA
ATOM     16  C   UNL     1      -2.852 -10.993  16.069  0.00  0.00    +0.216 A 
ATOM     19  C   UNL     1      -2.790 -10.842  13.777  0.00  0.00    +0.052 A 
ATOM     20  C   UNL     1      -1.594 -10.154  13.816  0.00  0.00    +0.043 A 
ATOM     21  C   UNL     1      -1.080  -9.921  15.075  0.00  0.00    +0.116 A 
ATOM     33  H   UNL     1      -3.073 -11.160  18.102  0.00  0.00    +0.149 HD
BRANCH  19  18
ATOM     18  C   UNL     1      -3.424 -11.141  12.461  0.00  0.00    +0.005 C 
ATOM     22  C   UNL     1      -3.084 -10.137  11.310  0.00  0.00    +0.017 C 
ATOM     23  C   UNL     1      -2.992 -12.542  11.930  0.00  0.00    +0.017 C 
ATOM     24  C   UNL     1      -4.980 -11.138  12.569  0.00  0.00    +0.017 C 
ENDBRANCH  19  18
ENDBRANCH  12   5
BRANCH  13   6
ATOM      3  O   UNL     1     -10.051 -10.262  16.999  0.00  0.00    -0.252 OA
ATOM      6  N   UNL     1      -8.244  -9.475  18.208  0.00  0.00    -0.292 N 
ATOM      8  N   UNL     1      -9.661  -7.958  17.225  0.00  0.00    -0.269 N 
ATOM     17  C   UNL     1      -9.395  -9.315  17.427  0.00  0.00    +0.304 C 
ATOM     34  H   UNL     1      -7.796  -8.643  18.581  0.00  0.00    +0.151 HD
ATOM     35  H   UNL     1      -9.014  -7.298  17.649  0.00  0.00    +0.156 HD
BRANCH   8  25
ATOM     25  C   UNL     1     -10.727  -7.382  16.495  0.00  0.00    +0.035 A 
ATOM     26  C   UNL     1     -10.461  -6.365  15.593  0.00  0.00    +0.024 A 
ATOM     27  C   UNL     1     -12.017  -7.845  16.700  0.00  0.00    +0.024 A 
ATOM     28  C   UNL     1     -11.512  -5.797  14.875  0.00  0.00    +0.013 A 
ATOM     29  C   UNL     1     -13.069  -7.277  15.982  0.00  0.00    +0.013 A 
ATOM     30  C   UNL     1     -12.816  -6.253  15.069  0.00  0.00    +0.017 A 
BRANCH  30  31
ATOM      4  O   UNL     1     -15.087  -6.059  14.459  0.00  0.00    -0.292 OA
ATOM     31  C   UNL     1     -13.913  -5.661  14.319  0.00  0.00    +0.160 C 
ATOM     32  C   UNL     1     -13.648  -4.528  13.333  0.00  0.00    +0.091 C 
ENDBRANCH  30  31
ENDBRANCH   8  25
ENDBRANCH  13   6
TORSDOF 5
ENDMDL
MODEL 5
REMARK VINA RESULT:      -6.8     23.501     25.660
REMARK  Name = 11941643
REMARK  9 active torsions:
REMARK  status: ('A' for Active; 'I' for Inactive)
REMARK    1  A    between atoms: N_5  and  C_12
REMARK    2  A    between atoms: N_6  and  C_13
REMARK    3  A    between atoms: N_8  and  C_25
REMARK    4  A    between atoms: C_18  and  C_19
REMARK    5  A    between atoms: C_18  and  C_22
REMARK    6  A    between atoms: C_18  and  C_23
REMARK    7  A    between atoms: C_18  and  C_24
REMARK    8  A    between atoms: C_30  and  C_31
REMARK    9  A    between atoms: C_31  and  C_32
REMARK                            x       y       z     vdW  Elec       q    Type
REMARK                         _______ _______ _______ _____ _____    ______ ____
ROOT
ATOM      1  O   UNL     1      -4.987  -9.057  10.537  0.00  0.00    -0.370 OA
ATOM      2  O   UNL     1      -5.935 -12.022  10.760  0.00  0.00    -0.370 OA
ATOM     10  C   UNL     1      -4.671 -11.374  10.982  0.00  0.00    +0.171 C 
ATOM     11  C   UNL     1      -4.534 -10.283   9.938  0.00  0.00    +0.171 C 
ATOM     12  C   UNL     1      -4.691 -10.627  12.296  0.00  0.00    +0.130 C 
ATOM     13  C   UNL     1      -5.478 -10.709   8.836  0.00  0.00    +0.131 C 
ATOM     14  C   UNL     1      -5.315  -9.298  11.914  0.00  0.00    +0.185 C 
ATOM     15  C   UNL     1      -6.562 -11.446   9.603  0.00  0.00    +0.185 C 
ENDROOT
BRANCH  12   5
ATOM      5  N   UNL     1      -3.339 -10.428  12.770  0.00  0.00    -0.306 N 
ATOM      7  N   UNL     1      -3.924 -10.931  14.985  0.00  0.00    -0.219 NA
ATOM      9  N   UNL     1      -1.655 -10.361  14.405  0.00  0.00    -0.223 NA
ATOM     16  C   UNL     1      -2.961 -10.578  14.093  0.00  0.00    +0.216 A 
ATOM     19  C   UNL     1      -3.522 -11.069  16.267  0.00  0.00    +0.052 A 
ATOM     20  C   UNL     1      -2.222 -10.873  16.687  0.00  0.00    +0.043 A 
ATOM     21  C   UNL     1      -1.323 -10.517  15.703  0.00  0.00    +0.116 A 
ATOM     33  H   UNL     1      -2.604 -10.215  12.105  0.00  0.00    +0.149 HD
BRANCH  19  18
ATOM     18  C   UNL     1      -4.565 -11.457  17.259  0.00  0.00    +0.005 C 
ATOM     22  C   UNL     1      -5.650 -10.369  17.552  0.00  0.00    +0.017 C 
ATOM     23  C   UNL     1      -5.355 -12.716  16.787  0.00  0.00    +0.017 C 
ATOM     24  C   UNL     1      -3.929 -11.793  18.644  0.00  0.00    +0.017 C 
ENDBRANCH  19  18
ENDBRANCH  12   5
BRANCH  13   6
ATOM      3  O   UNL     1      -5.578 -10.524   5.979  0.00  0.00    -0.252 OA
ATOM      6  N   UNL     1      -4.820 -11.578   7.892  0.00  0.00    -0.292 N 
ATOM      8  N   UNL     1      -4.179 -12.405   5.847  0.00  0.00    -0.269 N 
ATOM     17  C   UNL     1      -4.920 -11.419   6.504  0.00  0.00    +0.304 C 
ATOM     34  H   UNL     1      -4.202 -12.301   8.250  0.00  0.00    +0.151 HD
ATOM     35  H   UNL     1      -3.691 -13.076   6.435  0.00  0.00    +0.156 HD
BRANCH   8  25
ATOM     25  C   UNL     1      -4.024 -12.589   4.453  0.00  0.00    +0.035 A 
ATOM     26  C   UNL     1      -5.146 -12.791   3.666  0.00  0.00    +0.024 A 
ATOM     27  C   UNL     1      -2.752 -12.564   3.904  0.00  0.00    +0.024 A 
ATOM     28  C   UNL     1      -4.991 -12.973   2.292  0.00  0.00    +0.013 A 
ATOM     29  C   UNL     1      -2.597 -12.746   2.530  0.00  0.00    +0.013 A 
ATOM     30  C   UNL     1      -3.717 -12.951   1.724  0.00  0.00    +0.017 A 
BRANCH  30  31
ATOM      4  O   UNL     1      -4.352 -12.633  -0.526  0.00  0.00    -0.292 OA
ATOM     31  C   UNL     1      -3.557 -13.139   0.291  0.00  0.00    +0.160 C 
ATOM     32  C   UNL     1      -2.398 -13.970  -0.251  0.00  0.00    +0.091 C 
ENDBRANCH  30  31
ENDBRANCH   8  25
ENDBRANCH  13   6
TORSDOF 5
ENDMDL
MODEL 6
REMARK VINA RESULT:      -6.8     27.846     32.647
REMARK  Name = 11941643
REMARK  9 active torsions:
REMARK  status: ('A' for Active; 'I' for Inactive)
REMARK    1  A    between atoms: N_5  and  C_12
REMARK    2  A    between atoms: N_6  and  C_13
REMARK    3  A    between atoms: N_8  and  C_25
REMARK    4  A    between atoms: C_18  and  C_19
REMARK    5  A    between atoms: C_18  and  C_22
REMARK    6  A    between atoms: C_18  and  C_23
REMARK    7  A    between atoms: C_18  and  C_24
REMARK    8  A    between atoms: C_30  and  C_31
REMARK    9  A    between atoms: C_31  and  C_32
REMARK                            x       y       z     vdW  Elec       q    Type
REMARK                         _______ _______ _______ _____ _____    ______ ____
ROOT
ATOM      1  O   UNL     1      13.937   8.353  18.049  0.00  0.00    -0.370 OA
ATOM      2  O   UNL     1      13.726   7.741  21.102  0.00  0.00    -0.370 OA
ATOM     10  C   UNL     1      14.075   8.920  20.357  0.00  0.00    +0.171 C 
ATOM     11  C   UNL     1      14.863   8.468  19.142  0.00  0.00    +0.171 C 
ATOM     12  C   UNL     1      12.834   9.557  19.775  0.00  0.00    +0.130 C 
ATOM     13  C   UNL     1      15.388   7.105  19.532  0.00  0.00    +0.131 C 
ATOM     14  C   UNL     1      12.639   8.787  18.482  0.00  0.00    +0.185 C 
ATOM     15  C   UNL     1      14.304   6.592  20.463  0.00  0.00    +0.185 C 
ENDROOT
BRANCH  12   5
ATOM      5  N   UNL     1      13.082  10.954  19.494  0.00  0.00    -0.306 N 
ATOM      7  N   UNL     1      12.280  11.633  21.591  0.00  0.00    -0.219 NA
ATOM      9  N   UNL     1      13.093  13.247  19.995  0.00  0.00    -0.223 NA
ATOM     16  C   UNL     1      12.811  11.975  20.387  0.00  0.00    +0.216 A 
ATOM     19  C   UNL     1      12.028  12.653  22.438  0.00  0.00    +0.052 A 
ATOM     20  C   UNL     1      12.278  13.977  22.139  0.00  0.00    +0.043 A 
ATOM     21  C   UNL     1      12.816  14.217  20.891  0.00  0.00    +0.116 A 
ATOM     33  H   UNL     1      13.525  11.215  18.620  0.00  0.00    +0.149 HD
BRANCH  19  18
ATOM     18  C   UNL     1      11.447  12.297  23.764  0.00  0.00    +0.005 C 
ATOM     22  C   UNL     1      10.240  13.179  24.227  0.00  0.00    +0.017 C 
ATOM     23  C   UNL     1      10.916  10.830  23.774  0.00  0.00    +0.017 C 
ATOM     24  C   UNL     1      12.510  12.419  24.899  0.00  0.00    +0.017 C 
ENDBRANCH  19  18
ENDBRANCH  12   5
BRANCH  13   6
ATOM      3  O   UNL     1      17.780   5.647  18.929  0.00  0.00    -0.252 OA
ATOM      6  N   UNL     1      16.657   7.208  20.211  0.00  0.00    -0.292 N 
ATOM      8  N   UNL     1      18.861   6.768  20.685  0.00  0.00    -0.269 N 
ATOM     17  C   UNL     1      17.782   6.456  19.852  0.00  0.00    +0.304 C 
ATOM     34  H   UNL     1      16.757   7.907  20.942  0.00  0.00    +0.151 HD
ATOM     35  H   UNL     1      18.693   7.465  21.407  0.00  0.00    +0.156 HD
BRANCH   8  25
ATOM     25  C   UNL     1      20.168   6.230  20.649  0.00  0.00    +0.035 A 
ATOM     26  C   UNL     1      20.344   4.864  20.801  0.00  0.00    +0.024 A 
ATOM     27  C   UNL     1      21.247   7.080  20.465  0.00  0.00    +0.024 A 
ATOM     28  C   UNL     1      21.633   4.334  20.767  0.00  0.00    +0.013 A 
ATOM     29  C   UNL     1      22.536   6.551  20.431  0.00  0.00    +0.013 A 
ATOM     30  C   UNL     1      22.729   5.177  20.582  0.00  0.00    +0.017 A 
BRANCH  30  31
ATOM      4  O   UNL     1      24.302   3.443  20.876  0.00  0.00    -0.292 OA
ATOM     31  C   UNL     1      24.074   4.624  20.545  0.00  0.00    +0.160 C 
ATOM     32  C   UNL     1      25.249   5.487  20.096  0.00  0.00    +0.091 C 
ENDBRANCH  30  31
ENDBRANCH   8  25
ENDBRANCH  13   6
TORSDOF 5
ENDMDL
MODEL 7
REMARK VINA RESULT:      -6.7     17.487     20.414
REMARK  Name = 11941643
REMARK  9 active torsions:
REMARK  status: ('A' for Active; 'I' for Inactive)
REMARK    1  A    between atoms: N_5  and  C_12
REMARK    2  A    between atoms: N_6  and  C_13
REMARK    3  A    between atoms: N_8  and  C_25
REMARK    4  A    between atoms: C_18  and  C_19
REMARK    5  A    between atoms: C_18  and  C_22
REMARK    6  A    between atoms: C_18  and  C_23
REMARK    7  A    between atoms: C_18  and  C_24
REMARK    8  A    between atoms: C_30  and  C_31
REMARK    9  A    between atoms: C_31  and  C_32
REMARK                            x       y       z     vdW  Elec       q    Type
REMARK                         _______ _______ _______ _____ _____    ______ ____
ROOT
ATOM      1  O   UNL     1     -12.180  -9.581  15.607  0.00  0.00    -0.370 OA
ATOM      2  O   UNL     1     -11.228  -6.613  15.752  0.00  0.00    -0.370 OA
ATOM     10  C   UNL     1     -11.190  -7.609  14.716  0.00  0.00    +0.171 C 
ATOM     11  C   UNL     1     -10.912  -8.943  15.383  0.00  0.00    +0.171 C 
ATOM     12  C   UNL     1     -12.561  -7.781  14.105  0.00  0.00    +0.130 C 
ATOM     13  C   UNL     1     -10.273  -8.568  16.701  0.00  0.00    +0.131 C 
ATOM     14  C   UNL     1     -13.223  -8.771  15.045  0.00  0.00    +0.185 C 
ATOM     15  C   UNL     1     -10.926  -7.233  17.012  0.00  0.00    +0.185 C 
ENDROOT
BRANCH  12   5
ATOM      5  N   UNL     1     -12.443  -8.349  12.780  0.00  0.00    -0.306 N 
ATOM      7  N   UNL     1     -12.423  -6.239  11.756  0.00  0.00    -0.219 NA
ATOM      9  N   UNL     1     -12.265  -8.253  10.442  0.00  0.00    -0.223 NA
ATOM     16  C   UNL     1     -12.375  -7.591  11.624  0.00  0.00    +0.216 A 
ATOM     19  C   UNL     1     -12.353  -5.530  10.610  0.00  0.00    +0.052 A 
ATOM     20  C   UNL     1     -12.240  -6.104   9.359  0.00  0.00    +0.043 A 
ATOM     21  C   UNL     1     -12.200  -7.483   9.336  0.00  0.00    +0.116 A 
ATOM     33  H   UNL     1     -12.354  -9.354  12.675  0.00  0.00    +0.149 HD
BRANCH  19  18
ATOM     18  C   UNL     1     -12.404  -4.045  10.735  0.00  0.00    +0.005 C 
ATOM     22  C   UNL     1     -12.133  -3.483  12.169  0.00  0.00    +0.017 C 
ATOM     23  C   UNL     1     -11.345  -3.363   9.815  0.00  0.00    +0.017 C 
ATOM     24  C   UNL     1     -13.805  -3.491  10.330  0.00  0.00    +0.017 C 
ENDBRANCH  19  18
ENDBRANCH  12   5
BRANCH  13   6
ATOM      3  O   UNL     1      -8.421 -10.617  15.940  0.00  0.00    -0.252 OA
ATOM      6  N   UNL     1      -8.843  -8.433  16.568  0.00  0.00    -0.292 N 
ATOM      8  N   UNL     1      -6.675  -9.062  16.145  0.00  0.00    -0.269 N 
ATOM     17  C   UNL     1      -8.005  -9.489  16.189  0.00  0.00    +0.304 C 
ATOM     34  H   UNL     1      -8.431  -7.512  16.690  0.00  0.00    +0.151 HD
ATOM     35  H   UNL     1      -6.499  -8.089  16.384  0.00  0.00    +0.156 HD
BRANCH   8  25
ATOM     25  C   UNL     1      -5.530  -9.822  15.808  0.00  0.00    +0.035 A 
ATOM     26  C   UNL     1      -4.632 -10.174  16.803  0.00  0.00    +0.024 A 
ATOM     27  C   UNL     1      -5.330 -10.198  14.489  0.00  0.00    +0.024 A 
ATOM     28  C   UNL     1      -3.504 -10.923  16.470  0.00  0.00    +0.013 A 
ATOM     29  C   UNL     1      -4.201 -10.947  14.157  0.00  0.00    +0.013 A 
ATOM     30  C   UNL     1      -3.288 -11.309  15.147  0.00  0.00    +0.017 A 
BRANCH  30  31
ATOM      4  O   UNL     1      -0.961 -11.689  15.066  0.00  0.00    -0.292 OA
ATOM     31  C   UNL     1      -2.112 -12.091  14.800  0.00  0.00    +0.160 C 
ATOM     32  C   UNL     1      -2.262 -13.436  14.096  0.00  0.00    +0.091 C 
ENDBRANCH  30  31
ENDBRANCH   8  25
ENDBRANCH  13   6
TORSDOF 5
ENDMDL
MODEL 8
REMARK VINA RESULT:      -6.7     16.339     19.702
REMARK  Name = 11941643
REMARK  9 active torsions:
REMARK  status: ('A' for Active; 'I' for Inactive)
REMARK    1  A    between atoms: N_5  and  C_12
REMARK    2  A    between atoms: N_6  and  C_13
REMARK    3  A    between atoms: N_8  and  C_25
REMARK    4  A    between atoms: C_18  and  C_19
REMARK    5  A    between atoms: C_18  and  C_22
REMARK    6  A    between atoms: C_18  and  C_23
REMARK    7  A    between atoms: C_18  and  C_24
REMARK    8  A    between atoms: C_30  and  C_31
REMARK    9  A    between atoms: C_31  and  C_32
REMARK                            x       y       z     vdW  Elec       q    Type
REMARK                         _______ _______ _______ _____ _____    ______ ____
ROOT
ATOM      1  O   UNL     1     -12.990  -8.487  13.366  0.00  0.00    -0.370 OA
ATOM      2  O   UNL     1     -13.171  -6.203  15.484  0.00  0.00    -0.370 OA
ATOM     10  C   UNL     1     -12.322  -6.423  14.345  0.00  0.00    +0.171 C 
ATOM     11  C   UNL     1     -12.039  -7.912  14.276  0.00  0.00    +0.171 C 
ATOM     12  C   UNL     1     -13.075  -6.132  13.067  0.00  0.00    +0.130 C 
ATOM     13  C   UNL     1     -12.296  -8.400  15.683  0.00  0.00    +0.131 C 
ATOM     14  C   UNL     1     -13.793  -7.441  12.798  0.00  0.00    +0.185 C 
ATOM     15  C   UNL     1     -13.378  -7.450  16.165  0.00  0.00    +0.185 C 
ENDROOT
BRANCH  12   5
ATOM      5  N   UNL     1     -12.143  -5.842  12.000  0.00  0.00    -0.306 N 
ATOM      7  N   UNL     1     -13.650  -4.400  10.926  0.00  0.00    -0.219 NA
ATOM      9  N   UNL     1     -11.458  -4.805  10.009  0.00  0.00    -0.223 NA
ATOM     16  C   UNL     1     -12.425  -4.990  10.947  0.00  0.00    +0.216 A 
ATOM     19  C   UNL     1     -13.892  -3.576   9.885  0.00  0.00    +0.052 A 
ATOM     20  C   UNL     1     -12.979  -3.319   8.882  0.00  0.00    +0.043 A 
ATOM     21  C   UNL     1     -11.766  -3.968   8.998  0.00  0.00    +0.116 A 
ATOM     33  H   UNL     1     -11.209  -6.235  12.034  0.00  0.00    +0.149 HD
BRANCH  19  18
ATOM     18  C   UNL     1     -15.230  -2.919   9.846  0.00  0.00    +0.005 C 
ATOM     22  C   UNL     1     -16.434  -3.869   9.534  0.00  0.00    +0.017 C 
ATOM     23  C   UNL     1     -15.573  -2.250  11.212  0.00  0.00    +0.017 C 
ATOM     24  C   UNL     1     -15.283  -1.809   8.752  0.00  0.00    +0.017 C 
ENDBRANCH  19  18
ENDBRANCH  12   5
BRANCH  13   6
ATOM      3  O   UNL     1      -9.993 -10.101  15.578  0.00  0.00    -0.252 OA
ATOM      6  N   UNL     1     -11.109  -8.298  16.497  0.00  0.00    -0.292 N 
ATOM      8  N   UNL     1      -9.022  -8.830  17.295  0.00  0.00    -0.269 N 
ATOM     17  C   UNL     1     -10.022  -9.173  16.382  0.00  0.00    +0.304 C 
ATOM     34  H   UNL     1     -11.029  -7.514  17.138  0.00  0.00    +0.151 HD
ATOM     35  H   UNL     1      -9.207  -8.029  17.895  0.00  0.00    +0.156 HD
BRANCH   8  25
ATOM     25  C   UNL     1      -7.773  -9.463  17.493  0.00  0.00    +0.035 A 
ATOM     26  C   UNL     1      -7.536 -10.141  18.678  0.00  0.00    +0.024 A 
ATOM     27  C   UNL     1      -6.811  -9.391  16.499  0.00  0.00    +0.024 A 
ATOM     28  C   UNL     1      -6.304 -10.765  18.874  0.00  0.00    +0.013 A 
ATOM     29  C   UNL     1      -5.579 -10.015  16.694  0.00  0.00    +0.013 A 
ATOM     30  C   UNL     1      -5.325 -10.702  17.881  0.00  0.00    +0.017 A 
BRANCH  30  31
ATOM      4  O   UNL     1      -3.131 -11.278  17.234  0.00  0.00    -0.292 OA
ATOM     31  C   UNL     1      -4.041 -11.353  18.084  0.00  0.00    +0.160 C 
ATOM     32  C   UNL     1      -3.776 -12.152  19.356  0.00  0.00    +0.091 C 
ENDBRANCH  30  31
ENDBRANCH   8  25
ENDBRANCH  13   6
TORSDOF 5
ENDMDL
MODEL 9
REMARK VINA RESULT:      -6.6     16.656     18.200
REMARK  Name = 11941643
REMARK  9 active torsions:
REMARK  status: ('A' for Active; 'I' for Inactive)
REMARK    1  A    between atoms: N_5  and  C_12
REMARK    2  A    between atoms: N_6  and  C_13
REMARK    3  A    between atoms: N_8  and  C_25
REMARK    4  A    between atoms: C_18  and  C_19
REMARK    5  A    between atoms: C_18  and  C_22
REMARK    6  A    between atoms: C_18  and  C_23
REMARK    7  A    between atoms: C_18  and  C_24
REMARK    8  A    between atoms: C_30  and  C_31
REMARK    9  A    between atoms: C_31  and  C_32
REMARK                            x       y       z     vdW  Elec       q    Type
REMARK                         _______ _______ _______ _____ _____    ______ ____
ROOT
ATOM      1  O   UNL     1      -9.919  -7.192  16.398  0.00  0.00    -0.370 OA
ATOM      2  O   UNL     1     -11.788  -9.542  15.549  0.00  0.00    -0.370 OA
ATOM     10  C   UNL     1     -10.539  -9.045  15.039  0.00  0.00    +0.171 C 
ATOM     11  C   UNL     1     -10.572  -7.533  15.164  0.00  0.00    +0.171 C 
ATOM     12  C   UNL     1      -9.401  -9.465  15.940  0.00  0.00    +0.130 C 
ATOM     13  C   UNL     1     -12.045  -7.203  15.241  0.00  0.00    +0.131 C 
ATOM     14  C   UNL     1      -9.406  -8.386  17.007  0.00  0.00    +0.185 C 
ATOM     15  C   UNL     1     -12.619  -8.433  15.921  0.00  0.00    +0.185 C 
ENDROOT
BRANCH  12   5
ATOM      5  N   UNL     1      -8.155  -9.439  15.206  0.00  0.00    -0.306 N 
ATOM      7  N   UNL     1      -6.965 -10.417  16.975  0.00  0.00    -0.219 NA
ATOM      9  N   UNL     1      -5.857  -9.823  14.918  0.00  0.00    -0.223 NA
ATOM     16  C   UNL     1      -6.956  -9.907  15.715  0.00  0.00    +0.216 A 
ATOM     19  C   UNL     1      -5.779 -10.865  17.440  0.00  0.00    +0.052 A 
ATOM     20  C   UNL     1      -4.607 -10.827  16.713  0.00  0.00    +0.043 A 
ATOM     21  C   UNL     1      -4.707 -10.290  15.446  0.00  0.00    +0.116 A 
ATOM     33  H   UNL     1      -8.148  -9.109  14.248  0.00  0.00    +0.149 HD
BRANCH  19  18
ATOM     18  C   UNL     1      -5.770 -11.428  18.821  0.00  0.00    +0.005 C 
ATOM     22  C   UNL     1      -6.227 -10.447  19.950  0.00  0.00    +0.017 C 
ATOM     23  C   UNL     1      -6.716 -12.663  18.935  0.00  0.00    +0.017 C 
ATOM     24  C   UNL     1      -4.338 -11.894  19.231  0.00  0.00    +0.017 C 
ENDBRANCH  19  18
ENDBRANCH  12   5
BRANCH  13   6
ATOM      3  O   UNL     1     -12.652  -4.711  13.965  0.00  0.00    -0.252 OA
ATOM      6  N   UNL     1     -12.609  -7.022  13.925  0.00  0.00    -0.292 N 
ATOM      8  N   UNL     1     -13.416  -5.899  12.091  0.00  0.00    -0.269 N 
ATOM     17  C   UNL     1     -12.876  -5.763  13.372  0.00  0.00    +0.304 C 
ATOM     34  H   UNL     1     -12.758  -7.843  13.346  0.00  0.00    +0.151 HD
ATOM     35  H   UNL     1     -13.540  -6.849  11.747  0.00  0.00    +0.156 HD
BRANCH   8  25
ATOM     25  C   UNL     1     -13.818  -4.873  11.205  0.00  0.00    +0.035 A 
ATOM     26  C   UNL     1     -15.031  -4.235  11.411  0.00  0.00    +0.024 A 
ATOM     27  C   UNL     1     -12.992  -4.528  10.147  0.00  0.00    +0.024 A 
ATOM     28  C   UNL     1     -15.427  -3.224  10.537  0.00  0.00    +0.013 A 
ATOM     29  C   UNL     1     -13.388  -3.516   9.273  0.00  0.00    +0.013 A 
ATOM     30  C   UNL     1     -14.606  -2.864   9.468  0.00  0.00    +0.017 A 
BRANCH  30  31
ATOM      4  O   UNL     1     -14.657  -1.800   7.363  0.00  0.00    -0.292 OA
ATOM     31  C   UNL     1     -15.019  -1.808   8.556  0.00  0.00    +0.160 C 
ATOM     32  C   UNL     1     -15.914  -0.675   9.047  0.00  0.00    +0.091 C 
ENDBRANCH  30  31
ENDBRANCH   8  25
ENDBRANCH  13   6
TORSDOF 5
ENDMDL
MODEL 10
REMARK VINA RESULT:      -6.6     28.401     31.624
REMARK  Name = 11941643
REMARK  9 active torsions:
REMARK  status: ('A' for Active; 'I' for Inactive)
REMARK    1  A    between atoms: N_5  and  C_12
REMARK    2  A    between atoms: N_6  and  C_13
REMARK    3  A    between atoms: N_8  and  C_25
REMARK    4  A    between atoms: C_18  and  C_19
REMARK    5  A    between atoms: C_18  and  C_22
REMARK    6  A    between atoms: C_18  and  C_23
REMARK    7  A    between atoms: C_18  and  C_24
REMARK    8  A    between atoms: C_30  and  C_31
REMARK    9  A    between atoms: C_31  and  C_32
REMARK                            x       y       z     vdW  Elec       q    Type
REMARK                         _______ _______ _______ _____ _____    ______ ____
ROOT
ATOM      1  O   UNL     1       4.544  11.990   2.417  0.00  0.00    -0.370 OA
ATOM      2  O   UNL     1       5.073   9.931   0.133  0.00  0.00    -0.370 OA
ATOM     10  C   UNL     1       4.208   9.926   1.281  0.00  0.00    +0.171 C 
ATOM     11  C   UNL     1       4.953  10.613   2.410  0.00  0.00    +0.171 C 
ATOM     12  C   UNL     1       3.009  10.814   1.037  0.00  0.00    +0.130 C 
ATOM     13  C   UNL     1       6.407  10.498   2.012  0.00  0.00    +0.131 C 
ATOM     14  C   UNL     1       3.528  12.187   1.422  0.00  0.00    +0.185 C 
ATOM     15  C   UNL     1       6.333  10.517   0.496  0.00  0.00    +0.185 C 
ENDROOT
BRANCH  12   5
ATOM      5  N   UNL     1       1.922  10.426   1.908  0.00  0.00    -0.306 N 
ATOM      7  N   UNL     1       0.336  10.597   0.188  0.00  0.00    -0.219 NA
ATOM      9  N   UNL     1      -0.319   9.944   2.414  0.00  0.00    -0.223 NA
ATOM     16  C   UNL     1       0.607  10.319   1.491  0.00  0.00    +0.216 A 
ATOM     19  C   UNL     1      -0.956  10.483  -0.186  0.00  0.00    +0.052 A 
ATOM     20  C   UNL     1      -1.971  10.109   0.672  0.00  0.00    +0.043 A 
ATOM     21  C   UNL     1      -1.590   9.849   1.972  0.00  0.00    +0.116 A 
ATOM     33  H   UNL     1       2.121  10.167   2.868  0.00  0.00    +0.149 HD
BRANCH  19  18
ATOM     18  C   UNL     1      -1.272  10.783  -1.611  0.00  0.00    +0.005 C 
ATOM     22  C   UNL     1      -2.503  10.019  -2.201  0.00  0.00    +0.017 C 
ATOM     23  C   UNL     1      -1.586  12.297  -1.815  0.00  0.00    +0.017 C 
ATOM     24  C   UNL     1      -0.074  10.422  -2.544  0.00  0.00    +0.017 C 
ENDBRANCH  19  18
ENDBRANCH  12   5
BRANCH  13   6
ATOM      3  O   UNL     1       7.288   9.946   4.682  0.00  0.00    -0.252 OA
ATOM      6  N   UNL     1       6.985   9.267   2.494  0.00  0.00    -0.292 N 
ATOM      8  N   UNL     1       7.910   7.792   3.991  0.00  0.00    -0.269 N 
ATOM     17  C   UNL     1       7.391   9.078   3.820  0.00  0.00    +0.304 C 
ATOM     34  H   UNL     1       7.040   8.478   1.856  0.00  0.00    +0.151 HD
ATOM     35  H   UNL     1       7.926   7.193   3.168  0.00  0.00    +0.156 HD
BRANCH   8  25
ATOM     25  C   UNL     1       8.424   7.213   5.175  0.00  0.00    +0.035 A 
ATOM     26  C   UNL     1       9.202   6.070   5.089  0.00  0.00    +0.024 A 
ATOM     27  C   UNL     1       8.137   7.801   6.396  0.00  0.00    +0.024 A 
ATOM     28  C   UNL     1       9.707   5.499   6.257  0.00  0.00    +0.013 A 
ATOM     29  C   UNL     1       8.642   7.230   7.564  0.00  0.00    +0.013 A 
ATOM     30  C   UNL     1       9.427   6.079   7.495  0.00  0.00    +0.017 A 
BRANCH  30  31
ATOM      4  O   UNL     1      11.180   5.465   8.949  0.00  0.00    -0.292 OA
ATOM     31  C   UNL     1       9.955   5.485   8.713  0.00  0.00    +0.160 C 
ATOM     32  C   UNL     1       9.012   4.866   9.739  0.00  0.00    +0.091 C 
ENDBRANCH  30  31
ENDBRANCH   8  25
ENDBRANCH  13   6
TORSDOF 5
ENDMDL
