MODEL 1
REMARK VINA RESULT:      -7.1      0.000      0.000
REMARK  Name = 40781599
REMARK  10 active torsions:
REMARK  status: ('A' for Active; 'I' for Inactive)
REMARK    1  A    between atoms: O_2  and  C_8
REMARK    2  A    between atoms: O_3  and  C_9
REMARK    3  A    between atoms: N_6  and  C_12
REMARK    4  A    between atoms: N_7  and  C_17
REMARK    5  A    between atoms: C_10  and  C_12
REMARK    6  A    between atoms: C_11  and  C_13
REMARK    7  A    between atoms: C_13  and  C_14
REMARK    8  A    between atoms: C_15  and  C_16
REMARK    9  A    between atoms: C_17  and  C_23
REMARK   10  A    between atoms: C_22  and  C_24
REMARK                            x       y       z     vdW  Elec       q    Type
REMARK                         _______ _______ _______ _____ _____    ______ ____
ROOT
ATOM      1  O   UNL     1      12.727   8.251  22.149  0.00  0.00    -0.366 OA
ATOM      8  C   UNL     1      12.060   7.141  20.179  0.00  0.00    +0.176 C 
ATOM      9  C   UNL     1      11.090   6.761  21.278  0.00  0.00    +0.175 C 
ATOM     10  C   UNL     1      13.264   7.605  20.981  0.00  0.00    +0.167 C 
ATOM     11  C   UNL     1      11.350   7.845  22.319  0.00  0.00    +0.158 C 
ENDROOT
BRANCH   8   2
ATOM      2  O   UNL     1      12.379   6.068  19.319  0.00  0.00    -0.387 OA
ATOM     26  H   UNL     1      12.221   6.368  18.407  0.00  0.00    +0.210 HD
ENDBRANCH   8   2
BRANCH   9   3
ATOM      3  O   UNL     1      11.455   5.504  21.849  0.00  0.00    -0.387 OA
ATOM     27  H   UNL     1      10.819   4.844  21.527  0.00  0.00    +0.210 HD
ENDBRANCH   9   3
BRANCH  10  12
ATOM     12  C   UNL     1      14.155   8.575  20.224  0.00  0.00    +0.138 C 
BRANCH  12   6
ATOM      5  O   UNL     1      15.596   6.211  19.460  0.00  0.00    -0.270 OA
ATOM      6  N   UNL     1      15.540   8.302  20.466  0.00  0.00    -0.309 N 
ATOM     15  C   UNL     1      16.161   7.123  20.058  0.00  0.00    +0.244 C 
ATOM     28  H   UNL     1      16.080   9.038  20.908  0.00  0.00    +0.149 HD
BRANCH  15  16
ATOM     16  C   UNL     1      17.597   6.982  20.409  0.00  0.00    +0.037 A 
ATOM     18  C   UNL     1      18.310   5.858  19.990  0.00  0.00    +0.013 A 
ATOM     19  C   UNL     1      18.233   7.972  21.156  0.00  0.00    +0.013 A 
ATOM     20  C   UNL     1      19.658   5.724  20.320  0.00  0.00    +0.004 A 
ATOM     21  C   UNL     1      19.583   7.839  21.486  0.00  0.00    +0.004 A 
ATOM     22  C   UNL     1      20.295   6.715  21.068  0.00  0.00    -0.050 A 
ATOM     24  C   UNL     1      21.737   6.572  21.420  0.00  0.00    +0.044 C 
ENDBRANCH  15  16
ENDBRANCH  12   6
ENDBRANCH  10  12
BRANCH  11  13
ATOM     13  C   UNL     1      10.474   9.077  22.128  0.00  0.00    +0.130 C 
BRANCH  13  14
ATOM      4  O   UNL     1      11.418  11.255  21.665  0.00  0.00    -0.276 OA
ATOM      7  N   UNL     1      11.559  10.393  23.819  0.00  0.00    -0.304 N 
ATOM     14  C   UNL     1      11.195  10.364  22.481  0.00  0.00    +0.216 C 
ATOM     29  H   UNL     1      11.318   9.599  24.405  0.00  0.00    +0.150 HD
BRANCH   7  17
ATOM     17  C   UNL     1      12.260  11.504  24.422  0.00  0.00    +0.193 C 
BRANCH  17  23
ATOM     23  C   UNL     1      11.325  12.447  25.034  0.00  0.00    -0.087 C 
ATOM     25  C   UNL     1      10.559  13.224  25.536  0.00  0.00    +0.005 C 
ENDBRANCH  17  23
ENDBRANCH   7  17
ENDBRANCH  13  14
ENDBRANCH  11  13
TORSDOF 9
ENDMDL
MODEL 2
REMARK VINA RESULT:      -6.2     26.607     28.103
REMARK  Name = 40781599
REMARK  10 active torsions:
REMARK  status: ('A' for Active; 'I' for Inactive)
REMARK    1  A    between atoms: O_2  and  C_8
REMARK    2  A    between atoms: O_3  and  C_9
REMARK    3  A    between atoms: N_6  and  C_12
REMARK    4  A    between atoms: N_7  and  C_17
REMARK    5  A    between atoms: C_10  and  C_12
REMARK    6  A    between atoms: C_11  and  C_13
REMARK    7  A    between atoms: C_13  and  C_14
REMARK    8  A    between atoms: C_15  and  C_16
REMARK    9  A    between atoms: C_17  and  C_23
REMARK   10  A    between atoms: C_22  and  C_24
REMARK                            x       y       z     vdW  Elec       q    Type
REMARK                         _______ _______ _______ _____ _____    ______ ____
ROOT
ATOM      1  O   UNL     1      -4.822 -10.295  17.780  0.00  0.00    -0.366 OA
ATOM      8  C   UNL     1      -4.890 -12.358  16.641  0.00  0.00    +0.176 C 
ATOM      9  C   UNL     1      -6.241 -12.140  17.290  0.00  0.00    +0.175 C 
ATOM     10  C   UNL     1      -4.005 -11.436  17.462  0.00  0.00    +0.167 C 
ATOM     11  C   UNL     1      -6.212 -10.645  17.588  0.00  0.00    +0.158 C 
ENDROOT
BRANCH   8   2
ATOM      2  O   UNL     1      -4.453 -13.700  16.698  0.00  0.00    -0.387 OA
ATOM     26  H   UNL     1      -4.305 -13.918  17.634  0.00  0.00    +0.210 HD
ENDBRANCH   8   2
BRANCH   9   3
ATOM      3  O   UNL     1      -6.312 -12.837  18.534  0.00  0.00    -0.387 OA
ATOM     27  H   UNL     1      -5.472 -13.313  18.648  0.00  0.00    +0.210 HD
ENDBRANCH   9   3
BRANCH  10  12
ATOM     12  C   UNL     1      -2.759 -10.982  16.722  0.00  0.00    +0.138 C 
BRANCH  12   6
ATOM      5  O   UNL     1      -1.551 -11.894  14.281  0.00  0.00    -0.270 OA
ATOM      6  N   UNL     1      -3.075 -10.544  15.395  0.00  0.00    -0.309 N 
ATOM     15  C   UNL     1      -2.436 -11.042  14.262  0.00  0.00    +0.244 C 
ATOM     28  H   UNL     1      -3.836  -9.880  15.303  0.00  0.00    +0.149 HD
BRANCH  15  16
ATOM     16  C   UNL     1      -2.860 -10.465  12.961  0.00  0.00    +0.037 A 
ATOM     18  C   UNL     1      -1.902 -10.092  12.017  0.00  0.00    +0.013 A 
ATOM     19  C   UNL     1      -4.216 -10.295  12.682  0.00  0.00    +0.013 A 
ATOM     20  C   UNL     1      -2.301  -9.550  10.796  0.00  0.00    +0.004 A 
ATOM     21  C   UNL     1      -4.614  -9.752  11.460  0.00  0.00    +0.004 A 
ATOM     22  C   UNL     1      -3.657  -9.379  10.518  0.00  0.00    -0.050 A 
ATOM     24  C   UNL     1      -4.082  -8.799   9.211  0.00  0.00    +0.044 C 
ENDBRANCH  15  16
ENDBRANCH  12   6
ENDBRANCH  10  12
BRANCH  11  13
ATOM     13  C   UNL     1      -6.751  -9.798  16.443  0.00  0.00    +0.130 C 
BRANCH  13  14
ATOM      4  O   UNL     1      -9.004 -10.351  15.757  0.00  0.00    -0.276 OA
ATOM      7  N   UNL     1      -8.682  -8.725  17.386  0.00  0.00    -0.304 N 
ATOM     14  C   UNL     1      -8.263  -9.678  16.469  0.00  0.00    +0.216 C 
ATOM     29  H   UNL     1      -7.979  -8.230  17.926  0.00  0.00    +0.150 HD
BRANCH   7  17
ATOM     17  C   UNL     1     -10.074  -8.408  17.613  0.00  0.00    +0.193 C 
BRANCH  17  23
ATOM     23  C   UNL     1     -10.515  -7.321  16.740  0.00  0.00    -0.087 C 
ATOM     25  C   UNL     1     -10.876  -6.429  16.020  0.00  0.00    +0.005 C 
ENDBRANCH  17  23
ENDBRANCH   7  17
ENDBRANCH  13  14
ENDBRANCH  11  13
TORSDOF 9
ENDMDL
MODEL 3
REMARK VINA RESULT:      -6.1     26.013     28.718
REMARK  Name = 40781599
REMARK  10 active torsions:
REMARK  status: ('A' for Active; 'I' for Inactive)
REMARK    1  A    between atoms: O_2  and  C_8
REMARK    2  A    between atoms: O_3  and  C_9
REMARK    3  A    between atoms: N_6  and  C_12
REMARK    4  A    between atoms: N_7  and  C_17
REMARK    5  A    between atoms: C_10  and  C_12
REMARK    6  A    between atoms: C_11  and  C_13
REMARK    7  A    between atoms: C_13  and  C_14
REMARK    8  A    between atoms: C_15  and  C_16
REMARK    9  A    between atoms: C_17  and  C_23
REMARK   10  A    between atoms: C_22  and  C_24
REMARK                            x       y       z     vdW  Elec       q    Type
REMARK                         _______ _______ _______ _____ _____    ______ ____
ROOT
ATOM      1  O   UNL     1      -4.343  -9.563  11.656  0.00  0.00    -0.366 OA
ATOM      8  C   UNL     1      -5.920  -9.589   9.904  0.00  0.00    +0.176 C 
ATOM      9  C   UNL     1      -4.545  -9.775   9.295  0.00  0.00    +0.175 C 
ATOM     10  C   UNL     1      -5.579  -8.955  11.241  0.00  0.00    +0.167 C 
ATOM     11  C   UNL     1      -3.713 -10.178  10.508  0.00  0.00    +0.158 C 
ENDROOT
BRANCH   8   2
ATOM      2  O   UNL     1      -6.768  -8.768   9.130  0.00  0.00    -0.387 OA
ATOM     26  H   UNL     1      -6.477  -8.839   8.204  0.00  0.00    +0.210 HD
ENDBRANCH   8   2
BRANCH   9   3
ATOM      3  O   UNL     1      -4.045  -8.528   8.811  0.00  0.00    -0.387 OA
ATOM     27  H   UNL     1      -3.778  -8.662   7.886  0.00  0.00    +0.210 HD
ENDBRANCH   9   3
BRANCH  10  12
ATOM     12  C   UNL     1      -6.641  -9.180  12.303  0.00  0.00    +0.138 C 
BRANCH  12   6
ATOM      5  O   UNL     1      -7.926 -10.828  14.272  0.00  0.00    -0.270 OA
ATOM      6  N   UNL     1      -6.062  -9.668  13.519  0.00  0.00    -0.309 N 
ATOM     15  C   UNL     1      -6.762 -10.466  14.421  0.00  0.00    +0.244 C 
ATOM     28  H   UNL     1      -5.084  -9.452  13.679  0.00  0.00    +0.149 HD
BRANCH  15  16
ATOM     16  C   UNL     1      -6.028 -10.868  15.649  0.00  0.00    +0.037 A 
ATOM     18  C   UNL     1      -6.083 -12.190  16.093  0.00  0.00    +0.013 A 
ATOM     19  C   UNL     1      -5.285  -9.925  16.357  0.00  0.00    +0.013 A 
ATOM     20  C   UNL     1      -5.395 -12.567  17.245  0.00  0.00    +0.004 A 
ATOM     21  C   UNL     1      -4.597 -10.303  17.511  0.00  0.00    +0.004 A 
ATOM     22  C   UNL     1      -4.652 -11.623  17.955  0.00  0.00    -0.050 A 
ATOM     24  C   UNL     1      -3.916 -12.028  19.188  0.00  0.00    +0.044 C 
ENDBRANCH  15  16
ENDBRANCH  12   6
ENDBRANCH  10  12
BRANCH  11  13
ATOM     13  C   UNL     1      -3.689 -11.683  10.741  0.00  0.00    +0.130 C 
BRANCH  13  14
ATOM      4  O   UNL     1      -4.965 -12.552  12.603  0.00  0.00    -0.276 OA
ATOM      7  N   UNL     1      -2.816 -11.751  12.977  0.00  0.00    -0.304 N 
ATOM     14  C   UNL     1      -3.921 -12.052  12.194  0.00  0.00    +0.216 C 
ATOM     29  H   UNL     1      -2.001 -11.341  12.530  0.00  0.00    +0.150 HD
BRANCH   7  17
ATOM     17  C   UNL     1      -2.767 -11.998  14.400  0.00  0.00    +0.193 C 
BRANCH  17  23
ATOM     23  C   UNL     1      -1.918 -11.018  15.076  0.00  0.00    -0.087 C 
ATOM     25  C   UNL     1      -1.217 -10.215  15.631  0.00  0.00    +0.005 C 
ENDBRANCH  17  23
ENDBRANCH   7  17
ENDBRANCH  13  14
ENDBRANCH  11  13
TORSDOF 9
ENDMDL
MODEL 4
REMARK VINA RESULT:      -6.0      3.924     10.066
REMARK  Name = 40781599
REMARK  10 active torsions:
REMARK  status: ('A' for Active; 'I' for Inactive)
REMARK    1  A    between atoms: O_2  and  C_8
REMARK    2  A    between atoms: O_3  and  C_9
REMARK    3  A    between atoms: N_6  and  C_12
REMARK    4  A    between atoms: N_7  and  C_17
REMARK    5  A    between atoms: C_10  and  C_12
REMARK    6  A    between atoms: C_11  and  C_13
REMARK    7  A    between atoms: C_13  and  C_14
REMARK    8  A    between atoms: C_15  and  C_16
REMARK    9  A    between atoms: C_17  and  C_23
REMARK   10  A    between atoms: C_22  and  C_24
REMARK                            x       y       z     vdW  Elec       q    Type
REMARK                         _______ _______ _______ _____ _____    ______ ____
ROOT
ATOM      1  O   UNL     1      20.318   5.280  21.130  0.00  0.00    -0.366 OA
ATOM      8  C   UNL     1      19.790   7.453  21.878  0.00  0.00    +0.176 C 
ATOM      9  C   UNL     1      20.893   6.911  22.763  0.00  0.00    +0.175 C 
ATOM     10  C   UNL     1      19.204   6.174  21.303  0.00  0.00    +0.167 C 
ATOM     11  C   UNL     1      21.427   5.750  21.931  0.00  0.00    +0.158 C 
ENDROOT
BRANCH   8   2
ATOM      2  O   UNL     1      18.827   8.206  22.582  0.00  0.00    -0.387 OA
ATOM     26  H   UNL     1      19.208   9.086  22.746  0.00  0.00    +0.210 HD
ENDBRANCH   8   2
BRANCH   9   3
ATOM      3  O   UNL     1      20.344   6.376  23.967  0.00  0.00    -0.387 OA
ATOM     27  H   UNL     1      19.405   6.629  23.996  0.00  0.00    +0.210 HD
ENDBRANCH   9   3
BRANCH  10  12
ATOM     12  C   UNL     1      18.501   6.379  19.973  0.00  0.00    +0.138 C 
BRANCH  12   6
ATOM      5  O   UNL     1      16.287   5.752  18.255  0.00  0.00    -0.270 OA
ATOM      6  N   UNL     1      17.135   6.765  20.163  0.00  0.00    -0.309 N 
ATOM     15  C   UNL     1      16.120   6.415  19.275  0.00  0.00    +0.244 C 
ATOM     28  H   UNL     1      16.917   7.269  21.016  0.00  0.00    +0.149 HD
BRANCH  15  16
ATOM     16  C   UNL     1      14.760   6.916  19.601  0.00  0.00    +0.037 A 
ATOM     18  C   UNL     1      14.313   6.911  20.923  0.00  0.00    +0.013 A 
ATOM     19  C   UNL     1      13.930   7.391  18.586  0.00  0.00    +0.013 A 
ATOM     20  C   UNL     1      13.036   7.380  21.229  0.00  0.00    +0.004 A 
ATOM     21  C   UNL     1      12.653   7.860  18.892  0.00  0.00    +0.004 A 
ATOM     22  C   UNL     1      12.205   7.854  20.213  0.00  0.00    -0.050 A 
ATOM     24  C   UNL     1      10.840   8.357  20.541  0.00  0.00    +0.044 C 
ENDBRANCH  15  16
ENDBRANCH  12   6
ENDBRANCH  10  12
BRANCH  11  13
ATOM     13  C   UNL     1      22.545   6.161  20.982  0.00  0.00    +0.130 C 
BRANCH  13  14
ATOM      4  O   UNL     1      24.596   5.287  21.922  0.00  0.00    -0.276 OA
ATOM      7  N   UNL     1      23.722   4.310  20.003  0.00  0.00    -0.304 N 
ATOM     14  C   UNL     1      23.737   5.224  21.047  0.00  0.00    +0.216 C 
ATOM     29  H   UNL     1      22.957   4.348  19.336  0.00  0.00    +0.150 HD
BRANCH   7  17
ATOM     17  C   UNL     1      24.742   3.302  19.823  0.00  0.00    +0.193 C 
BRANCH  17  23
ATOM     23  C   UNL     1      24.462   2.119  20.636  0.00  0.00    -0.087 C 
ATOM     25  C   UNL     1      24.230   1.146  21.301  0.00  0.00    +0.005 C 
ENDBRANCH  17  23
ENDBRANCH   7  17
ENDBRANCH  13  14
ENDBRANCH  11  13
TORSDOF 9
ENDMDL
MODEL 5
REMARK VINA RESULT:      -6.0     16.336     18.133
REMARK  Name = 40781599
REMARK  10 active torsions:
REMARK  status: ('A' for Active; 'I' for Inactive)
REMARK    1  A    between atoms: O_2  and  C_8
REMARK    2  A    between atoms: O_3  and  C_9
REMARK    3  A    between atoms: N_6  and  C_12
REMARK    4  A    between atoms: N_7  and  C_17
REMARK    5  A    between atoms: C_10  and  C_12
REMARK    6  A    between atoms: C_11  and  C_13
REMARK    7  A    between atoms: C_13  and  C_14
REMARK    8  A    between atoms: C_15  and  C_16
REMARK    9  A    between atoms: C_17  and  C_23
REMARK   10  A    between atoms: C_22  and  C_24
REMARK                            x       y       z     vdW  Elec       q    Type
REMARK                         _______ _______ _______ _____ _____    ______ ____
ROOT
ATOM      1  O   UNL     1      11.062   6.914   7.314  0.00  0.00    -0.366 OA
ATOM      8  C   UNL     1      10.046   5.220   6.027  0.00  0.00    +0.176 C 
ATOM      9  C   UNL     1       9.627   5.023   7.469  0.00  0.00    +0.175 C 
ATOM     10  C   UNL     1      11.306   6.055   6.186  0.00  0.00    +0.167 C 
ATOM     11  C   UNL     1       9.962   6.377   8.084  0.00  0.00    +0.158 C 
ENDROOT
BRANCH   8   2
ATOM      2  O   UNL     1      10.297   4.009   5.346  0.00  0.00    -0.387 OA
ATOM     26  H   UNL     1      10.340   4.211   4.396  0.00  0.00    +0.210 HD
ENDBRANCH   8   2
BRANCH   9   3
ATOM      3  O   UNL     1      10.450   4.038   8.094  0.00  0.00    -0.387 OA
ATOM     27  H   UNL     1      10.257   3.185   7.667  0.00  0.00    +0.210 HD
ENDBRANCH   9   3
BRANCH  10  12
ATOM     12  C   UNL     1      11.630   6.895   4.964  0.00  0.00    +0.138 C 
BRANCH  12   6
ATOM      5  O   UNL     1      10.312   7.117   2.423  0.00  0.00    -0.270 OA
ATOM      6  N   UNL     1      11.849   6.072   3.812  0.00  0.00    -0.309 N 
ATOM     15  C   UNL     1      11.162   6.251   2.614  0.00  0.00    +0.244 C 
ATOM     28  H   UNL     1      12.578   5.370   3.884  0.00  0.00    +0.149 HD
BRANCH  15  16
ATOM     16  C   UNL     1      11.485   5.297   1.522  0.00  0.00    +0.037 A 
ATOM     18  C   UNL     1      10.678   5.238   0.385  0.00  0.00    +0.013 A 
ATOM     19  C   UNL     1      12.594   4.459   1.634  0.00  0.00    +0.013 A 
ATOM     20  C   UNL     1      10.981   4.342  -0.639  0.00  0.00    +0.004 A 
ATOM     21  C   UNL     1      12.897   3.562   0.609  0.00  0.00    +0.004 A 
ATOM     22  C   UNL     1      12.090   3.503  -0.527  0.00  0.00    -0.050 A 
ATOM     24  C   UNL     1      12.413   2.545  -1.623  0.00  0.00    +0.044 C 
ENDBRANCH  15  16
ENDBRANCH  12   6
ENDBRANCH  10  12
BRANCH  11  13
ATOM     13  C   UNL     1       8.809   7.370   8.003  0.00  0.00    +0.130 C 
BRANCH  13  14
ATOM      4  O   UNL     1       9.644   9.588   8.486  0.00  0.00    -0.276 OA
ATOM      7  N   UNL     1       9.213   8.994   6.280  0.00  0.00    -0.304 N 
ATOM     14  C   UNL     1       9.271   8.771   7.648  0.00  0.00    +0.216 C 
ATOM     29  H   UNL     1       8.890   8.242   5.679  0.00  0.00    +0.150 HD
BRANCH   7  17
ATOM     17  C   UNL     1       9.595  10.247   5.669  0.00  0.00    +0.193 C 
BRANCH  17  23
ATOM     23  C   UNL     1       8.418  11.042   5.319  0.00  0.00    -0.087 C 
ATOM     25  C   UNL     1       7.450  11.692   5.030  0.00  0.00    +0.005 C 
ENDBRANCH  17  23
ENDBRANCH   7  17
ENDBRANCH  13  14
ENDBRANCH  11  13
TORSDOF 9
ENDMDL
MODEL 6
REMARK VINA RESULT:      -5.9     26.494     28.510
REMARK  Name = 40781599
REMARK  10 active torsions:
REMARK  status: ('A' for Active; 'I' for Inactive)
REMARK    1  A    between atoms: O_2  and  C_8
REMARK    2  A    between atoms: O_3  and  C_9
REMARK    3  A    between atoms: N_6  and  C_12
REMARK    4  A    between atoms: N_7  and  C_17
REMARK    5  A    between atoms: C_10  and  C_12
REMARK    6  A    between atoms: C_11  and  C_13
REMARK    7  A    between atoms: C_13  and  C_14
REMARK    8  A    between atoms: C_15  and  C_16
REMARK    9  A    between atoms: C_17  and  C_23
REMARK   10  A    between atoms: C_22  and  C_24
REMARK                            x       y       z     vdW  Elec       q    Type
REMARK                         _______ _______ _______ _____ _____    ______ ____
ROOT
ATOM      1  O   UNL     1      -5.733 -10.230  18.595  0.00  0.00    -0.366 OA
ATOM      8  C   UNL     1      -7.076 -12.166  18.657  0.00  0.00    +0.176 C 
ATOM      9  C   UNL     1      -7.995 -10.963  18.608  0.00  0.00    +0.175 C 
ATOM     10  C   UNL     1      -5.789 -11.546  19.174  0.00  0.00    +0.167 C 
ATOM     11  C   UNL     1      -7.053  -9.863  18.132  0.00  0.00    +0.158 C 
ENDROOT
BRANCH   8   2
ATOM      2  O   UNL     1      -7.545 -13.194  19.504  0.00  0.00    -0.387 OA
ATOM     26  H   UNL     1      -6.789 -13.770  19.710  0.00  0.00    +0.210 HD
ENDBRANCH   8   2
BRANCH   9   3
ATOM      3  O   UNL     1      -8.441 -10.626  19.921  0.00  0.00    -0.387 OA
ATOM     27  H   UNL     1      -7.776 -10.032  20.310  0.00  0.00    +0.210 HD
ENDBRANCH   9   3
BRANCH  10  12
ATOM     12  C   UNL     1      -4.546 -12.328  18.788  0.00  0.00    +0.138 C 
BRANCH  12   6
ATOM      5  O   UNL     1      -4.979 -13.306  16.123  0.00  0.00    -0.270 OA
ATOM      6  N   UNL     1      -3.965 -11.815  17.583  0.00  0.00    -0.309 N 
ATOM     15  C   UNL     1      -4.232 -12.353  16.327  0.00  0.00    +0.244 C 
ATOM     28  H   UNL     1      -3.379 -10.992  17.674  0.00  0.00    +0.149 HD
BRANCH  15  16
ATOM     16  C   UNL     1      -3.528 -11.724  15.180  0.00  0.00    +0.037 A 
ATOM     18  C   UNL     1      -2.395 -10.940  15.401  0.00  0.00    +0.013 A 
ATOM     19  C   UNL     1      -4.000 -11.917  13.882  0.00  0.00    +0.013 A 
ATOM     20  C   UNL     1      -1.735 -10.349  14.324  0.00  0.00    +0.004 A 
ATOM     21  C   UNL     1      -3.339 -11.326  12.805  0.00  0.00    +0.004 A 
ATOM     22  C   UNL     1      -2.208 -10.541  13.025  0.00  0.00    -0.050 A 
ATOM     24  C   UNL     1      -1.501  -9.909  11.874  0.00  0.00    +0.044 C 
ENDBRANCH  15  16
ENDBRANCH  12   6
ENDBRANCH  10  12
BRANCH  11  13
ATOM     13  C   UNL     1      -6.997  -9.741  16.615  0.00  0.00    +0.130 C 
BRANCH  13  14
ATOM      4  O   UNL     1      -8.820 -10.806  15.435  0.00  0.00    -0.276 OA
ATOM      7  N   UNL     1      -9.033  -8.584  16.081  0.00  0.00    -0.304 N 
ATOM     14  C   UNL     1      -8.371  -9.799  15.975  0.00  0.00    +0.216 C 
ATOM     29  H   UNL     1      -8.565  -7.816  16.555  0.00  0.00    +0.150 HD
BRANCH   7  17
ATOM     17  C   UNL     1     -10.360  -8.360  15.555  0.00  0.00    +0.193 C 
BRANCH  17  23
ATOM     23  C   UNL     1     -10.868  -7.046  15.949  0.00  0.00    -0.087 C 
ATOM     25  C   UNL     1     -11.288  -5.968  16.272  0.00  0.00    +0.005 C 
ENDBRANCH  17  23
ENDBRANCH   7  17
ENDBRANCH  13  14
ENDBRANCH  11  13
TORSDOF 9
ENDMDL
MODEL 7
REMARK VINA RESULT:      -5.8     26.496     30.362
REMARK  Name = 40781599
REMARK  10 active torsions:
REMARK  status: ('A' for Active; 'I' for Inactive)
REMARK    1  A    between atoms: O_2  and  C_8
REMARK    2  A    between atoms: O_3  and  C_9
REMARK    3  A    between atoms: N_6  and  C_12
REMARK    4  A    between atoms: N_7  and  C_17
REMARK    5  A    between atoms: C_10  and  C_12
REMARK    6  A    between atoms: C_11  and  C_13
REMARK    7  A    between atoms: C_13  and  C_14
REMARK    8  A    between atoms: C_15  and  C_16
REMARK    9  A    between atoms: C_17  and  C_23
REMARK   10  A    between atoms: C_22  and  C_24
REMARK                            x       y       z     vdW  Elec       q    Type
REMARK                         _______ _______ _______ _____ _____    ______ ____
ROOT
ATOM      1  O   UNL     1      -6.039 -10.902  16.608  0.00  0.00    -0.366 OA
ATOM      8  C   UNL     1      -6.081 -10.628  18.949  0.00  0.00    +0.176 C 
ATOM      9  C   UNL     1      -5.025 -11.662  18.621  0.00  0.00    +0.175 C 
ATOM     10  C   UNL     1      -6.945 -10.667  17.701  0.00  0.00    +0.167 C 
ATOM     11  C   UNL     1      -4.795 -11.420  17.133  0.00  0.00    +0.158 C 
ENDROOT
BRANCH   8   2
ATOM      2  O   UNL     1      -6.820 -10.932  20.114  0.00  0.00    -0.387 OA
ATOM     26  H   UNL     1      -7.722 -11.162  19.834  0.00  0.00    +0.210 HD
ENDBRANCH   8   2
BRANCH   9   3
ATOM      3  O   UNL     1      -5.554 -12.979  18.778  0.00  0.00    -0.387 OA
ATOM     27  H   UNL     1      -6.297 -13.069  18.156  0.00  0.00    +0.210 HD
ENDBRANCH   9   3
BRANCH  10  12
ATOM     12  C   UNL     1      -7.714  -9.380  17.459  0.00  0.00    +0.138 C 
BRANCH  12   6
ATOM      5  O   UNL     1     -10.193 -10.441  16.473  0.00  0.00    -0.270 OA
ATOM      6  N   UNL     1      -8.973  -9.392  18.144  0.00  0.00    -0.309 N 
ATOM     15  C   UNL     1     -10.130  -9.930  17.588  0.00  0.00    +0.244 C 
ATOM     28  H   UNL     1      -8.979  -9.034  19.093  0.00  0.00    +0.149 HD
BRANCH  15  16
ATOM     16  C   UNL     1     -11.360  -9.841  18.417  0.00  0.00    +0.037 A 
ATOM     18  C   UNL     1     -11.283 -10.003  19.801  0.00  0.00    +0.013 A 
ATOM     19  C   UNL     1     -12.592  -9.594  17.812  0.00  0.00    +0.013 A 
ATOM     20  C   UNL     1     -12.437  -9.920  20.578  0.00  0.00    +0.004 A 
ATOM     21  C   UNL     1     -13.747  -9.511  18.590  0.00  0.00    +0.004 A 
ATOM     22  C   UNL     1     -13.670  -9.674  19.972  0.00  0.00    -0.050 A 
ATOM     24  C   UNL     1     -14.904  -9.585  20.805  0.00  0.00    +0.044 C 
ENDBRANCH  15  16
ENDBRANCH  12   6
ENDBRANCH  10  12
BRANCH  11  13
ATOM     13  C   UNL     1      -3.709 -10.388  16.858  0.00  0.00    +0.130 C 
BRANCH  13  14
ATOM      4  O   UNL     1      -1.442 -10.794  16.118  0.00  0.00    -0.276 OA
ATOM      7  N   UNL     1      -3.212 -11.492  14.783  0.00  0.00    -0.304 N 
ATOM     14  C   UNL     1      -2.646 -10.901  15.904  0.00  0.00    +0.216 C 
ATOM     29  H   UNL     1      -4.225 -11.528  14.713  0.00  0.00    +0.150 HD
BRANCH   7  17
ATOM     17  C   UNL     1      -2.427 -12.064  13.713  0.00  0.00    +0.193 C 
BRANCH  17  23
ATOM     23  C   UNL     1      -2.131 -11.065  12.686  0.00  0.00    -0.087 C 
ATOM     25  C   UNL     1      -1.884 -10.245  11.844  0.00  0.00    +0.005 C 
ENDBRANCH  17  23
ENDBRANCH   7  17
ENDBRANCH  13  14
ENDBRANCH  11  13
TORSDOF 9
ENDMDL
MODEL 8
REMARK VINA RESULT:      -5.7     26.612     28.778
REMARK  Name = 40781599
REMARK  10 active torsions:
REMARK  status: ('A' for Active; 'I' for Inactive)
REMARK    1  A    between atoms: O_2  and  C_8
REMARK    2  A    between atoms: O_3  and  C_9
REMARK    3  A    between atoms: N_6  and  C_12
REMARK    4  A    between atoms: N_7  and  C_17
REMARK    5  A    between atoms: C_10  and  C_12
REMARK    6  A    between atoms: C_11  and  C_13
REMARK    7  A    between atoms: C_13  and  C_14
REMARK    8  A    between atoms: C_15  and  C_16
REMARK    9  A    between atoms: C_17  and  C_23
REMARK   10  A    between atoms: C_22  and  C_24
REMARK                            x       y       z     vdW  Elec       q    Type
REMARK                         _______ _______ _______ _____ _____    ______ ____
ROOT
ATOM      1  O   UNL     1      -5.615 -11.396  16.163  0.00  0.00    -0.366 OA
ATOM      8  C   UNL     1      -6.071 -10.153  18.114  0.00  0.00    +0.176 C 
ATOM      9  C   UNL     1      -4.941 -11.112  18.426  0.00  0.00    +0.175 C 
ATOM     10  C   UNL     1      -6.704 -10.813  16.900  0.00  0.00    +0.167 C 
ATOM     11  C   UNL     1      -4.465 -11.507  17.033  0.00  0.00    +0.158 C 
ENDROOT
BRANCH   8   2
ATOM      2  O   UNL     1      -6.990 -10.006  19.175  0.00  0.00    -0.387 OA
ATOM     26  H   UNL     1      -6.515  -9.593  19.917  0.00  0.00    +0.210 HD
ENDBRANCH   8   2
BRANCH   9   3
ATOM      3  O   UNL     1      -5.448 -12.282  19.068  0.00  0.00    -0.387 OA
ATOM     27  H   UNL     1      -5.556 -12.965  18.384  0.00  0.00    +0.210 HD
ENDBRANCH   9   3
BRANCH  10  12
ATOM     12  C   UNL     1      -7.460  -9.841  16.012  0.00  0.00    +0.138 C 
BRANCH  12   6
ATOM      5  O   UNL     1      -8.578 -10.657  13.496  0.00  0.00    -0.270 OA
ATOM      6  N   UNL     1      -6.842  -9.728  14.724  0.00  0.00    -0.309 N 
ATOM     15  C   UNL     1      -7.460 -10.151  13.550  0.00  0.00    +0.244 C 
ATOM     28  H   UNL     1      -5.939  -9.268  14.690  0.00  0.00    +0.149 HD
BRANCH  15  16
ATOM     16  C   UNL     1      -6.675  -9.989  12.299  0.00  0.00    +0.037 A 
ATOM     18  C   UNL     1      -6.050  -8.773  12.021  0.00  0.00    +0.013 A 
ATOM     19  C   UNL     1      -6.563 -11.051  11.404  0.00  0.00    +0.013 A 
ATOM     20  C   UNL     1      -5.314  -8.620  10.846  0.00  0.00    +0.004 A 
ATOM     21  C   UNL     1      -5.826 -10.898  10.229  0.00  0.00    +0.004 A 
ATOM     22  C   UNL     1      -5.202  -9.683   9.950  0.00  0.00    -0.050 A 
ATOM     24  C   UNL     1      -4.414  -9.519   8.694  0.00  0.00    +0.044 C 
ENDBRANCH  15  16
ENDBRANCH  12   6
ENDBRANCH  10  12
BRANCH  11  13
ATOM     13  C   UNL     1      -3.381 -10.584  16.489  0.00  0.00    +0.130 C 
BRANCH  13  14
ATOM      4  O   UNL     1      -1.518 -11.509  15.254  0.00  0.00    -0.276 OA
ATOM      7  N   UNL     1      -3.556 -11.211  14.177  0.00  0.00    -0.304 N 
ATOM     14  C   UNL     1      -2.694 -11.153  15.262  0.00  0.00    +0.216 C 
ATOM     29  H   UNL     1      -4.513 -10.892  14.300  0.00  0.00    +0.150 HD
BRANCH   7  17
ATOM     17  C   UNL     1      -3.160 -11.711  12.880  0.00  0.00    +0.193 C 
BRANCH  17  23
ATOM     23  C   UNL     1      -2.420 -10.698  12.129  0.00  0.00    -0.087 C 
ATOM     25  C   UNL     1      -1.812  -9.863  11.516  0.00  0.00    +0.005 C 
ENDBRANCH  17  23
ENDBRANCH   7  17
ENDBRANCH  13  14
ENDBRANCH  11  13
TORSDOF 9
ENDMDL
MODEL 9
REMARK VINA RESULT:      -5.7     23.522     27.234
REMARK  Name = 40781599
REMARK  10 active torsions:
REMARK  status: ('A' for Active; 'I' for Inactive)
REMARK    1  A    between atoms: O_2  and  C_8
REMARK    2  A    between atoms: O_3  and  C_9
REMARK    3  A    between atoms: N_6  and  C_12
REMARK    4  A    between atoms: N_7  and  C_17
REMARK    5  A    between atoms: C_10  and  C_12
REMARK    6  A    between atoms: C_11  and  C_13
REMARK    7  A    between atoms: C_13  and  C_14
REMARK    8  A    between atoms: C_15  and  C_16
REMARK    9  A    between atoms: C_17  and  C_23
REMARK   10  A    between atoms: C_22  and  C_24
REMARK                            x       y       z     vdW  Elec       q    Type
REMARK                         _______ _______ _______ _____ _____    ______ ____
ROOT
ATOM      1  O   UNL     1     -12.084  10.251  15.422  0.00  0.00    -0.366 OA
ATOM      8  C   UNL     1     -12.375   7.992  14.816  0.00  0.00    +0.176 C 
ATOM      9  C   UNL     1     -10.964   8.396  14.440  0.00  0.00    +0.175 C 
ATOM     10  C   UNL     1     -13.067   9.341  14.899  0.00  0.00    +0.167 C 
ATOM     11  C   UNL     1     -10.770   9.668  15.259  0.00  0.00    +0.158 C 
ENDROOT
BRANCH   8   2
ATOM      2  O   UNL     1     -12.984   7.142  13.868  0.00  0.00    -0.387 OA
ATOM     26  H   UNL     1     -13.579   7.688  13.326  0.00  0.00    +0.210 HD
ENDBRANCH   8   2
BRANCH   9   3
ATOM      3  O   UNL     1     -10.902   8.747  13.057  0.00  0.00    -0.387 OA
ATOM     27  H   UNL     1     -11.793   9.029  12.789  0.00  0.00    +0.210 HD
ENDBRANCH   9   3
BRANCH  10  12
ATOM     12  C   UNL     1     -14.289   9.336  15.801  0.00  0.00    +0.138 C 
BRANCH  12   6
ATOM      5  O   UNL     1     -13.449  10.229  18.398  0.00  0.00    -0.270 OA
ATOM      6  N   UNL     1     -14.075   8.519  16.959  0.00  0.00    -0.309 N 
ATOM     15  C   UNL     1     -13.666   9.039  18.185  0.00  0.00    +0.244 C 
ATOM     28  H   UNL     1     -14.289   7.532  16.867  0.00  0.00    +0.149 HD
BRANCH  15  16
ATOM     16  C   UNL     1     -13.463   8.056  19.280  0.00  0.00    +0.037 A 
ATOM     18  C   UNL     1     -12.170   7.707  19.674  0.00  0.00    +0.013 A 
ATOM     19  C   UNL     1     -14.564   7.483  19.915  0.00  0.00    +0.013 A 
ATOM     20  C   UNL     1     -11.980   6.784  20.701  0.00  0.00    +0.004 A 
ATOM     21  C   UNL     1     -14.373   6.559  20.943  0.00  0.00    +0.004 A 
ATOM     22  C   UNL     1     -13.081   6.210  21.336  0.00  0.00    -0.050 A 
ATOM     24  C   UNL     1     -12.876   5.223  22.436  0.00  0.00    +0.044 C 
ENDBRANCH  15  16
ENDBRANCH  12   6
ENDBRANCH  10  12
BRANCH  11  13
ATOM     13  C   UNL     1     -10.203   9.402  16.647  0.00  0.00    +0.130 C 
BRANCH  13  14
ATOM      4  O   UNL     1     -10.122  10.741  18.660  0.00  0.00    -0.276 OA
ATOM      7  N   UNL     1      -9.620  11.732  16.618  0.00  0.00    -0.304 N 
ATOM     14  C   UNL     1      -9.985  10.677  17.441  0.00  0.00    +0.216 C 
ATOM     29  H   UNL     1      -9.532  11.562  15.621  0.00  0.00    +0.150 HD
BRANCH   7  17
ATOM     17  C   UNL     1      -9.352  13.063  17.115  0.00  0.00    +0.193 C 
BRANCH  17  23
ATOM     23  C   UNL     1      -7.967  13.453  16.854  0.00  0.00    -0.087 C 
ATOM     25  C   UNL     1      -6.830  13.773  16.637  0.00  0.00    +0.005 C 
ENDBRANCH  17  23
ENDBRANCH   7  17
ENDBRANCH  13  14
ENDBRANCH  11  13
TORSDOF 9
ENDMDL
MODEL 10
REMARK VINA RESULT:      -5.7     26.962     30.831
REMARK  Name = 40781599
REMARK  10 active torsions:
REMARK  status: ('A' for Active; 'I' for Inactive)
REMARK    1  A    between atoms: O_2  and  C_8
REMARK    2  A    between atoms: O_3  and  C_9
REMARK    3  A    between atoms: N_6  and  C_12
REMARK    4  A    between atoms: N_7  and  C_17
REMARK    5  A    between atoms: C_10  and  C_12
REMARK    6  A    between atoms: C_11  and  C_13
REMARK    7  A    between atoms: C_13  and  C_14
REMARK    8  A    between atoms: C_15  and  C_16
REMARK    9  A    between atoms: C_17  and  C_23
REMARK   10  A    between atoms: C_22  and  C_24
REMARK                            x       y       z     vdW  Elec       q    Type
REMARK                         _______ _______ _______ _____ _____    ______ ____
ROOT
ATOM      1  O   UNL     1     -16.759   4.412  21.946  0.00  0.00    -0.366 OA
ATOM      8  C   UNL     1     -15.239   4.693  23.727  0.00  0.00    +0.176 C 
ATOM      9  C   UNL     1     -14.569   5.186  22.461  0.00  0.00    +0.175 C 
ATOM     10  C   UNL     1     -16.321   3.786  23.166  0.00  0.00    +0.167 C 
ATOM     11  C   UNL     1     -15.758   5.366  21.522  0.00  0.00    +0.158 C 
ENDROOT
BRANCH   8   2
ATOM      2  O   UNL     1     -14.363   4.000  24.590  0.00  0.00    -0.387 OA
ATOM     26  H   UNL     1     -13.468   4.071  24.215  0.00  0.00    +0.210 HD
ENDBRANCH   8   2
BRANCH   9   3
ATOM      3  O   UNL     1     -13.727   4.170  21.918  0.00  0.00    -0.387 OA
ATOM     27  H   UNL     1     -13.038   4.613  21.393  0.00  0.00    +0.210 HD
ENDBRANCH   9   3
BRANCH  10  12
ATOM     12  C   UNL     1     -17.504   3.609  24.102  0.00  0.00    +0.138 C 
BRANCH  12   6
ATOM      5  O   UNL     1     -16.693   1.124  25.290  0.00  0.00    -0.270 OA
ATOM      6  N   UNL     1     -17.070   3.408  25.453  0.00  0.00    -0.309 N 
ATOM     15  C   UNL     1     -16.693   2.162  25.947  0.00  0.00    +0.244 C 
ATOM     28  H   UNL     1     -16.994   4.234  26.036  0.00  0.00    +0.149 HD
BRANCH  15  16
ATOM     16  C   UNL     1     -16.293   2.116  27.377  0.00  0.00    +0.037 A 
ATOM     18  C   UNL     1     -16.503   0.955  28.123  0.00  0.00    +0.013 A 
ATOM     19  C   UNL     1     -15.708   3.232  27.973  0.00  0.00    +0.013 A 
ATOM     20  C   UNL     1     -16.128   0.913  29.466  0.00  0.00    +0.004 A 
ATOM     21  C   UNL     1     -15.333   3.189  29.317  0.00  0.00    +0.004 A 
ATOM     22  C   UNL     1     -15.544   2.030  30.063  0.00  0.00    -0.050 A 
ATOM     24  C   UNL     1     -15.143   1.983  31.499  0.00  0.00    +0.044 C 
ENDBRANCH  15  16
ENDBRANCH  12   6
ENDBRANCH  10  12
BRANCH  11  13
ATOM     13  C   UNL     1     -16.376   6.755  21.602  0.00  0.00    +0.130 C 
BRANCH  13  14
ATOM      4  O   UNL     1     -15.255   8.889  21.810  0.00  0.00    -0.276 OA
ATOM      7  N   UNL     1     -14.747   7.513  20.007  0.00  0.00    -0.304 N 
ATOM     14  C   UNL     1     -15.411   7.847  21.178  0.00  0.00    +0.216 C 
ATOM     29  H   UNL     1     -14.953   6.618  19.571  0.00  0.00    +0.150 HD
BRANCH   7  17
ATOM     17  C   UNL     1     -13.771   8.375  19.380  0.00  0.00    +0.193 C 
BRANCH  17  23
ATOM     23  C   UNL     1     -12.412   8.004  19.773  0.00  0.00    -0.087 C 
ATOM     25  C   UNL     1     -11.295   7.700  20.092  0.00  0.00    +0.005 C 
ENDBRANCH  17  23
ENDBRANCH   7  17
ENDBRANCH  13  14
ENDBRANCH  11  13
TORSDOF 9
ENDMDL
