REMARK  Name = 11879855
REMARK  10 active torsions:
REMARK  status: ('A' for Active; 'I' for Inactive)
REMARK    1  A    between atoms: S_1  and  N_11
REMARK    2  A    between atoms: S_1  and  C_25
REMARK    3  A    between atoms: O_6  and  C_29
REMARK    4  A    between atoms: O_6  and  C_33
REMARK    5  A    between atoms: O_7  and  C_30
REMARK    6  A    between atoms: O_7  and  C_34
REMARK    7  A    between atoms: N_10  and  C_24
REMARK    8  A    between atoms: N_11  and  C_22
REMARK    9  A    between atoms: C_25  and  C_26
REMARK   10  A    between atoms: C_26  and  C_31
REMARK                            x       y       z     vdW  Elec       q    Type
REMARK                         _______ _______ _______ _____ _____    ______ ____
ROOT
ATOM      2  O   UNL     1       1.117  -2.888   0.555  0.00  0.00    -0.266 OA
ATOM      3  O   UNL     1       1.177   1.829   2.448  0.00  0.00    -0.252 OA
ATOM      8  N   UNL     1       2.838   1.766   0.841  0.00  0.00    -0.284 N 
ATOM      9  N   UNL     1       2.494  -1.168  -0.241  0.00  0.00    -0.310 N 
ATOM     10  N   UNL     1       0.712   2.646   0.326  0.00  0.00    -0.269 N 
ATOM     12  C   UNL     1       4.393  -0.148   1.141  0.00  0.00    +0.027 C 
ATOM     13  C   UNL     1       3.923   0.714  -1.121  0.00  0.00    +0.054 C 
ATOM     14  C   UNL     1       5.023   0.155  -0.216  0.00  0.00    +0.018 C 
ATOM     15  C   UNL     1       3.787   1.129   1.757  0.00  0.00    +0.114 C 
ATOM     16  C   UNL     1       3.345  -1.252   0.955  0.00  0.00    +0.130 C 
ATOM     17  C   UNL     1       3.378   2.017  -0.506  0.00  0.00    +0.119 C 
ATOM     18  C   UNL     1       2.796  -0.287  -1.290  0.00  0.00    +0.027 A 
ATOM     19  C   UNL     1       2.069  -0.301  -2.423  0.00  0.00    +0.024 A 
ATOM     20  C   UNL     1       1.421  -2.081  -0.322  0.00  0.00    +0.274 A 
ATOM     21  C   UNL     1       1.539   2.080   1.295  0.00  0.00    +0.306 C 
ATOM     22  C   UNL     1       0.642  -2.031  -1.585  0.00  0.00    +0.112 A 
ATOM     23  C   UNL     1       0.957  -1.199  -2.578  0.00  0.00    +0.031 A 
ATOM     35  H   UNL     1       1.140   3.194  -0.411  0.00  0.00    +0.156 HD
ENDROOT
BRANCH  10  24
ATOM     24  C   UNL     1      -0.698   2.540   0.231  0.00  0.00    +0.042 A 
ATOM     27  C   UNL     1      -1.376   3.173  -0.810  0.00  0.00    +0.069 A 
ATOM     28  C   UNL     1      -1.407   1.801   1.178  0.00  0.00    +0.069 A 
ATOM     29  C   UNL     1      -2.795   1.696   1.085  0.00  0.00    +0.125 A 
ATOM     30  C   UNL     1      -2.764   3.069  -0.904  0.00  0.00    +0.125 A 
ATOM     32  C   UNL     1      -3.473   2.330   0.044  0.00  0.00    +0.091 A 
BRANCH  29   6
ATOM      6  O   UNL     1      -3.487   0.977   2.009  0.00  0.00    -0.495 OA
ATOM     33  C   UNL     1      -2.732   0.355   3.047  0.00  0.00    +0.277 C 
ENDBRANCH  29   6
BRANCH  30   7
ATOM      7  O   UNL     1      -3.426   3.687  -1.919  0.00  0.00    -0.495 OA
ATOM     34  C   UNL     1      -4.845   3.538  -1.955  0.00  0.00    +0.277 C 
ENDBRANCH  30   7
ENDBRANCH  10  24
BRANCH  22  11
ATOM     11  N   UNL     1      -0.457  -2.887  -1.773  0.00  0.00    -0.215 N 
ATOM     36  H   UNL     1      -0.735  -3.018  -2.755  0.00  0.00    +0.173 HD
BRANCH  11   1
ATOM      1  S   UNL     1      -1.762  -2.649  -0.701  0.00  0.00    +0.043 S 
ATOM      4  O   UNL     1      -1.350  -1.782   0.386  0.00  0.00    -0.155 OA
ATOM      5  O   UNL     1      -2.966  -2.378  -1.462  0.00  0.00    -0.155 OA
BRANCH   1  25
ATOM     25  C   UNL     1      -1.905  -4.291  -0.038  0.00  0.00    +0.188 C 
BRANCH  25  26
ATOM     26  C   UNL     1      -3.028  -4.380   0.981  0.00  0.00    +0.021 C 
ATOM     31  C   UNL     1      -3.140  -5.779   1.563  0.00  0.00    +0.005 C 
ENDBRANCH  25  26
ENDBRANCH   1  25
ENDBRANCH  11   1
ENDBRANCH  22  11
TORSDOF 7
