MODEL 1
REMARK VINA RESULT:      -5.9      0.000      0.000
REMARK  Name = 56775618
REMARK  10 active torsions:
REMARK  status: ('A' for Active; 'I' for Inactive)
REMARK    1  A    between atoms: N_4  and  C_7
REMARK    2  A    between atoms: N_4  and  C_12
REMARK    3  A    between atoms: N_6  and  C_16
REMARK    4  A    between atoms: N_6  and  C_19
REMARK    5  A    between atoms: N_6  and  C_22
REMARK    6  A    between atoms: C_7  and  C_10
REMARK    7  A    between atoms: C_10  and  C_11
REMARK    8  A    between atoms: C_12  and  C_14
REMARK    9  A    between atoms: C_15  and  C_16
REMARK   10  A    between atoms: C_19  and  C_23
REMARK                            x       y       z     vdW  Elec       q    Type
REMARK                         _______ _______ _______ _____ _____    ______ ____
ROOT
ATOM     10  C   UNL     1      14.471   8.717   4.529  0.00  0.00    +0.085 C 
ENDROOT
BRANCH  10  11
ATOM      3  O   UNL     1      13.673   6.522   7.230  0.00  0.00    -0.358 OA
ATOM      5  N   UNL     1      14.581   7.187   6.415  0.00  0.00    -0.083 NA
ATOM     11  C   UNL     1      13.828   7.881   5.556  0.00  0.00    +0.086 A 
ATOM     13  C   UNL     1      12.453   7.694   5.779  0.00  0.00    +0.072 A 
ATOM     15  C   UNL     1      12.411   6.832   6.843  0.00  0.00    +0.151 A 
BRANCH  15  16
ATOM     16  C   UNL     1      11.292   6.195   7.623  0.00  0.00    +0.161 C 
BRANCH  16   6
ATOM      6  N   UNL     1      10.197   5.766   6.753  0.00  0.00    -0.294 NA
ATOM     22  C   UNL     1       9.846   4.372   7.022  0.00  0.00    +0.105 C 
BRANCH   6  19
ATOM     19  C   UNL     1       9.031   6.631   6.934  0.00  0.00    +0.119 C 
BRANCH  19  23
ATOM     23  C   UNL     1       8.689   7.383   5.675  0.00  0.00    -0.033 A 
ATOM     25  C   UNL     1       9.002   6.837   4.430  0.00  0.00    +0.005 A 
ATOM     26  C   UNL     1       8.061   8.626   5.754  0.00  0.00    +0.005 A 
ATOM     27  C   UNL     1       8.685   7.535   3.264  0.00  0.00    +0.000 A 
ATOM     28  C   UNL     1       7.744   9.323   4.589  0.00  0.00    +0.000 A 
ATOM     29  C   UNL     1       8.057   8.777   3.343  0.00  0.00    +0.000 A 
ENDBRANCH  19  23
ENDBRANCH   6  19
ENDBRANCH  16   6
ENDBRANCH  15  16
ENDBRANCH  10  11
BRANCH  10   7
ATOM      2  O   UNL     1      17.492   8.502   3.027  0.00  0.00    -0.376 OA
ATOM      7  C   UNL     1      15.583   7.947   3.804  0.00  0.00    +0.072 C 
ATOM      8  C   UNL     1      17.014   8.056   4.317  0.00  0.00    +0.184 C 
ATOM      9  C   UNL     1      16.144   8.511   2.504  0.00  0.00    +0.184 C 
BRANCH   7   4
ATOM      4  N   UNL     1      15.262   6.540   3.605  0.00  0.00    -0.302 NA
ATOM     30  H   UNL     1      15.993   5.880   3.862  0.00  0.00    +0.123 HD
BRANCH   4  12
ATOM     12  C   UNL     1      14.839   6.320   2.224  0.00  0.00    +0.118 C 
BRANCH  12  14
ATOM      1 CL   UNL     1      15.409   3.485   1.140  0.00  0.00    -0.083 Cl
ATOM     14  C   UNL     1      13.690   5.351   2.138  0.00  0.00    -0.015 A 
ATOM     17  C   UNL     1      13.864   4.052   1.658  0.00  0.00    +0.045 A 
ATOM     18  C   UNL     1      12.429   5.779   2.550  0.00  0.00    +0.006 A 
ATOM     20  C   UNL     1      12.775   3.182   1.593  0.00  0.00    +0.020 A 
ATOM     21  C   UNL     1      11.341   4.910   2.485  0.00  0.00    +0.000 A 
ATOM     24  C   UNL     1      11.513   3.611   2.006  0.00  0.00    +0.001 A 
ENDBRANCH  12  14
ENDBRANCH   4  12
ENDBRANCH   7   4
ENDBRANCH  10   7
TORSDOF 9
ENDMDL
MODEL 2
REMARK VINA RESULT:      -5.8     30.938     34.654
REMARK  Name = 56775618
REMARK  10 active torsions:
REMARK  status: ('A' for Active; 'I' for Inactive)
REMARK    1  A    between atoms: N_4  and  C_7
REMARK    2  A    between atoms: N_4  and  C_12
REMARK    3  A    between atoms: N_6  and  C_16
REMARK    4  A    between atoms: N_6  and  C_19
REMARK    5  A    between atoms: N_6  and  C_22
REMARK    6  A    between atoms: C_7  and  C_10
REMARK    7  A    between atoms: C_10  and  C_11
REMARK    8  A    between atoms: C_12  and  C_14
REMARK    9  A    between atoms: C_15  and  C_16
REMARK   10  A    between atoms: C_19  and  C_23
REMARK                            x       y       z     vdW  Elec       q    Type
REMARK                         _______ _______ _______ _____ _____    ______ ____
ROOT
ATOM     10  C   UNL     1     -14.809   5.161  23.555  0.00  0.00    +0.085 C 
ENDROOT
BRANCH  10  11
ATOM      3  O   UNL     1     -16.665   2.115  23.719  0.00  0.00    -0.358 OA
ATOM      5  N   UNL     1     -16.082   3.162  23.015  0.00  0.00    -0.083 NA
ATOM     11  C   UNL     1     -15.527   3.939  23.950  0.00  0.00    +0.086 A 
ATOM     13  C   UNL     1     -15.725   3.437  25.248  0.00  0.00    +0.072 A 
ATOM     15  C   UNL     1     -16.446   2.289  25.046  0.00  0.00    +0.151 A 
BRANCH  15  16
ATOM     16  C   UNL     1     -17.012   1.240  25.965  0.00  0.00    +0.161 C 
BRANCH  16   6
ATOM      6  N   UNL     1     -17.481   1.816  27.225  0.00  0.00    -0.294 NA
ATOM     22  C   UNL     1     -18.929   2.019  27.186  0.00  0.00    +0.105 C 
BRANCH   6  19
ATOM     19  C   UNL     1     -17.117   0.953  28.349  0.00  0.00    +0.119 C 
BRANCH  19  23
ATOM     23  C   UNL     1     -15.903   1.466  29.078  0.00  0.00    -0.033 A 
ATOM     25  C   UNL     1     -15.707   2.838  29.227  0.00  0.00    +0.005 A 
ATOM     26  C   UNL     1     -14.975   0.566  29.605  0.00  0.00    +0.005 A 
ATOM     27  C   UNL     1     -14.582   3.312  29.903  0.00  0.00    +0.000 A 
ATOM     28  C   UNL     1     -13.851   1.040  30.281  0.00  0.00    +0.000 A 
ATOM     29  C   UNL     1     -13.654   2.414  30.429  0.00  0.00    +0.000 A 
ENDBRANCH  19  23
ENDBRANCH   6  19
ENDBRANCH  16   6
ENDBRANCH  15  16
ENDBRANCH  10  11
BRANCH  10   7
ATOM      2  O   UNL     1     -17.187   7.565  23.577  0.00  0.00    -0.376 OA
ATOM      7  C   UNL     1     -15.751   6.157  22.862  0.00  0.00    +0.072 C 
ATOM      8  C   UNL     1     -15.764   7.608  23.327  0.00  0.00    +0.184 C 
ATOM      9  C   UNL     1     -17.228   6.160  23.239  0.00  0.00    +0.184 C 
BRANCH   7   4
ATOM      4  N   UNL     1     -15.637   6.129  21.410  0.00  0.00    -0.302 NA
ATOM     30  H   UNL     1     -15.028   5.409  21.029  0.00  0.00    +0.123 HD
BRANCH   4  12
ATOM     12  C   UNL     1     -15.237   7.447  20.921  0.00  0.00    +0.118 C 
BRANCH  12  14
ATOM      1 CL   UNL     1     -15.066   8.291  17.955  0.00  0.00    -0.083 Cl
ATOM     14  C   UNL     1     -13.889   7.411  20.251  0.00  0.00    -0.015 A 
ATOM     17  C   UNL     1     -13.727   7.776  18.914  0.00  0.00    +0.045 A 
ATOM     18  C   UNL     1     -12.788   6.999  21.001  0.00  0.00    +0.006 A 
ATOM     20  C   UNL     1     -12.462   7.728  18.328  0.00  0.00    +0.020 A 
ATOM     21  C   UNL     1     -11.523   6.952  20.414  0.00  0.00    +0.000 A 
ATOM     24  C   UNL     1     -11.360   7.317  19.078  0.00  0.00    +0.001 A 
ENDBRANCH  12  14
ENDBRANCH   4  12
ENDBRANCH   7   4
ENDBRANCH  10   7
TORSDOF 9
ENDMDL
MODEL 3
REMARK VINA RESULT:      -5.7     24.267     27.729
REMARK  Name = 56775618
REMARK  10 active torsions:
REMARK  status: ('A' for Active; 'I' for Inactive)
REMARK    1  A    between atoms: N_4  and  C_7
REMARK    2  A    between atoms: N_4  and  C_12
REMARK    3  A    between atoms: N_6  and  C_16
REMARK    4  A    between atoms: N_6  and  C_19
REMARK    5  A    between atoms: N_6  and  C_22
REMARK    6  A    between atoms: C_7  and  C_10
REMARK    7  A    between atoms: C_10  and  C_11
REMARK    8  A    between atoms: C_12  and  C_14
REMARK    9  A    between atoms: C_15  and  C_16
REMARK   10  A    between atoms: C_19  and  C_23
REMARK                            x       y       z     vdW  Elec       q    Type
REMARK                         _______ _______ _______ _____ _____    ______ ____
ROOT
ATOM     10  C   UNL     1      -8.337 -10.742  14.270  0.00  0.00    +0.085 C 
ENDROOT
BRANCH  10  11
ATOM      3  O   UNL     1      -7.548  -9.137  11.179  0.00  0.00    -0.358 OA
ATOM      5  N   UNL     1      -8.440  -9.738  12.058  0.00  0.00    -0.083 NA
ATOM     11  C   UNL     1      -7.704 -10.073  13.121  0.00  0.00    +0.086 A 
ATOM     13  C   UNL     1      -6.354  -9.711  12.972  0.00  0.00    +0.072 A 
ATOM     15  C   UNL     1      -6.310  -9.126  11.733  0.00  0.00    +0.151 A 
BRANCH  15  16
ATOM     16  C   UNL     1      -5.210  -8.506  10.913  0.00  0.00    +0.161 C 
BRANCH  16   6
ATOM      6  N   UNL     1      -4.517  -9.500  10.093  0.00  0.00    -0.294 NA
ATOM     22  C   UNL     1      -4.651  -9.174   8.674  0.00  0.00    +0.105 C 
BRANCH   6  19
ATOM     19  C   UNL     1      -3.105  -9.577  10.469  0.00  0.00    +0.119 C 
BRANCH  19  23
ATOM     23  C   UNL     1      -2.843 -10.700  11.437  0.00  0.00    -0.033 A 
ATOM     25  C   UNL     1      -3.236 -12.000  11.120  0.00  0.00    +0.005 A 
ATOM     26  C   UNL     1      -2.209 -10.439  12.652  0.00  0.00    +0.005 A 
ATOM     27  C   UNL     1      -2.993 -13.040  12.018  0.00  0.00    +0.000 A 
ATOM     28  C   UNL     1      -1.966 -11.478  13.550  0.00  0.00    +0.000 A 
ATOM     29  C   UNL     1      -2.359 -12.780  13.232  0.00  0.00    +0.000 A 
ENDBRANCH  19  23
ENDBRANCH   6  19
ENDBRANCH  16   6
ENDBRANCH  15  16
ENDBRANCH  10  11
BRANCH  10   7
ATOM      2  O   UNL     1     -10.827  -9.197  15.956  0.00  0.00    -0.376 OA
ATOM      7  C   UNL     1      -8.870  -9.718  15.282  0.00  0.00    +0.072 C 
ATOM      8  C   UNL     1      -9.846 -10.181  16.357  0.00  0.00    +0.184 C 
ATOM      9  C   UNL     1      -9.988  -8.774  14.857  0.00  0.00    +0.184 C 
BRANCH   7   4
ATOM      4  N   UNL     1      -7.812  -8.939  15.912  0.00  0.00    -0.302 NA
ATOM     30  H   UNL     1      -6.941  -8.873  15.389  0.00  0.00    +0.123 HD
BRANCH   4  12
ATOM     12  C   UNL     1      -7.560  -9.447  17.259  0.00  0.00    +0.118 C 
BRANCH  12  14
ATOM      1 CL   UNL     1      -7.084 -11.374  19.626  0.00  0.00    -0.083 Cl
ATOM     14  C   UNL     1      -6.221 -10.127  17.361  0.00  0.00    -0.015 A 
ATOM     17  C   UNL     1      -5.926 -11.010  18.399  0.00  0.00    +0.045 A 
ATOM     18  C   UNL     1      -5.263  -9.854  16.384  0.00  0.00    +0.006 A 
ATOM     20  C   UNL     1      -4.672 -11.621  18.460  0.00  0.00    +0.020 A 
ATOM     21  C   UNL     1      -4.011 -10.464  16.444  0.00  0.00    +0.000 A 
ATOM     24  C   UNL     1      -3.715 -11.348  17.482  0.00  0.00    +0.001 A 
ENDBRANCH  12  14
ENDBRANCH   4  12
ENDBRANCH   7   4
ENDBRANCH  10   7
TORSDOF 9
ENDMDL
MODEL 4
REMARK VINA RESULT:      -5.7     24.418     27.769
REMARK  Name = 56775618
REMARK  10 active torsions:
REMARK  status: ('A' for Active; 'I' for Inactive)
REMARK    1  A    between atoms: N_4  and  C_7
REMARK    2  A    between atoms: N_4  and  C_12
REMARK    3  A    between atoms: N_6  and  C_16
REMARK    4  A    between atoms: N_6  and  C_19
REMARK    5  A    between atoms: N_6  and  C_22
REMARK    6  A    between atoms: C_7  and  C_10
REMARK    7  A    between atoms: C_10  and  C_11
REMARK    8  A    between atoms: C_12  and  C_14
REMARK    9  A    between atoms: C_15  and  C_16
REMARK   10  A    between atoms: C_19  and  C_23
REMARK                            x       y       z     vdW  Elec       q    Type
REMARK                         _______ _______ _______ _____ _____    ______ ____
ROOT
ATOM     10  C   UNL     1      -2.715 -10.796  16.464  0.00  0.00    +0.085 C 
ENDROOT
BRANCH  10  11
ATOM      3  O   UNL     1      -6.075 -10.109  17.458  0.00  0.00    -0.358 OA
ATOM      5  N   UNL     1      -4.980  -9.929  16.621  0.00  0.00    -0.083 NA
ATOM     11  C   UNL     1      -4.033 -10.731  17.116  0.00  0.00    +0.086 A 
ATOM     13  C   UNL     1      -4.468 -11.434  18.252  0.00  0.00    +0.072 A 
ATOM     15  C   UNL     1      -5.759 -11.007  18.424  0.00  0.00    +0.151 A 
BRANCH  15  16
ATOM     16  C   UNL     1      -6.836 -11.325  19.427  0.00  0.00    +0.161 C 
BRANCH  16   6
ATOM      6  N   UNL     1      -8.106 -11.647  18.778  0.00  0.00    -0.294 NA
ATOM     22  C   UNL     1      -8.263 -13.096  18.654  0.00  0.00    +0.105 C 
BRANCH   6  19
ATOM     19  C   UNL     1      -9.224 -11.074  19.527  0.00  0.00    +0.119 C 
BRANCH  19  23
ATOM     23  C   UNL     1     -10.056 -10.153  18.676  0.00  0.00    -0.033 A 
ATOM     25  C   UNL     1      -9.443  -9.339  17.723  0.00  0.00    +0.005 A 
ATOM     26  C   UNL     1     -11.441 -10.114  18.840  0.00  0.00    +0.005 A 
ATOM     27  C   UNL     1     -10.215  -8.486  16.934  0.00  0.00    +0.000 A 
ATOM     28  C   UNL     1     -12.213  -9.261  18.051  0.00  0.00    +0.000 A 
ATOM     29  C   UNL     1     -11.599  -8.446  17.098  0.00  0.00    +0.000 A 
ENDBRANCH  19  23
ENDBRANCH   6  19
ENDBRANCH  16   6
ENDBRANCH  15  16
ENDBRANCH  10  11
BRANCH  10   7
ATOM      2  O   UNL     1      -2.569 -13.279  14.174  0.00  0.00    -0.376 OA
ATOM      7  C   UNL     1      -2.830 -11.343  15.034  0.00  0.00    +0.072 C 
ATOM      8  C   UNL     1      -3.681 -12.583  14.783  0.00  0.00    +0.184 C 
ATOM      9  C   UNL     1      -1.685 -12.174  14.468  0.00  0.00    +0.184 C 
BRANCH   7   4
ATOM      4  N   UNL     1      -3.193 -10.320  14.063  0.00  0.00    -0.302 NA
ATOM     30  H   UNL     1      -3.437  -9.411  14.449  0.00  0.00    +0.123 HD
BRANCH   4  12
ATOM     12  C   UNL     1      -4.267 -10.814  13.203  0.00  0.00    +0.118 C 
BRANCH  12  14
ATOM      1 CL   UNL     1      -6.896  -9.291  12.646  0.00  0.00    -0.083 Cl
ATOM     14  C   UNL     1      -4.371 -10.024  11.926  0.00  0.00    -0.015 A 
ATOM     17  C   UNL     1      -5.524  -9.310  11.600  0.00  0.00    +0.045 A 
ATOM     18  C   UNL     1      -3.278 -10.018  11.060  0.00  0.00    +0.006 A 
ATOM     20  C   UNL     1      -5.583  -8.589  10.405  0.00  0.00    +0.020 A 
ATOM     21  C   UNL     1      -3.337  -9.298   9.867  0.00  0.00    +0.000 A 
ATOM     24  C   UNL     1      -4.489  -8.583   9.540  0.00  0.00    +0.001 A 
ENDBRANCH  12  14
ENDBRANCH   4  12
ENDBRANCH   7   4
ENDBRANCH  10   7
TORSDOF 9
ENDMDL
MODEL 5
REMARK VINA RESULT:      -5.6     24.452     26.869
REMARK  Name = 56775618
REMARK  10 active torsions:
REMARK  status: ('A' for Active; 'I' for Inactive)
REMARK    1  A    between atoms: N_4  and  C_7
REMARK    2  A    between atoms: N_4  and  C_12
REMARK    3  A    between atoms: N_6  and  C_16
REMARK    4  A    between atoms: N_6  and  C_19
REMARK    5  A    between atoms: N_6  and  C_22
REMARK    6  A    between atoms: C_7  and  C_10
REMARK    7  A    between atoms: C_10  and  C_11
REMARK    8  A    between atoms: C_12  and  C_14
REMARK    9  A    between atoms: C_15  and  C_16
REMARK   10  A    between atoms: C_19  and  C_23
REMARK                            x       y       z     vdW  Elec       q    Type
REMARK                         _______ _______ _______ _____ _____    ______ ____
ROOT
ATOM     10  C   UNL     1      -5.030 -10.018  16.854  0.00  0.00    +0.085 C 
ENDROOT
BRANCH  10  11
ATOM      3  O   UNL     1      -8.296  -9.434  15.533  0.00  0.00    -0.358 OA
ATOM      5  N   UNL     1      -7.366  -9.411  16.566  0.00  0.00    -0.083 NA
ATOM     11  C   UNL     1      -6.244  -9.899  16.029  0.00  0.00    +0.086 A 
ATOM     13  C   UNL     1      -6.404 -10.243  14.676  0.00  0.00    +0.072 A 
ATOM     15  C   UNL     1      -7.712  -9.931  14.414  0.00  0.00    +0.151 A 
BRANCH  15  16
ATOM     16  C   UNL     1      -8.580 -10.028  13.188  0.00  0.00    +0.161 C 
BRANCH  16   6
ATOM      6  N   UNL     1      -7.908 -10.737  12.100  0.00  0.00    -0.294 NA
ATOM     22  C   UNL     1      -8.515 -12.052  11.895  0.00  0.00    +0.105 C 
BRANCH   6  19
ATOM     19  C   UNL     1      -7.963  -9.952  10.867  0.00  0.00    +0.119 C 
BRANCH  19  23
ATOM     23  C   UNL     1      -6.587  -9.631  10.346  0.00  0.00    -0.033 A 
ATOM     25  C   UNL     1      -6.135 -10.216   9.163  0.00  0.00    +0.005 A 
ATOM     26  C   UNL     1      -5.765  -8.747  11.046  0.00  0.00    +0.005 A 
ATOM     27  C   UNL     1      -4.860  -9.918   8.681  0.00  0.00    +0.000 A 
ATOM     28  C   UNL     1      -4.491  -8.449  10.564  0.00  0.00    +0.000 A 
ATOM     29  C   UNL     1      -4.038  -9.036   9.381  0.00  0.00    +0.000 A 
ENDBRANCH  19  23
ENDBRANCH   6  19
ENDBRANCH  16   6
ENDBRANCH  15  16
ENDBRANCH  10  11
BRANCH  10   7
ATOM      2  O   UNL     1      -5.476 -12.631  18.953  0.00  0.00    -0.376 OA
ATOM      7  C   UNL     1      -4.800 -11.471  17.293  0.00  0.00    +0.072 C 
ATOM      8  C   UNL     1      -6.005 -12.338  17.639  0.00  0.00    +0.184 C 
ATOM      9  C   UNL     1      -4.354 -11.747  18.724  0.00  0.00    +0.184 C 
BRANCH   7   4
ATOM      4  N   UNL     1      -3.936 -12.210  16.382  0.00  0.00    -0.302 NA
ATOM     30  H   UNL     1      -3.523 -13.060  16.758  0.00  0.00    +0.123 HD
BRANCH   4  12
ATOM     12  C   UNL     1      -2.897 -11.325  15.859  0.00  0.00    +0.118 C 
BRANCH  12  14
ATOM      1 CL   UNL     1      -0.985  -9.363  14.434  0.00  0.00    -0.083 Cl
ATOM     14  C   UNL     1      -2.821 -11.376  14.357  0.00  0.00    -0.015 A 
ATOM     17  C   UNL     1      -1.983 -10.523  13.638  0.00  0.00    +0.045 A 
ATOM     18  C   UNL     1      -3.615 -12.305  13.685  0.00  0.00    +0.006 A 
ATOM     20  C   UNL     1      -1.940 -10.601  12.245  0.00  0.00    +0.020 A 
ATOM     21  C   UNL     1      -3.571 -12.382  12.293  0.00  0.00    +0.000 A 
ATOM     24  C   UNL     1      -2.733 -11.530  11.573  0.00  0.00    +0.001 A 
ENDBRANCH  12  14
ENDBRANCH   4  12
ENDBRANCH   7   4
ENDBRANCH  10   7
TORSDOF 9
ENDMDL
MODEL 6
REMARK VINA RESULT:      -5.5      3.834      7.683
REMARK  Name = 56775618
REMARK  10 active torsions:
REMARK  status: ('A' for Active; 'I' for Inactive)
REMARK    1  A    between atoms: N_4  and  C_7
REMARK    2  A    between atoms: N_4  and  C_12
REMARK    3  A    between atoms: N_6  and  C_16
REMARK    4  A    between atoms: N_6  and  C_19
REMARK    5  A    between atoms: N_6  and  C_22
REMARK    6  A    between atoms: C_7  and  C_10
REMARK    7  A    between atoms: C_10  and  C_11
REMARK    8  A    between atoms: C_12  and  C_14
REMARK    9  A    between atoms: C_15  and  C_16
REMARK   10  A    between atoms: C_19  and  C_23
REMARK                            x       y       z     vdW  Elec       q    Type
REMARK                         _______ _______ _______ _____ _____    ______ ____
ROOT
ATOM     10  C   UNL     1       9.744   6.644   2.487  0.00  0.00    +0.085 C 
ENDROOT
BRANCH  10  11
ATOM      3  O   UNL     1      10.294   6.771  -1.039  0.00  0.00    -0.358 OA
ATOM      5  N   UNL     1      10.068   7.376   0.192  0.00  0.00    -0.083 NA
ATOM     11  C   UNL     1       9.983   6.365   1.062  0.00  0.00    +0.086 A 
ATOM     13  C   UNL     1      10.145   5.113   0.444  0.00  0.00    +0.072 A 
ATOM     15  C   UNL     1      10.338   5.425  -0.877  0.00  0.00    +0.151 A 
BRANCH  15  16
ATOM     16  C   UNL     1      10.576   4.605  -2.116  0.00  0.00    +0.161 C 
BRANCH  16   6
ATOM      6  N   UNL     1      11.381   3.416  -1.836  0.00  0.00    -0.294 NA
ATOM     22  C   UNL     1      10.924   2.287  -2.645  0.00  0.00    +0.105 C 
BRANCH   6  19
ATOM     19  C   UNL     1      12.797   3.686  -2.088  0.00  0.00    +0.119 C 
BRANCH  19  23
ATOM     23  C   UNL     1      13.604   3.679  -0.816  0.00  0.00    -0.033 A 
ATOM     25  C   UNL     1      13.019   3.261   0.379  0.00  0.00    +0.005 A 
ATOM     26  C   UNL     1      14.936   4.090  -0.835  0.00  0.00    +0.005 A 
ATOM     27  C   UNL     1      13.767   3.255   1.556  0.00  0.00    +0.000 A 
ATOM     28  C   UNL     1      15.685   4.084   0.342  0.00  0.00    +0.000 A 
ATOM     29  C   UNL     1      15.099   3.667   1.539  0.00  0.00    +0.000 A 
ENDBRANCH  19  23
ENDBRANCH   6  19
ENDBRANCH  16   6
ENDBRANCH  15  16
ENDBRANCH  10  11
BRANCH  10   7
ATOM      2  O   UNL     1      12.938   7.750   2.566  0.00  0.00    -0.376 OA
ATOM      7  C   UNL     1      11.055   6.981   3.212  0.00  0.00    +0.072 C 
ATOM      8  C   UNL     1      11.692   8.348   2.991  0.00  0.00    +0.184 C 
ATOM      9  C   UNL     1      12.364   6.427   2.664  0.00  0.00    +0.184 C 
BRANCH   7   4
ATOM      4  N   UNL     1      10.995   6.717   4.644  0.00  0.00    -0.302 NA
ATOM     30  H   UNL     1      11.635   6.004   4.988  0.00  0.00    +0.123 HD
BRANCH   4  12
ATOM     12  C   UNL     1       9.622   6.401   5.031  0.00  0.00    +0.118 C 
BRANCH  12  14
ATOM      1 CL   UNL     1       8.686   8.453   7.141  0.00  0.00    -0.083 Cl
ATOM     14  C   UNL     1       9.534   5.952   6.465  0.00  0.00    -0.015 A 
ATOM     17  C   UNL     1       9.121   6.817   7.478  0.00  0.00    +0.045 A 
ATOM     18  C   UNL     1       9.878   4.635   6.769  0.00  0.00    +0.006 A 
ATOM     20  C   UNL     1       9.053   6.364   8.797  0.00  0.00    +0.020 A 
ATOM     21  C   UNL     1       9.809   4.182   8.086  0.00  0.00    +0.000 A 
ATOM     24  C   UNL     1       9.396   5.047   9.101  0.00  0.00    +0.001 A 
ENDBRANCH  12  14
ENDBRANCH   4  12
ENDBRANCH   7   4
ENDBRANCH  10   7
TORSDOF 9
ENDMDL
MODEL 7
REMARK VINA RESULT:      -5.5     26.931     29.371
REMARK  Name = 56775618
REMARK  10 active torsions:
REMARK  status: ('A' for Active; 'I' for Inactive)
REMARK    1  A    between atoms: N_4  and  C_7
REMARK    2  A    between atoms: N_4  and  C_12
REMARK    3  A    between atoms: N_6  and  C_16
REMARK    4  A    between atoms: N_6  and  C_19
REMARK    5  A    between atoms: N_6  and  C_22
REMARK    6  A    between atoms: C_7  and  C_10
REMARK    7  A    between atoms: C_10  and  C_11
REMARK    8  A    between atoms: C_12  and  C_14
REMARK    9  A    between atoms: C_15  and  C_16
REMARK   10  A    between atoms: C_19  and  C_23
REMARK                            x       y       z     vdW  Elec       q    Type
REMARK                         _______ _______ _______ _____ _____    ______ ____
ROOT
ATOM     10  C   UNL     1      -9.806  -9.184  15.471  0.00  0.00    +0.085 C 
ENDROOT
BRANCH  10  11
ATOM      3  O   UNL     1     -10.934  -5.798  15.579  0.00  0.00    -0.358 OA
ATOM      5  N   UNL     1     -10.088  -6.824  15.981  0.00  0.00    -0.083 NA
ATOM     11  C   UNL     1     -10.492  -7.894  15.291  0.00  0.00    +0.086 A 
ATOM     13  C   UNL     1     -11.579  -7.607  14.447  0.00  0.00    +0.072 A 
ATOM     15  C   UNL     1     -11.816  -6.275  14.666  0.00  0.00    +0.151 A 
BRANCH  15  16
ATOM     16  C   UNL     1     -12.816  -5.292  14.118  0.00  0.00    +0.161 C 
BRANCH  16   6
ATOM      6  N   UNL     1     -13.728  -5.919  13.163  0.00  0.00    -0.294 NA
ATOM     22  C   UNL     1     -14.956  -6.347  13.833  0.00  0.00    +0.105 C 
BRANCH   6  19
ATOM     19  C   UNL     1     -14.038  -4.996  12.070  0.00  0.00    +0.119 C 
BRANCH  19  23
ATOM     23  C   UNL     1     -12.901  -4.886  11.089  0.00  0.00    -0.033 A 
ATOM     25  C   UNL     1     -12.407  -3.632  10.732  0.00  0.00    +0.005 A 
ATOM     26  C   UNL     1     -12.342  -6.040  10.538  0.00  0.00    +0.005 A 
ATOM     27  C   UNL     1     -11.353  -3.531   9.824  0.00  0.00    +0.000 A 
ATOM     28  C   UNL     1     -11.289  -5.939   9.630  0.00  0.00    +0.000 A 
ATOM     29  C   UNL     1     -10.794  -4.683   9.272  0.00  0.00    +0.000 A 
ENDBRANCH  19  23
ENDBRANCH   6  19
ENDBRANCH  16   6
ENDBRANCH  15  16
ENDBRANCH  10  11
BRANCH  10   7
ATOM      2  O   UNL     1     -11.211 -10.893  18.027  0.00  0.00    -0.376 OA
ATOM      7  C   UNL     1      -9.868  -9.646  16.934  0.00  0.00    +0.072 C 
ATOM      8  C   UNL     1     -10.026 -11.132  17.234  0.00  0.00    +0.184 C 
ATOM      9  C   UNL     1     -11.174  -9.484  17.703  0.00  0.00    +0.184 C 
BRANCH   7   4
ATOM      4  N   UNL     1      -8.778  -9.116  17.742  0.00  0.00    -0.302 NA
ATOM     30  H   UNL     1      -8.893  -8.159  18.066  0.00  0.00    +0.123 HD
BRANCH   4  12
ATOM     12  C   UNL     1      -7.513  -9.264  17.025  0.00  0.00    +0.118 C 
BRANCH  12  14
ATOM      1 CL   UNL     1      -4.980 -10.231  15.546  0.00  0.00    -0.083 Cl
ATOM     14  C   UNL     1      -6.537 -10.124  17.781  0.00  0.00    -0.015 A 
ATOM     17  C   UNL     1      -5.369 -10.602  17.186  0.00  0.00    +0.045 A 
ATOM     18  C   UNL     1      -6.823 -10.440  19.109  0.00  0.00    +0.006 A 
ATOM     20  C   UNL     1      -4.488 -11.398  17.920  0.00  0.00    +0.020 A 
ATOM     21  C   UNL     1      -5.942 -11.235  19.842  0.00  0.00    +0.000 A 
ATOM     24  C   UNL     1      -4.774 -11.714  19.248  0.00  0.00    +0.001 A 
ENDBRANCH  12  14
ENDBRANCH   4  12
ENDBRANCH   7   4
ENDBRANCH  10   7
TORSDOF 9
ENDMDL
MODEL 8
REMARK VINA RESULT:      -5.4      1.522      2.090
REMARK  Name = 56775618
REMARK  10 active torsions:
REMARK  status: ('A' for Active; 'I' for Inactive)
REMARK    1  A    between atoms: N_4  and  C_7
REMARK    2  A    between atoms: N_4  and  C_12
REMARK    3  A    between atoms: N_6  and  C_16
REMARK    4  A    between atoms: N_6  and  C_19
REMARK    5  A    between atoms: N_6  and  C_22
REMARK    6  A    between atoms: C_7  and  C_10
REMARK    7  A    between atoms: C_10  and  C_11
REMARK    8  A    between atoms: C_12  and  C_14
REMARK    9  A    between atoms: C_15  and  C_16
REMARK   10  A    between atoms: C_19  and  C_23
REMARK                            x       y       z     vdW  Elec       q    Type
REMARK                         _______ _______ _______ _____ _____    ______ ____
ROOT
ATOM     10  C   UNL     1      14.432   8.926   4.956  0.00  0.00    +0.085 C 
ENDROOT
BRANCH  10  11
ATOM      3  O   UNL     1      13.234   6.541   7.329  0.00  0.00    -0.358 OA
ATOM      5  N   UNL     1      14.251   7.142   6.597  0.00  0.00    -0.083 NA
ATOM     11  C   UNL     1      13.643   8.079   5.865  0.00  0.00    +0.086 A 
ATOM     13  C   UNL     1      12.256   8.116   6.090  0.00  0.00    +0.072 A 
ATOM     15  C   UNL     1      12.051   7.129   7.018  0.00  0.00    +0.151 A 
BRANCH  15  16
ATOM     16  C   UNL     1      10.831   6.599   7.723  0.00  0.00    +0.161 C 
BRANCH  16   6
ATOM      6  N   UNL     1      10.274   5.431   7.043  0.00  0.00    -0.294 NA
ATOM     22  C   UNL     1       9.894   4.406   8.015  0.00  0.00    +0.105 C 
BRANCH   6  19
ATOM     19  C   UNL     1       9.120   5.814   6.228  0.00  0.00    +0.119 C 
BRANCH  19  23
ATOM     23  C   UNL     1       9.472   5.908   4.767  0.00  0.00    -0.033 A 
ATOM     25  C   UNL     1      10.193   4.882   4.156  0.00  0.00    +0.005 A 
ATOM     26  C   UNL     1       9.078   7.021   4.026  0.00  0.00    +0.005 A 
ATOM     27  C   UNL     1      10.518   4.970   2.802  0.00  0.00    +0.000 A 
ATOM     28  C   UNL     1       9.403   7.109   2.672  0.00  0.00    +0.000 A 
ATOM     29  C   UNL     1      10.124   6.082   2.060  0.00  0.00    +0.000 A 
ENDBRANCH  19  23
ENDBRANCH   6  19
ENDBRANCH  16   6
ENDBRANCH  15  16
ENDBRANCH  10  11
BRANCH  10   7
ATOM      2  O   UNL     1      17.123   8.327   2.998  0.00  0.00    -0.376 OA
ATOM      7  C   UNL     1      15.237   8.073   3.964  0.00  0.00    +0.072 C 
ATOM      8  C   UNL     1      16.700   7.772   4.265  0.00  0.00    +0.184 C 
ATOM      9  C   UNL     1      15.767   8.725   2.693  0.00  0.00    +0.184 C 
BRANCH   7   4
ATOM      4  N   UNL     1      14.565   6.830   3.610  0.00  0.00    -0.302 NA
ATOM     30  H   UNL     1      15.171   6.026   3.468  0.00  0.00    +0.123 HD
BRANCH   4  12
ATOM     12  C   UNL     1      13.718   7.043   2.437  0.00  0.00    +0.118 C 
BRANCH  12  14
ATOM      1 CL   UNL     1      12.626   7.441  -0.424  0.00  0.00    -0.083 Cl
ATOM     14  C   UNL     1      13.765   5.873   1.492  0.00  0.00    -0.015 A 
ATOM     17  C   UNL     1      13.291   5.970   0.184  0.00  0.00    +0.045 A 
ATOM     18  C   UNL     1      14.298   4.669   1.954  0.00  0.00    +0.006 A 
ATOM     20  C   UNL     1      13.351   4.862  -0.663  0.00  0.00    +0.020 A 
ATOM     21  C   UNL     1      14.358   3.563   1.108  0.00  0.00    +0.000 A 
ATOM     24  C   UNL     1      13.885   3.658  -0.201  0.00  0.00    +0.001 A 
ENDBRANCH  12  14
ENDBRANCH   4  12
ENDBRANCH   7   4
ENDBRANCH  10   7
TORSDOF 9
ENDMDL
MODEL 9
REMARK VINA RESULT:      -5.4      2.143      3.231
REMARK  Name = 56775618
REMARK  10 active torsions:
REMARK  status: ('A' for Active; 'I' for Inactive)
REMARK    1  A    between atoms: N_4  and  C_7
REMARK    2  A    between atoms: N_4  and  C_12
REMARK    3  A    between atoms: N_6  and  C_16
REMARK    4  A    between atoms: N_6  and  C_19
REMARK    5  A    between atoms: N_6  and  C_22
REMARK    6  A    between atoms: C_7  and  C_10
REMARK    7  A    between atoms: C_10  and  C_11
REMARK    8  A    between atoms: C_12  and  C_14
REMARK    9  A    between atoms: C_15  and  C_16
REMARK   10  A    between atoms: C_19  and  C_23
REMARK                            x       y       z     vdW  Elec       q    Type
REMARK                         _______ _______ _______ _____ _____    ______ ____
ROOT
ATOM     10  C   UNL     1      15.108   7.454   5.939  0.00  0.00    +0.085 C 
ENDROOT
BRANCH  10  11
ATOM      3  O   UNL     1      12.900  10.116   6.829  0.00  0.00    -0.358 OA
ATOM      5  N   UNL     1      14.169   9.566   6.693  0.00  0.00    -0.083 NA
ATOM     11  C   UNL     1      13.962   8.337   6.211  0.00  0.00    +0.086 A 
ATOM     13  C   UNL     1      12.597   8.059   6.025  0.00  0.00    +0.072 A 
ATOM     15  C   UNL     1      11.973   9.211   6.428  0.00  0.00    +0.151 A 
BRANCH  15  16
ATOM     16  C   UNL     1      10.533   9.641   6.509  0.00  0.00    +0.161 C 
BRANCH  16   6
ATOM      6  N   UNL     1       9.899   9.191   7.747  0.00  0.00    -0.294 NA
ATOM     22  C   UNL     1       9.433  10.336   8.529  0.00  0.00    +0.105 C 
BRANCH   6  19
ATOM     19  C   UNL     1       8.786   8.288   7.453  0.00  0.00    +0.119 C 
BRANCH  19  23
ATOM     23  C   UNL     1       9.140   6.851   7.735  0.00  0.00    -0.033 A 
ATOM     25  C   UNL     1       9.565   6.021   6.698  0.00  0.00    +0.005 A 
ATOM     26  C   UNL     1       9.042   6.352   9.034  0.00  0.00    +0.005 A 
ATOM     27  C   UNL     1       9.893   4.691   6.961  0.00  0.00    +0.000 A 
ATOM     28  C   UNL     1       9.370   5.022   9.296  0.00  0.00    +0.000 A 
ATOM     29  C   UNL     1       9.795   4.191   8.258  0.00  0.00    +0.000 A 
ENDBRANCH  19  23
ENDBRANCH   6  19
ENDBRANCH  16   6
ENDBRANCH  15  16
ENDBRANCH  10  11
BRANCH  10   7
ATOM      2  O   UNL     1      16.577   9.128   3.396  0.00  0.00    -0.376 OA
ATOM      7  C   UNL     1      15.577   7.588   4.483  0.00  0.00    +0.072 C 
ATOM      8  C   UNL     1      17.014   8.013   4.206  0.00  0.00    +0.184 C 
ATOM      9  C   UNL     1      15.194   8.836   3.697  0.00  0.00    +0.184 C 
BRANCH   7   4
ATOM      4  N   UNL     1      15.271   6.413   3.678  0.00  0.00    -0.302 NA
ATOM     30  H   UNL     1      16.033   6.061   3.104  0.00  0.00    +0.123 HD
BRANCH   4  12
ATOM     12  C   UNL     1      14.090   6.671   2.857  0.00  0.00    +0.118 C 
BRANCH  12  14
ATOM      1 CL   UNL     1      11.370   5.264   3.254  0.00  0.00    -0.083 Cl
ATOM     14  C   UNL     1      13.761   5.503   1.966  0.00  0.00    -0.015 A 
ATOM     17  C   UNL     1      12.554   4.813   2.082  0.00  0.00    +0.045 A 
ATOM     18  C   UNL     1      14.697   5.115   1.009  0.00  0.00    +0.006 A 
ATOM     20  C   UNL     1      12.284   3.734   1.239  0.00  0.00    +0.020 A 
ATOM     21  C   UNL     1      14.428   4.037   0.166  0.00  0.00    +0.000 A 
ATOM     24  C   UNL     1      13.221   3.346   0.280  0.00  0.00    +0.001 A 
ENDBRANCH  12  14
ENDBRANCH   4  12
ENDBRANCH   7   4
ENDBRANCH  10   7
TORSDOF 9
ENDMDL
MODEL 10
REMARK VINA RESULT:      -5.4     10.330     12.829
REMARK  Name = 56775618
REMARK  10 active torsions:
REMARK  status: ('A' for Active; 'I' for Inactive)
REMARK    1  A    between atoms: N_4  and  C_7
REMARK    2  A    between atoms: N_4  and  C_12
REMARK    3  A    between atoms: N_6  and  C_16
REMARK    4  A    between atoms: N_6  and  C_19
REMARK    5  A    between atoms: N_6  and  C_22
REMARK    6  A    between atoms: C_7  and  C_10
REMARK    7  A    between atoms: C_10  and  C_11
REMARK    8  A    between atoms: C_12  and  C_14
REMARK    9  A    between atoms: C_15  and  C_16
REMARK   10  A    between atoms: C_19  and  C_23
REMARK                            x       y       z     vdW  Elec       q    Type
REMARK                         _______ _______ _______ _____ _____    ______ ____
ROOT
ATOM     10  C   UNL     1      14.203  12.711  14.294  0.00  0.00    +0.085 C 
ENDROOT
BRANCH  10  11
ATOM      3  O   UNL     1      12.745   9.558  15.122  0.00  0.00    -0.358 OA
ATOM      5  N   UNL     1      12.743  10.773  14.448  0.00  0.00    -0.083 NA
ATOM     11  C   UNL     1      13.873  11.379  14.825  0.00  0.00    +0.086 A 
ATOM     13  C   UNL     1      14.619  10.602  15.728  0.00  0.00    +0.072 A 
ATOM     15  C   UNL     1      13.866   9.467  15.880  0.00  0.00    +0.151 A 
BRANCH  15  16
ATOM     16  C   UNL     1      14.034   8.206  16.685  0.00  0.00    +0.161 C 
BRANCH  16   6
ATOM      6  N   UNL     1      13.957   8.464  18.122  0.00  0.00    -0.294 NA
ATOM     22  C   UNL     1      12.603   8.869  18.497  0.00  0.00    +0.105 C 
BRANCH   6  19
ATOM     19  C   UNL     1      14.363   7.277  18.877  0.00  0.00    +0.119 C 
BRANCH  19  23
ATOM     23  C   UNL     1      15.625   7.517  19.662  0.00  0.00    -0.033 A 
ATOM     25  C   UNL     1      16.503   6.462  19.910  0.00  0.00    +0.005 A 
ATOM     26  C   UNL     1      15.916   8.795  20.140  0.00  0.00    +0.005 A 
ATOM     27  C   UNL     1      17.673   6.685  20.637  0.00  0.00    +0.000 A 
ATOM     28  C   UNL     1      17.086   9.018  20.868  0.00  0.00    +0.000 A 
ATOM     29  C   UNL     1      17.964   7.962  21.116  0.00  0.00    +0.000 A 
ENDBRANCH  19  23
ENDBRANCH   6  19
ENDBRANCH  16   6
ENDBRANCH  15  16
ENDBRANCH  10  11
BRANCH  10   7
ATOM      2  O   UNL     1      16.630  13.335  12.025  0.00  0.00    -0.376 OA
ATOM      7  C   UNL     1      14.819  12.611  12.892  0.00  0.00    +0.072 C 
ATOM      8  C   UNL     1      16.261  12.139  12.750  0.00  0.00    +0.184 C 
ATOM      9  C   UNL     1      15.305  13.883  12.207  0.00  0.00    +0.184 C 
BRANCH   7   4
ATOM      4  N   UNL     1      13.987  11.864  11.958  0.00  0.00    -0.302 NA
ATOM     30  H   UNL     1      14.476  11.191  11.372  0.00  0.00    +0.123 HD
BRANCH   4  12
ATOM     12  C   UNL     1      13.213  12.791  11.135  0.00  0.00    +0.118 C 
BRANCH  12  14
ATOM      1 CL   UNL     1      10.812  13.355  12.994  0.00  0.00    -0.083 Cl
ATOM     14  C   UNL     1      11.874  12.219  10.755  0.00  0.00    -0.015 A 
ATOM     17  C   UNL     1      10.740  12.427  11.541  0.00  0.00    +0.045 A 
ATOM     18  C   UNL     1      11.783  11.464   9.585  0.00  0.00    +0.006 A 
ATOM     20  C   UNL     1       9.515  11.879  11.156  0.00  0.00    +0.020 A 
ATOM     21  C   UNL     1      10.559  10.917   9.201  0.00  0.00    +0.000 A 
ATOM     24  C   UNL     1       9.425  11.125   9.986  0.00  0.00    +0.001 A 
ENDBRANCH  12  14
ENDBRANCH   4  12
ENDBRANCH   7   4
ENDBRANCH  10   7
TORSDOF 9
ENDMDL
