REMARK  Name = 75536841
REMARK  7 active torsions:
REMARK  status: ('A' for Active; 'I' for Inactive)
REMARK    1  A    between atoms: O_2  and  C_10
REMARK    2  A    between atoms: N_4  and  C_8
REMARK    3  A    between atoms: N_4  and  C_9
REMARK    4  A    between atoms: N_5  and  C_18
REMARK    5  A    between atoms: N_6  and  C_17
REMARK    6  A    between atoms: N_7  and  C_20
REMARK    7  A    between atoms: C_11  and  C_17
REMARK                            x       y       z     vdW  Elec       q    Type
REMARK                         _______ _______ _______ _____ _____    ______ ____
ROOT
ATOM      1  O   UNL     1      -0.332  -0.636  -1.274  0.00  0.00    -0.371 OA
ATOM      8  C   UNL     1      -2.308  -0.568   0.042  0.00  0.00    +0.111 C 
ATOM     10  C   UNL     1      -1.277  -1.434   0.742  0.00  0.00    +0.164 C 
ATOM     11  C   UNL     1       0.009  -0.946   0.088  0.00  0.00    +0.165 C 
ATOM     14  C   UNL     1      -1.763  -0.539  -1.377  0.00  0.00    +0.181 C 
ENDROOT
BRANCH  10   2
ATOM      2  O   UNL     1      -1.262  -1.240   2.143  0.00  0.00    -0.388 OA
ATOM     27  H   UNL     1      -1.113  -0.295   2.320  0.00  0.00    +0.210 HD
ENDBRANCH  10   2
BRANCH   8   4
ATOM      4  N   UNL     1      -3.661  -1.095   0.118  0.00  0.00    -0.306 NA
ATOM     26  H   UNL     1      -3.855  -1.431   1.061  0.00  0.00    +0.123 HD
BRANCH   4   9
ATOM      5  N   UNL     1      -7.233   1.208   0.165  0.00  0.00    -0.305 NA
ATOM      9  C   UNL     1      -4.637  -0.075  -0.258  0.00  0.00    +0.056 C 
ATOM     12  C   UNL     1      -4.900   0.867   0.919  0.00  0.00    +0.034 C 
ATOM     13  C   UNL     1      -5.950  -0.716  -0.718  0.00  0.00    +0.034 C 
ATOM     15  C   UNL     1      -5.994   1.882   0.576  0.00  0.00    +0.085 C 
ATOM     16  C   UNL     1      -7.009   0.351  -1.007  0.00  0.00    +0.085 C 
ATOM     18  C   UNL     1      -8.282   2.189  -0.110  0.00  0.00    +0.104 C 
ENDBRANCH   4   9
ENDBRANCH   8   4
BRANCH  11  17
ATOM     17  C   UNL     1       1.125  -1.975   0.116  0.00  0.00    +0.140 C 
BRANCH  17   6
ATOM      3  O   UNL     1       3.260  -0.543   1.380  0.00  0.00    -0.253 OA
ATOM      6  N   UNL     1       2.312  -1.474  -0.514  0.00  0.00    -0.297 N 
ATOM      7  N   UNL     1       4.351  -0.415  -0.695  0.00  0.00    -0.269 N 
ATOM     19  C   UNL     1       3.319  -0.779   0.175  0.00  0.00    +0.304 C 
ATOM     28  H   UNL     1       2.423  -1.621  -1.512  0.00  0.00    +0.150 HD
ATOM     29  H   UNL     1       4.243  -0.689  -1.669  0.00  0.00    +0.156 HD
BRANCH   7  20
ATOM     20  C   UNL     1       5.536   0.292  -0.388  0.00  0.00    +0.035 A 
ATOM     21  C   UNL     1       6.462   0.570  -1.393  0.00  0.00    +0.023 A 
ATOM     22  C   UNL     1       5.779   0.712   0.920  0.00  0.00    +0.023 A 
ATOM     23  C   UNL     1       7.632   1.268  -1.091  0.00  0.00    +0.002 A 
ATOM     24  C   UNL     1       6.949   1.409   1.222  0.00  0.00    +0.002 A 
ATOM     25  C   UNL     1       7.875   1.687   0.217  0.00  0.00    +0.000 A 
ENDBRANCH   7  20
ENDBRANCH  17   6
ENDBRANCH  11  17
TORSDOF 6
