REMARK  Name = 25338259
REMARK  4 active torsions:
REMARK  status: ('A' for Active; 'I' for Inactive)
REMARK    1  A    between atoms: O_4  and  C_10
REMARK    2  A    between atoms: N_6  and  C_9
REMARK    3  A    between atoms: N_7  and  C_11
REMARK    4  A    between atoms: N_8  and  C_20
REMARK                            x       y       z     vdW  Elec       q    Type
REMARK                         _______ _______ _______ _____ _____    ______ ____
ROOT
ATOM      2  O   UNL     1       2.954  -0.737   1.619  0.00  0.00    -0.342 OA
ATOM      3  O   UNL     1       4.479  -1.657   0.134  0.00  0.00    -0.347 OA
ATOM      9  C   UNL     1       3.190   0.269  -0.560  0.00  0.00    +0.143 C 
ATOM     10  C   UNL     1       2.082  -0.649  -1.125  0.00  0.00    +0.159 C 
ATOM     11  C   UNL     1       1.409  -1.533  -0.052  0.00  0.00    +0.136 C 
ATOM     12  C   UNL     1       3.919  -0.421   0.608  0.00  0.00    +0.270 C 
ATOM     13  C   UNL     1       2.362  -1.929   1.094  0.00  0.00    +0.170 C 
ATOM     14  C   UNL     1       3.602  -2.675   0.639  0.00  0.00    +0.196 C 
ENDROOT
BRANCH  11   7
ATOM      5  O   UNL     1      -1.264  -1.649  -1.075  0.00  0.00    -0.252 OA
ATOM      7  N   UNL     1       0.246  -0.862   0.488  0.00  0.00    -0.291 N 
ATOM      8  N   UNL     1      -1.948  -0.219   0.656  0.00  0.00    -0.269 N 
ATOM     19  C   UNL     1      -1.027  -0.974  -0.076  0.00  0.00    +0.304 C 
ATOM     26  H   UNL     1       0.377  -0.221   1.265  0.00  0.00    +0.151 HD
ATOM     28  H   UNL     1      -1.586   0.285   1.462  0.00  0.00    +0.156 HD
BRANCH   8  20
ATOM      1  F   UNL     1      -7.378   0.376  -0.289  0.00  0.00    -0.205 F 
ATOM     20  C   UNL     1      -3.333  -0.067   0.415  0.00  0.00    +0.035 A 
ATOM     21  C   UNL     1      -4.104   0.734   1.258  0.00  0.00    +0.026 A 
ATOM     22  C   UNL     1      -3.929  -0.719  -0.665  0.00  0.00    +0.026 A 
ATOM     23  C   UNL     1      -5.470   0.883   1.020  0.00  0.00    +0.040 A 
ATOM     24  C   UNL     1      -5.295  -0.569  -0.903  0.00  0.00    +0.040 A 
ATOM     25  C   UNL     1      -6.066   0.232  -0.060  0.00  0.00    +0.124 A 
ENDBRANCH   8  20
ENDBRANCH  11   7
BRANCH   9   6
ATOM      6  N   UNL     1       2.615   1.527  -0.107  0.00  0.00    -0.293 NA
ATOM     15  C   UNL     1       3.625   2.443   0.423  0.00  0.00    +0.085 C 
ATOM     16  C   UNL     1       1.963   2.264  -1.188  0.00  0.00    +0.085 C 
ATOM     17  C   UNL     1       2.891   3.776   0.458  0.00  0.00    +0.017 C 
ATOM     18  C   UNL     1       1.797   3.657  -0.599  0.00  0.00    +0.017 C 
ENDBRANCH   9   6
BRANCH  10   4
ATOM      4  O   UNL     1       2.681  -1.499  -2.112  0.00  0.00    -0.388 OA
ATOM     27  H   UNL     1       1.974  -2.041  -2.503  0.00  0.00    +0.210 HD
ENDBRANCH  10   4
TORSDOF 4
