MODEL 1
REMARK VINA RESULT:      -7.8      0.000      0.000
REMARK  Name = 38028999
REMARK  10 active torsions:
REMARK  status: ('A' for Active; 'I' for Inactive)
REMARK    1  A    between atoms: N_4  and  C_16
REMARK    2  A    between atoms: C_8  and  C_12
REMARK    3  A    between atoms: C_9  and  C_16
REMARK    4  A    between atoms: C_11  and  C_15
REMARK    5  A    between atoms: C_12  and  C_17
REMARK    6  A    between atoms: C_12  and  C_18
REMARK    7  A    between atoms: C_13  and  C_19
REMARK    8  A    between atoms: C_15  and  C_20
REMARK    9  A    between atoms: C_25  and  C_27
REMARK   10  A    between atoms: C_36  and  C_37
REMARK                            x       y       z     vdW  Elec       q    Type
REMARK                         _______ _______ _______ _____ _____    ______ ____
ROOT
ATOM      8  C   UNL     1      -7.417 -11.688  17.141  0.00  0.00    +0.000 C 
ATOM      9  C   UNL     1      -7.462 -12.020  18.653  0.00  0.00    +0.032 C 
ATOM     10  C   UNL     1      -6.220 -12.382  16.475  0.00  0.00    +0.012 C 
ATOM     11  C   UNL     1      -4.878 -11.964  17.106  0.00  0.00    +0.023 C 
ATOM     13  C   UNL     1      -4.930 -12.008  18.619  0.00  0.00    -0.073 C 
ATOM     14  C   UNL     1      -6.093 -12.047  19.293  0.00  0.00    -0.022 C 
ATOM     19  C   UNL     1      -3.613 -12.055  19.342  0.00  0.00    +0.039 C 
ENDROOT
BRANCH   8  12
ATOM     12  C   UNL     1      -8.713 -12.093  16.431  0.00  0.00    -0.013 C 
ATOM     17  C   UNL     1      -8.704 -13.587  16.119  0.00  0.00    +0.007 C 
ATOM     18  C   UNL     1      -8.899 -11.276  15.156  0.00  0.00    +0.007 C 
ENDBRANCH   8  12
BRANCH  11  15
ATOM     15  C   UNL     1      -4.443 -10.580  16.612  0.00  0.00    +0.103 C 
BRANCH  15  20
ATOM      1  O   UNL     1      -2.142 -10.871  16.103  0.00  0.00    -0.276 OA
ATOM      3  N   UNL     1      -3.591 -10.651  14.299  0.00  0.00    -0.298 N 
ATOM      5  N   UNL     1      -4.141 -10.746  11.459  0.00  0.00    -0.312 N 
ATOM      6  N   UNL     1      -5.015  -9.777   9.490  0.00  0.00    -0.240 NA
ATOM     20  C   UNL     1      -3.282 -10.716  15.659  0.00  0.00    +0.216 C 
ATOM     21  C   UNL     1      -4.946 -10.478  13.773  0.00  0.00    +0.126 C 
ATOM     22  C   UNL     1      -2.520 -10.769  13.312  0.00  0.00    +0.126 C 
ATOM     23  C   UNL     1      -4.962  -9.921  12.349  0.00  0.00    +0.125 C 
ATOM     24  C   UNL     1      -2.995 -11.457  12.034  0.00  0.00    +0.125 C 
ATOM     26  C   UNL     1      -4.416 -10.827  10.096  0.00  0.00    +0.121 A 
ATOM     28  C   UNL     1      -4.054 -11.995   9.444  0.00  0.00    +0.043 A 
ATOM     31  C   UNL     1      -4.323 -12.091   8.083  0.00  0.00    +0.005 A 
ATOM     32  C   UNL     1      -5.261  -9.907   8.168  0.00  0.00    +0.113 A 
ATOM     35  C   UNL     1      -4.938 -11.032   7.426  0.00  0.00    +0.020 A 
ENDBRANCH  15  20
ENDBRANCH  11  15
BRANCH   9  16
ATOM     16  C   UNL     1      -8.360 -11.034  19.410  0.00  0.00    +0.112 C 
BRANCH  16   4
ATOM      2  O   UNL     1     -11.111 -10.227  19.247  0.00  0.00    -0.270 OA
ATOM      4  N   UNL     1      -8.914 -10.064  18.518  0.00  0.00    -0.311 N 
ATOM     25  C   UNL     1     -10.268  -9.730  18.506  0.00  0.00    +0.244 C 
ATOM     38  H   UNL     1      -8.264  -9.544  17.939  0.00  0.00    +0.149 HD
BRANCH  25  27
ATOM     27  C   UNL     1     -10.690  -8.721  17.500  0.00  0.00    +0.037 A 
ATOM     29  C   UNL     1      -9.740  -7.893  16.902  0.00  0.00    +0.014 A 
ATOM     30  C   UNL     1     -12.036  -8.606  17.151  0.00  0.00    +0.014 A 
ATOM     33  C   UNL     1     -10.136  -6.948  15.956  0.00  0.00    +0.019 A 
ATOM     34  C   UNL     1     -12.431  -7.659  16.205  0.00  0.00    +0.019 A 
ATOM     36  C   UNL     1     -11.481  -6.830  15.607  0.00  0.00    +0.052 A 
BRANCH  36  37
ATOM      7  N   UNL     1     -12.216  -5.076  13.852  0.00  0.00    -0.191 NA
ATOM     37  C   UNL     1     -11.887  -5.862  14.638  0.00  0.00    +0.099 C 
ENDBRANCH  36  37
ENDBRANCH  25  27
ENDBRANCH  16   4
ENDBRANCH   9  16
TORSDOF 7
ENDMDL
MODEL 2
REMARK VINA RESULT:      -7.7     28.168     30.946
REMARK  Name = 38028999
REMARK  10 active torsions:
REMARK  status: ('A' for Active; 'I' for Inactive)
REMARK    1  A    between atoms: N_4  and  C_16
REMARK    2  A    between atoms: C_8  and  C_12
REMARK    3  A    between atoms: C_9  and  C_16
REMARK    4  A    between atoms: C_11  and  C_15
REMARK    5  A    between atoms: C_12  and  C_17
REMARK    6  A    between atoms: C_12  and  C_18
REMARK    7  A    between atoms: C_13  and  C_19
REMARK    8  A    between atoms: C_15  and  C_20
REMARK    9  A    between atoms: C_25  and  C_27
REMARK   10  A    between atoms: C_36  and  C_37
REMARK                            x       y       z     vdW  Elec       q    Type
REMARK                         _______ _______ _______ _____ _____    ______ ____
ROOT
ATOM      8  C   UNL     1      13.096   9.317  19.997  0.00  0.00    +0.000 C 
ATOM      9  C   UNL     1      12.097   8.320  19.358  0.00  0.00    +0.032 C 
ATOM     10  C   UNL     1      12.992  10.690  19.317  0.00  0.00    +0.012 C 
ATOM     11  C   UNL     1      13.279  10.615  17.805  0.00  0.00    +0.023 C 
ATOM     13  C   UNL     1      12.529   9.475  17.146  0.00  0.00    -0.073 C 
ATOM     14  C   UNL     1      11.996   8.466  17.857  0.00  0.00    -0.022 C 
ATOM     19  C   UNL     1      12.365   9.545  15.653  0.00  0.00    +0.039 C 
ENDROOT
BRANCH   8  12
ATOM     12  C   UNL     1      12.864   9.466  21.504  0.00  0.00    -0.013 C 
ATOM     17  C   UNL     1      11.787  10.512  21.776  0.00  0.00    +0.007 C 
ATOM     18  C   UNL     1      14.166   9.833  22.209  0.00  0.00    +0.007 C 
ENDBRANCH   8  12
BRANCH  11  15
ATOM     15  C   UNL     1      14.784  10.512  17.533  0.00  0.00    +0.103 C 
BRANCH  15  20
ATOM      1  O   UNL     1      15.417  12.750  18.008  0.00  0.00    -0.276 OA
ATOM      3  N   UNL     1      15.708  12.026  15.819  0.00  0.00    -0.298 N 
ATOM      5  N   UNL     1      16.719  12.404  13.134  0.00  0.00    -0.312 N 
ATOM      6  N   UNL     1      16.411  12.412  10.792  0.00  0.00    -0.240 NA
ATOM     20  C   UNL     1      15.331  11.866  17.153  0.00  0.00    +0.216 C 
ATOM     21  C   UNL     1      15.614  10.972  14.807  0.00  0.00    +0.126 C 
ATOM     22  C   UNL     1      16.241  13.310  15.372  0.00  0.00    +0.126 C 
ATOM     23  C   UNL     1      15.576  11.521  13.381  0.00  0.00    +0.125 C 
ATOM     24  C   UNL     1      17.283  13.142  14.268  0.00  0.00    +0.125 C 
ATOM     26  C   UNL     1      17.237  12.567  11.851  0.00  0.00    +0.121 A 
ATOM     28  C   UNL     1      18.583  12.881  11.745  0.00  0.00    +0.043 A 
ATOM     31  C   UNL     1      19.113  13.048  10.471  0.00  0.00    +0.005 A 
ATOM     32  C   UNL     1      16.963  12.581   9.570  0.00  0.00    +0.113 A 
ATOM     35  C   UNL     1      18.295  12.896   9.357  0.00  0.00    +0.020 A 
ENDBRANCH  15  20
ENDBRANCH  11  15
BRANCH   9  16
ATOM     16  C   UNL     1      12.460   6.872  19.707  0.00  0.00    +0.112 C 
BRANCH  16   4
ATOM      2  O   UNL     1      14.733   6.904  17.954  0.00  0.00    -0.270 OA
ATOM      4  N   UNL     1      13.833   6.771  20.089  0.00  0.00    -0.311 N 
ATOM     25  C   UNL     1      14.881   6.796  19.169  0.00  0.00    +0.244 C 
ATOM     38  H   UNL     1      14.038   6.771  21.082  0.00  0.00    +0.149 HD
BRANCH  25  27
ATOM     27  C   UNL     1      16.251   6.654  19.724  0.00  0.00    +0.037 A 
ATOM     29  C   UNL     1      16.610   7.344  20.883  0.00  0.00    +0.014 A 
ATOM     30  C   UNL     1      17.179   5.828  19.089  0.00  0.00    +0.014 A 
ATOM     33  C   UNL     1      17.895   7.208  21.405  0.00  0.00    +0.019 A 
ATOM     34  C   UNL     1      18.465   5.693  19.612  0.00  0.00    +0.019 A 
ATOM     36  C   UNL     1      18.824   6.383  20.770  0.00  0.00    +0.052 A 
BRANCH  36  37
ATOM      7  N   UNL     1      21.211   6.133  21.740  0.00  0.00    -0.191 NA
ATOM     37  C   UNL     1      20.141   6.245  21.306  0.00  0.00    +0.099 C 
ENDBRANCH  36  37
ENDBRANCH  25  27
ENDBRANCH  16   4
ENDBRANCH   9  16
TORSDOF 7
ENDMDL
MODEL 3
REMARK VINA RESULT:      -7.6      3.410      7.232
REMARK  Name = 38028999
REMARK  10 active torsions:
REMARK  status: ('A' for Active; 'I' for Inactive)
REMARK    1  A    between atoms: N_4  and  C_16
REMARK    2  A    between atoms: C_8  and  C_12
REMARK    3  A    between atoms: C_9  and  C_16
REMARK    4  A    between atoms: C_11  and  C_15
REMARK    5  A    between atoms: C_12  and  C_17
REMARK    6  A    between atoms: C_12  and  C_18
REMARK    7  A    between atoms: C_13  and  C_19
REMARK    8  A    between atoms: C_15  and  C_20
REMARK    9  A    between atoms: C_25  and  C_27
REMARK   10  A    between atoms: C_36  and  C_37
REMARK                            x       y       z     vdW  Elec       q    Type
REMARK                         _______ _______ _______ _____ _____    ______ ____
ROOT
ATOM      8  C   UNL     1      -2.877 -12.463  12.527  0.00  0.00    +0.000 C 
ATOM      9  C   UNL     1      -1.919 -11.248  12.474  0.00  0.00    +0.032 C 
ATOM     10  C   UNL     1      -3.361 -12.827  11.116  0.00  0.00    +0.012 C 
ATOM     11  C   UNL     1      -4.095 -11.657  10.432  0.00  0.00    +0.023 C 
ATOM     13  C   UNL     1      -3.332 -10.356  10.571  0.00  0.00    -0.073 C 
ATOM     14  C   UNL     1      -2.354 -10.195  11.480  0.00  0.00    -0.022 C 
ATOM     19  C   UNL     1      -3.687  -9.256   9.610  0.00  0.00    +0.039 C 
ENDROOT
BRANCH   8  12
ATOM     12  C   UNL     1      -2.214 -13.682  13.178  0.00  0.00    -0.013 C 
ATOM     17  C   UNL     1      -2.181 -14.854  12.202  0.00  0.00    +0.007 C 
ATOM     18  C   UNL     1      -2.946 -14.064  14.460  0.00  0.00    +0.007 C 
ENDBRANCH   8  12
BRANCH  11  15
ATOM     15  C   UNL     1      -5.525 -11.515  10.965  0.00  0.00    +0.103 C 
BRANCH  15  20
ATOM      1  O   UNL     1      -6.580 -12.672   9.180  0.00  0.00    -0.276 OA
ATOM      3  N   UNL     1      -7.293 -10.497   9.579  0.00  0.00    -0.298 N 
ATOM      5  N   UNL     1      -9.114  -8.296   9.112  0.00  0.00    -0.312 N 
ATOM      6  N   UNL     1      -9.526  -6.026   8.606  0.00  0.00    -0.240 NA
ATOM     20  C   UNL     1      -6.510 -11.625   9.827  0.00  0.00    +0.216 C 
ATOM     21  C   UNL     1      -7.216  -9.257  10.355  0.00  0.00    +0.126 C 
ATOM     22  C   UNL     1      -8.266 -10.522   8.490  0.00  0.00    +0.126 C 
ATOM     23  C   UNL     1      -7.753  -8.046   9.592  0.00  0.00    +0.125 C 
ATOM     24  C   UNL     1      -9.499  -9.678   8.806  0.00  0.00    +0.125 C 
ATOM     26  C   UNL     1     -10.012  -7.249   8.917  0.00  0.00    +0.121 A 
ATOM     28  C   UNL     1     -11.361  -7.535   9.056  0.00  0.00    +0.043 A 
ATOM     31  C   UNL     1     -12.268  -6.499   8.864  0.00  0.00    +0.005 A 
ATOM     32  C   UNL     1     -10.438  -5.045   8.428  0.00  0.00    +0.113 A 
ATOM     35  C   UNL     1     -11.807  -5.228   8.544  0.00  0.00    +0.020 A 
ENDBRANCH  15  20
ENDBRANCH  11  15
BRANCH   9  16
ATOM     16  C   UNL     1      -1.759 -10.607  13.858  0.00  0.00    +0.112 C 
BRANCH  16   4
ATOM      2  O   UNL     1      -2.306 -10.898  16.661  0.00  0.00    -0.270 OA
ATOM      4  N   UNL     1      -3.028 -10.462  14.499  0.00  0.00    -0.311 N 
ATOM     25  C   UNL     1      -3.206 -10.621  15.874  0.00  0.00    +0.244 C 
ATOM     38  H   UNL     1      -3.802 -10.143  13.927  0.00  0.00    +0.149 HD
BRANCH  25  27
ATOM     27  C   UNL     1      -4.593 -10.464  16.382  0.00  0.00    +0.037 A 
ATOM     29  C   UNL     1      -4.906 -10.851  17.686  0.00  0.00    +0.014 A 
ATOM     30  C   UNL     1      -5.582  -9.927  15.557  0.00  0.00    +0.014 A 
ATOM     33  C   UNL     1      -6.208 -10.701  18.163  0.00  0.00    +0.019 A 
ATOM     34  C   UNL     1      -6.884  -9.778  16.036  0.00  0.00    +0.019 A 
ATOM     36  C   UNL     1      -7.197 -10.165  17.339  0.00  0.00    +0.052 A 
BRANCH  36  37
ATOM      7  N   UNL     1      -9.613  -9.887  18.226  0.00  0.00    -0.191 NA
ATOM     37  C   UNL     1      -8.530 -10.012  17.828  0.00  0.00    +0.099 C 
ENDBRANCH  36  37
ENDBRANCH  25  27
ENDBRANCH  16   4
ENDBRANCH   9  16
TORSDOF 7
ENDMDL
MODEL 4
REMARK VINA RESULT:      -7.5      3.740      7.330
REMARK  Name = 38028999
REMARK  10 active torsions:
REMARK  status: ('A' for Active; 'I' for Inactive)
REMARK    1  A    between atoms: N_4  and  C_16
REMARK    2  A    between atoms: C_8  and  C_12
REMARK    3  A    between atoms: C_9  and  C_16
REMARK    4  A    between atoms: C_11  and  C_15
REMARK    5  A    between atoms: C_12  and  C_17
REMARK    6  A    between atoms: C_12  and  C_18
REMARK    7  A    between atoms: C_13  and  C_19
REMARK    8  A    between atoms: C_15  and  C_20
REMARK    9  A    between atoms: C_25  and  C_27
REMARK   10  A    between atoms: C_36  and  C_37
REMARK                            x       y       z     vdW  Elec       q    Type
REMARK                         _______ _______ _______ _____ _____    ______ ____
ROOT
ATOM      8  C   UNL     1      -3.261 -12.049  12.891  0.00  0.00    +0.000 C 
ATOM      9  C   UNL     1      -2.101 -11.040  12.707  0.00  0.00    +0.032 C 
ATOM     10  C   UNL     1      -3.803 -12.499  11.526  0.00  0.00    +0.012 C 
ATOM     11  C   UNL     1      -4.316 -11.314  10.684  0.00  0.00    +0.023 C 
ATOM     13  C   UNL     1      -3.332 -10.162  10.677  0.00  0.00    -0.073 C 
ATOM     14  C   UNL     1      -2.341 -10.063  11.579  0.00  0.00    -0.022 C 
ATOM     19  C   UNL     1      -3.485  -9.148   9.577  0.00  0.00    +0.039 C 
ENDROOT
BRANCH   8  12
ATOM     12  C   UNL     1      -2.827 -13.273  13.705  0.00  0.00    -0.013 C 
ATOM     17  C   UNL     1      -1.412 -13.694  13.319  0.00  0.00    +0.007 C 
ATOM     18  C   UNL     1      -3.809 -14.422  13.503  0.00  0.00    +0.007 C 
ENDBRANCH   8  12
BRANCH  11  15
ATOM     15  C   UNL     1      -5.697 -10.854  11.163  0.00  0.00    +0.103 C 
BRANCH  15  20
ATOM      1  O   UNL     1      -7.119 -12.678  10.628  0.00  0.00    -0.276 OA
ATOM      3  N   UNL     1      -7.315 -10.779   9.303  0.00  0.00    -0.298 N 
ATOM      5  N   UNL     1      -8.658  -9.244   7.249  0.00  0.00    -0.312 N 
ATOM      6  N   UNL     1      -8.617  -7.984   5.252  0.00  0.00    -0.240 NA
ATOM     20  C   UNL     1      -6.774 -11.528  10.349  0.00  0.00    +0.216 C 
ATOM     21  C   UNL     1      -6.912  -9.409   8.980  0.00  0.00    +0.126 C 
ATOM     22  C   UNL     1      -8.359 -11.364   8.465  0.00  0.00    +0.126 C 
ATOM     23  C   UNL     1      -7.240  -9.019   7.539  0.00  0.00    +0.125 C 
ATOM     24  C   UNL     1      -9.352 -10.313   7.974  0.00  0.00    +0.125 C 
ATOM     26  C   UNL     1      -9.325  -8.489   6.288  0.00  0.00    +0.121 A 
ATOM     28  C   UNL     1     -10.687  -8.302   6.459  0.00  0.00    +0.043 A 
ATOM     31  C   UNL     1     -11.366  -7.550   5.506  0.00  0.00    +0.005 A 
ATOM     32  C   UNL     1      -9.310  -7.257   4.348  0.00  0.00    +0.113 A 
ATOM     35  C   UNL     1     -10.672  -7.014   4.428  0.00  0.00    +0.020 A 
ENDBRANCH  15  20
ENDBRANCH  11  15
BRANCH   9  16
ATOM     16  C   UNL     1      -1.828 -10.266  14.003  0.00  0.00    +0.112 C 
BRANCH  16   4
ATOM      2  O   UNL     1      -1.750 -10.895  16.803  0.00  0.00    -0.270 OA
ATOM      4  N   UNL     1      -2.946 -10.353  14.890  0.00  0.00    -0.311 N 
ATOM     25  C   UNL     1      -2.818 -10.665  16.243  0.00  0.00    +0.244 C 
ATOM     38  H   UNL     1      -3.851 -10.085  14.520  0.00  0.00    +0.149 HD
BRANCH  25  27
ATOM     27  C   UNL     1      -4.079 -10.741  17.025  0.00  0.00    +0.037 A 
ATOM     29  C   UNL     1      -5.224 -10.088  16.567  0.00  0.00    +0.014 A 
ATOM     30  C   UNL     1      -4.119 -11.469  18.215  0.00  0.00    +0.014 A 
ATOM     33  C   UNL     1      -6.408 -10.162  17.300  0.00  0.00    +0.019 A 
ATOM     34  C   UNL     1      -5.304 -11.542  18.947  0.00  0.00    +0.019 A 
ATOM     36  C   UNL     1      -6.449 -10.888  18.490  0.00  0.00    +0.052 A 
BRANCH  36  37
ATOM      7  N   UNL     1      -8.648 -11.026  19.850  0.00  0.00    -0.191 NA
ATOM     37  C   UNL     1      -7.662 -10.964  19.241  0.00  0.00    +0.099 C 
ENDBRANCH  36  37
ENDBRANCH  25  27
ENDBRANCH  16   4
ENDBRANCH   9  16
TORSDOF 7
ENDMDL
MODEL 5
REMARK VINA RESULT:      -7.4     26.456     30.161
REMARK  Name = 38028999
REMARK  10 active torsions:
REMARK  status: ('A' for Active; 'I' for Inactive)
REMARK    1  A    between atoms: N_4  and  C_16
REMARK    2  A    between atoms: C_8  and  C_12
REMARK    3  A    between atoms: C_9  and  C_16
REMARK    4  A    between atoms: C_11  and  C_15
REMARK    5  A    between atoms: C_12  and  C_17
REMARK    6  A    between atoms: C_12  and  C_18
REMARK    7  A    between atoms: C_13  and  C_19
REMARK    8  A    between atoms: C_15  and  C_20
REMARK    9  A    between atoms: C_25  and  C_27
REMARK   10  A    between atoms: C_36  and  C_37
REMARK                            x       y       z     vdW  Elec       q    Type
REMARK                         _______ _______ _______ _____ _____    ______ ____
ROOT
ATOM      8  C   UNL     1      10.312   7.336   6.145  0.00  0.00    +0.000 C 
ATOM      9  C   UNL     1       9.446   7.990   5.040  0.00  0.00    +0.032 C 
ATOM     10  C   UNL     1      11.040   8.412   6.963  0.00  0.00    +0.012 C 
ATOM     11  C   UNL     1      11.952   9.294   6.087  0.00  0.00    +0.023 C 
ATOM     13  C   UNL     1      11.243   9.761   4.832  0.00  0.00    -0.073 C 
ATOM     14  C   UNL     1      10.117   9.176   4.386  0.00  0.00    -0.022 C 
ATOM     19  C   UNL     1      11.833  10.949   4.123  0.00  0.00    +0.039 C 
ENDROOT
BRANCH   8  12
ATOM     12  C   UNL     1       9.475   6.454   7.077  0.00  0.00    -0.013 C 
ATOM     17  C   UNL     1       8.706   7.315   8.075  0.00  0.00    +0.007 C 
ATOM     18  C   UNL     1      10.365   5.449   7.801  0.00  0.00    +0.007 C 
ENDBRANCH   8  12
BRANCH  11  15
ATOM     15  C   UNL     1      13.257   8.568   5.743  0.00  0.00    +0.103 C 
BRANCH  15  20
ATOM      1  O   UNL     1      14.272  10.371   6.910  0.00  0.00    -0.276 OA
ATOM      3  N   UNL     1      15.670   9.056   5.600  0.00  0.00    -0.298 N 
ATOM      5  N   UNL     1      18.307   8.268   4.703  0.00  0.00    -0.312 N 
ATOM      6  N   UNL     1      19.848   7.803   2.974  0.00  0.00    -0.240 NA
ATOM     20  C   UNL     1      14.437   9.418   6.144  0.00  0.00    +0.216 C 
ATOM     21  C   UNL     1      15.868   7.918   4.699  0.00  0.00    +0.126 C 
ATOM     22  C   UNL     1      16.861   9.833   5.935  0.00  0.00    +0.126 C 
ATOM     23  C   UNL     1      17.134   8.045   3.853  0.00  0.00    +0.125 C 
ATOM     24  C   UNL     1      18.116   8.964   5.978  0.00  0.00    +0.125 C 
ATOM     26  C   UNL     1      19.576   7.862   4.297  0.00  0.00    +0.121 A 
ATOM     28  C   UNL     1      20.488   7.541   5.291  0.00  0.00    +0.043 A 
ATOM     31  C   UNL     1      21.759   7.135   4.901  0.00  0.00    +0.005 A 
ATOM     32  C   UNL     1      21.093   7.403   2.634  0.00  0.00    +0.113 A 
ATOM     35  C   UNL     1      22.075   7.061   3.550  0.00  0.00    +0.020 A 
ENDBRANCH  15  20
ENDBRANCH  11  15
BRANCH   9  16
ATOM     16  C   UNL     1       9.055   6.969   3.965  0.00  0.00    +0.112 C 
BRANCH  16   4
ATOM      2  O   UNL     1      10.270   4.372   4.119  0.00  0.00    -0.270 OA
ATOM      4  N   UNL     1      10.207   6.522   3.247  0.00  0.00    -0.311 N 
ATOM     25  C   UNL     1      10.734   5.237   3.381  0.00  0.00    +0.244 C 
ATOM     38  H   UNL     1      10.589   7.151   2.549  0.00  0.00    +0.149 HD
BRANCH  25  27
ATOM     27  C   UNL     1      11.951   4.937   2.585  0.00  0.00    +0.037 A 
ATOM     29  C   UNL     1      12.135   3.664   2.044  0.00  0.00    +0.014 A 
ATOM     30  C   UNL     1      12.910   5.929   2.376  0.00  0.00    +0.014 A 
ATOM     33  C   UNL     1      13.277   3.383   1.295  0.00  0.00    +0.019 A 
ATOM     34  C   UNL     1      14.053   5.646   1.626  0.00  0.00    +0.019 A 
ATOM     36  C   UNL     1      14.236   4.373   1.086  0.00  0.00    +0.052 A 
BRANCH  36  37
ATOM      7  N   UNL     1      16.356   3.850  -0.305  0.00  0.00    -0.191 NA
ATOM     37  C   UNL     1      15.406   4.085   0.318  0.00  0.00    +0.099 C 
ENDBRANCH  36  37
ENDBRANCH  25  27
ENDBRANCH  16   4
ENDBRANCH   9  16
TORSDOF 7
ENDMDL
MODEL 6
REMARK VINA RESULT:      -7.4     28.559     31.708
REMARK  Name = 38028999
REMARK  10 active torsions:
REMARK  status: ('A' for Active; 'I' for Inactive)
REMARK    1  A    between atoms: N_4  and  C_16
REMARK    2  A    between atoms: C_8  and  C_12
REMARK    3  A    between atoms: C_9  and  C_16
REMARK    4  A    between atoms: C_11  and  C_15
REMARK    5  A    between atoms: C_12  and  C_17
REMARK    6  A    between atoms: C_12  and  C_18
REMARK    7  A    between atoms: C_13  and  C_19
REMARK    8  A    between atoms: C_15  and  C_20
REMARK    9  A    between atoms: C_25  and  C_27
REMARK   10  A    between atoms: C_36  and  C_37
REMARK                            x       y       z     vdW  Elec       q    Type
REMARK                         _______ _______ _______ _____ _____    ______ ____
ROOT
ATOM      8  C   UNL     1      12.910   9.118  20.280  0.00  0.00    +0.000 C 
ATOM      9  C   UNL     1      11.987   8.127  19.528  0.00  0.00    +0.032 C 
ATOM     10  C   UNL     1      12.793  10.525  19.675  0.00  0.00    +0.012 C 
ATOM     11  C   UNL     1      13.168  10.549  18.180  0.00  0.00    +0.023 C 
ATOM     13  C   UNL     1      12.500   9.425  17.415  0.00  0.00    -0.073 C 
ATOM     14  C   UNL     1      11.965   8.358  18.034  0.00  0.00    -0.022 C 
ATOM     19  C   UNL     1      12.417   9.578  15.922  0.00  0.00    +0.039 C 
ENDROOT
BRANCH   8  12
ATOM     12  C   UNL     1      12.588   9.169  21.777  0.00  0.00    -0.013 C 
ATOM     17  C   UNL     1      11.093   9.382  21.994  0.00  0.00    +0.007 C 
ATOM     18  C   UNL     1      13.396  10.270  22.458  0.00  0.00    +0.007 C 
ENDBRANCH   8  12
BRANCH  11  15
ATOM     15  C   UNL     1      14.688  10.514  17.991  0.00  0.00    +0.103 C 
BRANCH  15  20
ATOM      1  O   UNL     1      15.024  12.859  17.824  0.00  0.00    -0.276 OA
ATOM      3  N   UNL     1      16.138  11.765  19.545  0.00  0.00    -0.298 N 
ATOM      5  N   UNL     1      17.737  11.797  21.958  0.00  0.00    -0.312 N 
ATOM      6  N   UNL     1      19.603  11.069  23.210  0.00  0.00    -0.240 NA
ATOM     20  C   UNL     1      15.291  11.823  18.438  0.00  0.00    +0.216 C 
ATOM     21  C   UNL     1      16.446  10.536  20.279  0.00  0.00    +0.126 C 
ATOM     22  C   UNL     1      16.766  12.990  20.035  0.00  0.00    +0.126 C 
ATOM     23  C   UNL     1      17.751  10.631  21.072  0.00  0.00    +0.125 C 
ATOM     24  C   UNL     1      16.954  12.968  21.550  0.00  0.00    +0.125 C 
ATOM     26  C   UNL     1      18.475  11.812  23.139  0.00  0.00    +0.121 A 
ATOM     28  C   UNL     1      17.997  12.596  24.177  0.00  0.00    +0.043 A 
ATOM     31  C   UNL     1      18.723  12.621  25.362  0.00  0.00    +0.005 A 
ATOM     32  C   UNL     1      20.281  11.117  24.378  0.00  0.00    +0.113 A 
ATOM     35  C   UNL     1      19.887  11.869  25.473  0.00  0.00    +0.020 A 
ENDBRANCH  15  20
ENDBRANCH  11  15
BRANCH   9  16
ATOM     16  C   UNL     1      12.384   6.674  19.814  0.00  0.00    +0.112 C 
BRANCH  16   4
ATOM      2  O   UNL     1      14.606   6.740  17.997  0.00  0.00    -0.270 OA
ATOM      4  N   UNL     1      13.769   6.584  20.156  0.00  0.00    -0.311 N 
ATOM     25  C   UNL     1      14.789   6.625  19.206  0.00  0.00    +0.244 C 
ATOM     38  H   UNL     1      14.002   6.581  21.143  0.00  0.00    +0.149 HD
BRANCH  25  27
ATOM     27  C   UNL     1      16.177   6.493  19.721  0.00  0.00    +0.037 A 
ATOM     29  C   UNL     1      17.141   5.828  18.964  0.00  0.00    +0.014 A 
ATOM     30  C   UNL     1      16.515   7.036  20.961  0.00  0.00    +0.014 A 
ATOM     33  C   UNL     1      18.444   5.706  19.447  0.00  0.00    +0.019 A 
ATOM     34  C   UNL     1      17.818   6.913  21.443  0.00  0.00    +0.019 A 
ATOM     36  C   UNL     1      18.783   6.248  20.686  0.00  0.00    +0.052 A 
BRANCH  36  37
ATOM      7  N   UNL     1      21.201   6.020  21.582  0.00  0.00    -0.191 NA
ATOM     37  C   UNL     1      20.117   6.123  21.181  0.00  0.00    +0.099 C 
ENDBRANCH  36  37
ENDBRANCH  25  27
ENDBRANCH  16   4
ENDBRANCH   9  16
TORSDOF 7
ENDMDL
MODEL 7
REMARK VINA RESULT:      -7.3     26.083     30.040
REMARK  Name = 38028999
REMARK  10 active torsions:
REMARK  status: ('A' for Active; 'I' for Inactive)
REMARK    1  A    between atoms: N_4  and  C_16
REMARK    2  A    between atoms: C_8  and  C_12
REMARK    3  A    between atoms: C_9  and  C_16
REMARK    4  A    between atoms: C_11  and  C_15
REMARK    5  A    between atoms: C_12  and  C_17
REMARK    6  A    between atoms: C_12  and  C_18
REMARK    7  A    between atoms: C_13  and  C_19
REMARK    8  A    between atoms: C_15  and  C_20
REMARK    9  A    between atoms: C_25  and  C_27
REMARK   10  A    between atoms: C_36  and  C_37
REMARK                            x       y       z     vdW  Elec       q    Type
REMARK                         _______ _______ _______ _____ _____    ______ ____
ROOT
ATOM      8  C   UNL     1      11.202   6.711   5.572  0.00  0.00    +0.000 C 
ATOM      9  C   UNL     1       9.885   5.986   5.198  0.00  0.00    +0.032 C 
ATOM     10  C   UNL     1      10.977   8.229   5.641  0.00  0.00    +0.012 C 
ATOM     11  C   UNL     1      10.466   8.805   4.306  0.00  0.00    +0.023 C 
ATOM     13  C   UNL     1       9.332   7.978   3.736  0.00  0.00    -0.073 C 
ATOM     14  C   UNL     1       9.078   6.726   4.155  0.00  0.00    -0.022 C 
ATOM     19  C   UNL     1       8.465   8.641   2.702  0.00  0.00    +0.039 C 
ENDROOT
BRANCH   8  12
ATOM     12  C   UNL     1      11.769   6.209   6.903  0.00  0.00    -0.013 C 
ATOM     17  C   UNL     1      10.715   6.310   8.002  0.00  0.00    +0.007 C 
ATOM     18  C   UNL     1      13.020   6.996   7.279  0.00  0.00    +0.007 C 
ENDBRANCH   8  12
BRANCH  11  15
ATOM     15  C   UNL     1      11.607   8.946   3.293  0.00  0.00    +0.103 C 
BRANCH  15  20
ATOM      1  O   UNL     1      12.132  11.188   3.874  0.00  0.00    -0.276 OA
ATOM      3  N   UNL     1      13.876   9.654   3.949  0.00  0.00    -0.298 N 
ATOM      5  N   UNL     1      16.594   8.933   4.634  0.00  0.00    -0.312 N 
ATOM      6  N   UNL     1      18.694   8.013   4.064  0.00  0.00    -0.240 NA
ATOM     20  C   UNL     1      12.552  10.037   3.732  0.00  0.00    +0.216 C 
ATOM     21  C   UNL     1      14.371   8.285   3.790  0.00  0.00    +0.126 C 
ATOM     22  C   UNL     1      14.854  10.654   4.371  0.00  0.00    +0.126 C 
ATOM     23  C   UNL     1      15.883   8.224   3.567  0.00  0.00    +0.125 C 
ATOM     24  C   UNL     1      15.920  10.058   5.288  0.00  0.00    +0.125 C 
ATOM     26  C   UNL     1      17.890   8.572   4.997  0.00  0.00    +0.121 A 
ATOM     28  C   UNL     1      18.273   8.814   6.306  0.00  0.00    +0.043 A 
ATOM     31  C   UNL     1      19.564   8.460   6.683  0.00  0.00    +0.005 A 
ATOM     32  C   UNL     1      19.941   7.681   4.468  0.00  0.00    +0.113 A 
ATOM     35  C   UNL     1      20.419   7.881   5.752  0.00  0.00    +0.020 A 
ENDBRANCH  15  20
ENDBRANCH  11  15
BRANCH   9  16
ATOM     16  C   UNL     1      10.157   4.557   4.713  0.00  0.00    +0.112 C 
BRANCH  16   4
ATOM      2  O   UNL     1      10.069   4.270   1.858  0.00  0.00    -0.270 OA
ATOM      4  N   UNL     1      11.276   4.528   3.824  0.00  0.00    -0.311 N 
ATOM     25  C   UNL     1      11.143   4.385   2.443  0.00  0.00    +0.244 C 
ATOM     38  H   UNL     1      12.190   4.710   4.224  0.00  0.00    +0.149 HD
BRANCH  25  27
ATOM     27  C   UNL     1      12.404   4.346   1.659  0.00  0.00    +0.037 A 
ATOM     29  C   UNL     1      13.483   5.148   2.033  0.00  0.00    +0.014 A 
ATOM     30  C   UNL     1      12.511   3.507   0.550  0.00  0.00    +0.014 A 
ATOM     33  C   UNL     1      14.667   5.110   1.298  0.00  0.00    +0.019 A 
ATOM     34  C   UNL     1      13.696   3.470  -0.185  0.00  0.00    +0.019 A 
ATOM     36  C   UNL     1      14.775   4.271   0.189  0.00  0.00    +0.052 A 
BRANCH  36  37
ATOM      7  N   UNL     1      16.974   4.202  -1.174  0.00  0.00    -0.191 NA
ATOM     37  C   UNL     1      15.989   4.233  -0.563  0.00  0.00    +0.099 C 
ENDBRANCH  36  37
ENDBRANCH  25  27
ENDBRANCH  16   4
ENDBRANCH   9  16
TORSDOF 7
ENDMDL
MODEL 8
REMARK VINA RESULT:      -7.2      2.149      3.458
REMARK  Name = 38028999
REMARK  10 active torsions:
REMARK  status: ('A' for Active; 'I' for Inactive)
REMARK    1  A    between atoms: N_4  and  C_16
REMARK    2  A    between atoms: C_8  and  C_12
REMARK    3  A    between atoms: C_9  and  C_16
REMARK    4  A    between atoms: C_11  and  C_15
REMARK    5  A    between atoms: C_12  and  C_17
REMARK    6  A    between atoms: C_12  and  C_18
REMARK    7  A    between atoms: C_13  and  C_19
REMARK    8  A    between atoms: C_15  and  C_20
REMARK    9  A    between atoms: C_25  and  C_27
REMARK   10  A    between atoms: C_36  and  C_37
REMARK                            x       y       z     vdW  Elec       q    Type
REMARK                         _______ _______ _______ _____ _____    ______ ____
ROOT
ATOM      8  C   UNL     1      -4.992 -12.346  16.449  0.00  0.00    +0.000 C 
ATOM      9  C   UNL     1      -4.075 -11.864  17.600  0.00  0.00    +0.032 C 
ATOM     10  C   UNL     1      -4.152 -12.769  15.235  0.00  0.00    +0.012 C 
ATOM     11  C   UNL     1      -3.271 -11.619  14.707  0.00  0.00    +0.023 C 
ATOM     13  C   UNL     1      -2.535 -10.915  15.828  0.00  0.00    -0.073 C 
ATOM     14  C   UNL     1      -2.899 -11.047  17.116  0.00  0.00    -0.022 C 
ATOM     19  C   UNL     1      -1.339 -10.091  15.440  0.00  0.00    +0.039 C 
ENDROOT
BRANCH   8  12
ATOM     12  C   UNL     1      -5.890 -13.508  16.887  0.00  0.00    -0.013 C 
ATOM     17  C   UNL     1      -5.229 -14.844  16.564  0.00  0.00    +0.007 C 
ATOM     18  C   UNL     1      -7.257 -13.405  16.218  0.00  0.00    +0.007 C 
ENDBRANCH   8  12
BRANCH  11  15
ATOM     15  C   UNL     1      -4.097 -10.625  13.883  0.00  0.00    +0.103 C 
BRANCH  15  20
ATOM      1  O   UNL     1      -2.352 -10.870  12.291  0.00  0.00    -0.276 OA
ATOM      3  N   UNL     1      -4.333  -9.921  11.531  0.00  0.00    -0.298 N 
ATOM      5  N   UNL     1      -6.030  -8.956   9.394  0.00  0.00    -0.312 N 
ATOM      6  N   UNL     1      -7.406  -7.290   8.440  0.00  0.00    -0.240 NA
ATOM     20  C   UNL     1      -3.506 -10.489  12.501  0.00  0.00    +0.216 C 
ATOM     21  C   UNL     1      -5.707  -9.480  11.780  0.00  0.00    +0.126 C 
ATOM     22  C   UNL     1      -3.832  -9.750  10.170  0.00  0.00    +0.126 C 
ATOM     23  C   UNL     1      -6.193  -8.450  10.759  0.00  0.00    +0.125 C 
ATOM     24  C   UNL     1      -4.941  -9.902   9.130  0.00  0.00    +0.125 C 
ATOM     26  C   UNL     1      -6.862  -8.526   8.363  0.00  0.00    +0.121 A 
ATOM     28  C   UNL     1      -7.080  -9.405   7.314  0.00  0.00    +0.043 A 
ATOM     31  C   UNL     1      -7.909  -8.988   6.278  0.00  0.00    +0.005 A 
ATOM     32  C   UNL     1      -8.207  -6.922   7.416  0.00  0.00    +0.113 A 
ATOM     35  C   UNL     1      -8.487  -7.725   6.323  0.00  0.00    +0.020 A 
ENDBRANCH  15  20
ENDBRANCH  11  15
BRANCH   9  16
ATOM     16  C   UNL     1      -4.865 -11.056  18.637  0.00  0.00    +0.112 C 
BRANCH  16   4
ATOM      2  O   UNL     1      -7.517 -11.024  19.735  0.00  0.00    -0.270 OA
ATOM      4  N   UNL     1      -6.026 -10.470  18.046  0.00  0.00    -0.311 N 
ATOM     25  C   UNL     1      -7.283 -10.499  18.650  0.00  0.00    +0.244 C 
ATOM     38  H   UNL     1      -5.892  -9.938  17.193  0.00  0.00    +0.149 HD
BRANCH  25  27
ATOM     27  C   UNL     1      -8.394  -9.867  17.893  0.00  0.00    +0.037 A 
ATOM     29  C   UNL     1      -9.704  -9.967  18.364  0.00  0.00    +0.014 A 
ATOM     30  C   UNL     1      -8.128  -9.172  16.714  0.00  0.00    +0.014 A 
ATOM     33  C   UNL     1     -10.746  -9.372  17.654  0.00  0.00    +0.019 A 
ATOM     34  C   UNL     1      -9.172  -8.577  16.004  0.00  0.00    +0.019 A 
ATOM     36  C   UNL     1     -10.481  -8.677  16.475  0.00  0.00    +0.052 A 
BRANCH  36  37
ATOM      7  N   UNL     1     -12.417  -7.573  15.158  0.00  0.00    -0.191 NA
ATOM     37  C   UNL     1     -11.550  -8.068  15.748  0.00  0.00    +0.099 C 
ENDBRANCH  36  37
ENDBRANCH  25  27
ENDBRANCH  16   4
ENDBRANCH   9  16
TORSDOF 7
ENDMDL
MODEL 9
REMARK VINA RESULT:      -7.2      2.512      3.626
REMARK  Name = 38028999
REMARK  10 active torsions:
REMARK  status: ('A' for Active; 'I' for Inactive)
REMARK    1  A    between atoms: N_4  and  C_16
REMARK    2  A    between atoms: C_8  and  C_12
REMARK    3  A    between atoms: C_9  and  C_16
REMARK    4  A    between atoms: C_11  and  C_15
REMARK    5  A    between atoms: C_12  and  C_17
REMARK    6  A    between atoms: C_12  and  C_18
REMARK    7  A    between atoms: C_13  and  C_19
REMARK    8  A    between atoms: C_15  and  C_20
REMARK    9  A    between atoms: C_25  and  C_27
REMARK   10  A    between atoms: C_36  and  C_37
REMARK                            x       y       z     vdW  Elec       q    Type
REMARK                         _______ _______ _______ _____ _____    ______ ____
ROOT
ATOM      8  C   UNL     1      -6.961 -11.161  17.000  0.00  0.00    +0.000 C 
ATOM      9  C   UNL     1      -7.075 -11.403  18.526  0.00  0.00    +0.032 C 
ATOM     10  C   UNL     1      -5.895 -12.082  16.389  0.00  0.00    +0.012 C 
ATOM     11  C   UNL     1      -4.506 -11.868  17.022  0.00  0.00    +0.023 C 
ATOM     13  C   UNL     1      -4.579 -11.826  18.535  0.00  0.00    -0.073 C 
ATOM     14  C   UNL     1      -5.737 -11.631  19.190  0.00  0.00    -0.022 C 
ATOM     19  C   UNL     1      -3.295 -12.060  19.281  0.00  0.00    +0.039 C 
ENDROOT
BRANCH   8  12
ATOM     12  C   UNL     1      -8.301 -11.374  16.289  0.00  0.00    -0.013 C 
ATOM     17  C   UNL     1      -8.922 -12.703  16.710  0.00  0.00    +0.007 C 
ATOM     18  C   UNL     1      -8.114 -11.320  14.776  0.00  0.00    +0.007 C 
ENDBRANCH   8  12
BRANCH  11  15
ATOM     15  C   UNL     1      -3.837 -10.605  16.470  0.00  0.00    +0.103 C 
BRANCH  15  20
ATOM      1  O   UNL     1      -1.641 -11.306  15.899  0.00  0.00    -0.276 OA
ATOM      3  N   UNL     1      -3.110 -10.938  14.137  0.00  0.00    -0.298 N 
ATOM      5  N   UNL     1      -3.792 -11.085  11.327  0.00  0.00    -0.312 N 
ATOM      6  N   UNL     1      -4.578 -10.085   9.337  0.00  0.00    -0.240 NA
ATOM     20  C   UNL     1      -2.758 -10.984  15.486  0.00  0.00    +0.216 C 
ATOM     21  C   UNL     1      -4.439 -10.566  13.648  0.00  0.00    +0.126 C 
ATOM     22  C   UNL     1      -2.119 -11.286  13.122  0.00  0.00    +0.126 C 
ATOM     23  C   UNL     1      -4.424 -10.088  12.196  0.00  0.00    +0.125 C 
ATOM     24  C   UNL     1      -2.758 -11.949  11.903  0.00  0.00    +0.125 C 
ATOM     26  C   UNL     1      -4.137 -11.189   9.982  0.00  0.00    +0.121 A 
ATOM     28  C   UNL     1      -4.004 -12.434   9.387  0.00  0.00    +0.043 A 
ATOM     31  C   UNL     1      -4.344 -12.552   8.044  0.00  0.00    +0.005 A 
ATOM     32  C   UNL     1      -4.900 -10.240   8.034  0.00  0.00    +0.113 A 
ATOM     35  C   UNL     1      -4.802 -11.440   7.348  0.00  0.00    +0.020 A 
ENDBRANCH  15  20
ENDBRANCH  11  15
BRANCH   9  16
ATOM     16  C   UNL     1      -7.798 -10.241  19.219  0.00  0.00    +0.112 C 
BRANCH  16   4
ATOM      2  O   UNL     1     -10.434  -9.478  18.377  0.00  0.00    -0.270 OA
ATOM      4  N   UNL     1      -9.034 -10.679  19.786  0.00  0.00    -0.311 N 
ATOM     25  C   UNL     1     -10.277 -10.257  19.313  0.00  0.00    +0.244 C 
ATOM     38  H   UNL     1      -8.987 -11.395  20.503  0.00  0.00    +0.149 HD
BRANCH  25  27
ATOM     27  C   UNL     1     -11.468 -10.783  20.028  0.00  0.00    +0.037 A 
ATOM     29  C   UNL     1     -12.563  -9.951  20.265  0.00  0.00    +0.014 A 
ATOM     30  C   UNL     1     -11.493 -12.109  20.461  0.00  0.00    +0.014 A 
ATOM     33  C   UNL     1     -13.682 -10.446  20.934  0.00  0.00    +0.019 A 
ATOM     34  C   UNL     1     -12.613 -12.603  21.131  0.00  0.00    +0.019 A 
ATOM     36  C   UNL     1     -13.708 -11.771  21.367  0.00  0.00    +0.052 A 
BRANCH  36  37
ATOM      7  N   UNL     1     -15.785 -12.688  22.610  0.00  0.00    -0.191 NA
ATOM     37  C   UNL     1     -14.854 -12.278  22.053  0.00  0.00    +0.099 C 
ENDBRANCH  36  37
ENDBRANCH  25  27
ENDBRANCH  16   4
ENDBRANCH   9  16
TORSDOF 7
ENDMDL
MODEL 10
REMARK VINA RESULT:      -7.2     18.114     21.308
REMARK  Name = 38028999
REMARK  10 active torsions:
REMARK  status: ('A' for Active; 'I' for Inactive)
REMARK    1  A    between atoms: N_4  and  C_16
REMARK    2  A    between atoms: C_8  and  C_12
REMARK    3  A    between atoms: C_9  and  C_16
REMARK    4  A    between atoms: C_11  and  C_15
REMARK    5  A    between atoms: C_12  and  C_17
REMARK    6  A    between atoms: C_12  and  C_18
REMARK    7  A    between atoms: C_13  and  C_19
REMARK    8  A    between atoms: C_15  and  C_20
REMARK    9  A    between atoms: C_25  and  C_27
REMARK   10  A    between atoms: C_36  and  C_37
REMARK                            x       y       z     vdW  Elec       q    Type
REMARK                         _______ _______ _______ _____ _____    ______ ____
ROOT
ATOM      8  C   UNL     1     -12.698   8.414  20.193  0.00  0.00    +0.000 C 
ATOM      9  C   UNL     1     -11.956   9.552  20.938  0.00  0.00    +0.032 C 
ATOM     10  C   UNL     1     -11.813   7.836  19.080  0.00  0.00    +0.012 C 
ATOM     11  C   UNL     1     -11.399   8.904  18.049  0.00  0.00    +0.023 C 
ATOM     13  C   UNL     1     -10.904  10.169  18.719  0.00  0.00    -0.073 C 
ATOM     14  C   UNL     1     -11.150  10.436  20.014  0.00  0.00    -0.022 C 
ATOM     19  C   UNL     1     -10.077  11.102  17.878  0.00  0.00    +0.039 C 
ENDROOT
BRANCH   8  12
ATOM     12  C   UNL     1     -13.128   7.296  21.148  0.00  0.00    -0.013 C 
ATOM     17  C   UNL     1     -12.077   6.190  21.179  0.00  0.00    +0.007 C 
ATOM     18  C   UNL     1     -14.488   6.740  20.738  0.00  0.00    +0.007 C 
ENDBRANCH   8  12
BRANCH  11  15
ATOM     15  C   UNL     1     -12.546   9.209  17.079  0.00  0.00    +0.103 C 
BRANCH  15  20
ATOM      1  O   UNL     1     -10.998   9.253  15.280  0.00  0.00    -0.276 OA
ATOM      3  N   UNL     1     -13.048   8.239  14.868  0.00  0.00    -0.298 N 
ATOM      5  N   UNL     1     -14.814   6.671  13.195  0.00  0.00    -0.312 N 
ATOM      6  N   UNL     1     -16.891   6.346  12.118  0.00  0.00    -0.240 NA
ATOM     20  C   UNL     1     -12.117   8.906  15.665  0.00  0.00    +0.216 C 
ATOM     21  C   UNL     1     -14.373   7.819  15.331  0.00  0.00    +0.126 C 
ATOM     22  C   UNL     1     -12.710   7.915  13.485  0.00  0.00    +0.126 C 
ATOM     23  C   UNL     1     -15.360   7.605  14.183  0.00  0.00    +0.125 C 
ATOM     24  C   UNL     1     -13.359   6.610  13.029  0.00  0.00    +0.125 C 
ATOM     26  C   UNL     1     -15.653   5.886  12.408  0.00  0.00    +0.121 A 
ATOM     28  C   UNL     1     -15.157   4.668  11.970  0.00  0.00    +0.043 A 
ATOM     31  C   UNL     1     -15.983   3.874  11.184  0.00  0.00    +0.005 A 
ATOM     32  C   UNL     1     -17.665   5.545  11.352  0.00  0.00    +0.113 A 
ATOM     35  C   UNL     1     -17.262   4.313  10.865  0.00  0.00    +0.020 A 
ENDBRANCH  15  20
ENDBRANCH  11  15
BRANCH   9  16
ATOM     16  C   UNL     1     -12.933  10.415  21.746  0.00  0.00    +0.112 C 
BRANCH  16   4
ATOM      2  O   UNL     1     -12.850  12.478  23.740  0.00  0.00    -0.270 OA
ATOM      4  N   UNL     1     -12.725  10.238  23.149  0.00  0.00    -0.311 N 
ATOM     25  C   UNL     1     -12.700  11.300  24.052  0.00  0.00    +0.244 C 
ATOM     38  H   UNL     1     -12.685   9.285  23.494  0.00  0.00    +0.149 HD
BRANCH  25  27
ATOM     27  C   UNL     1     -12.447  10.952  25.474  0.00  0.00    +0.037 A 
ATOM     29  C   UNL     1     -13.504  10.920  26.384  0.00  0.00    +0.014 A 
ATOM     30  C   UNL     1     -11.152  10.654  25.899  0.00  0.00    +0.014 A 
ATOM     33  C   UNL     1     -13.266  10.591  27.717  0.00  0.00    +0.019 A 
ATOM     34  C   UNL     1     -10.915  10.325  27.234  0.00  0.00    +0.019 A 
ATOM     36  C   UNL     1     -11.972  10.294  28.143  0.00  0.00    +0.052 A 
BRANCH  36  37
ATOM      7  N   UNL     1     -11.531   9.683  30.620  0.00  0.00    -0.191 NA
ATOM     37  C   UNL     1     -11.729   9.957  29.510  0.00  0.00    +0.099 C 
ENDBRANCH  36  37
ENDBRANCH  25  27
ENDBRANCH  16   4
ENDBRANCH   9  16
TORSDOF 7
ENDMDL
