MODEL 1
REMARK VINA RESULT:      -8.0      0.000      0.000
REMARK  Name = 11913105
REMARK  6 active torsions:
REMARK  status: ('A' for Active; 'I' for Inactive)
REMARK    1  A    between atoms: O_3  and  C_14
REMARK    2  A    between atoms: O_3  and  C_18
REMARK    3  A    between atoms: N_7  and  C_13
REMARK    4  A    between atoms: N_10  and  C_21
REMARK    5  A    between atoms: C_19  and  C_23
REMARK    6  A    between atoms: C_21  and  C_24
REMARK                            x       y       z     vdW  Elec       q    Type
REMARK                         _______ _______ _______ _____ _____    ______ ____
ROOT
ATOM      1  O   UNL     1     -10.911  -9.978  16.552  0.00  0.00    -0.368 OA
ATOM      2  O   UNL     1      -9.877  -7.114  16.180  0.00  0.00    -0.368 OA
ATOM     11  C   UNL     1      -9.773  -8.032  17.289  0.00  0.00    +0.173 C 
ATOM     12  C   UNL     1     -11.082  -8.795  17.350  0.00  0.00    +0.192 C 
ATOM     13  C   UNL     1      -8.744  -9.096  16.984  0.00  0.00    +0.130 C 
ATOM     14  C   UNL     1     -12.054  -7.829  16.718  0.00  0.00    +0.235 C 
ATOM     15  C   UNL     1      -9.537 -10.085  16.148  0.00  0.00    +0.185 C 
ATOM     16  C   UNL     1     -11.207  -7.181  15.646  0.00  0.00    +0.207 C 
ENDROOT
BRANCH  13   7
ATOM      7  N   UNL     1      -8.291  -9.722  18.207  0.00  0.00    -0.306 N 
ATOM      8  N   UNL     1      -6.212 -10.216  17.297  0.00  0.00    -0.214 NA
ATOM      9  N   UNL     1      -6.762 -10.822  19.564  0.00  0.00    -0.223 NA
ATOM     17  C   UNL     1      -7.033 -10.278  18.363  0.00  0.00    +0.216 A 
ATOM     19  C   UNL     1      -4.995 -10.767  17.485  0.00  0.00    +0.076 A 
ATOM     20  C   UNL     1      -5.527 -11.355  19.682  0.00  0.00    +0.116 A 
ATOM     22  C   UNL     1      -4.593 -11.356  18.666  0.00  0.00    +0.048 A 
ATOM     36  H   UNL     1      -8.895  -9.718  19.022  0.00  0.00    +0.149 HD
BRANCH  19  23
ATOM      5  O   UNL     1      -4.096 -10.557  12.679  0.00  0.00    -0.453 OA
ATOM      6  O   UNL     1      -1.711 -10.518  13.021  0.00  0.00    -0.453 OA
ATOM     23  C   UNL     1      -4.112 -10.702  16.345  0.00  0.00    +0.004 A 
ATOM     25  C   UNL     1      -4.646 -10.662  15.055  0.00  0.00    +0.059 A 
ATOM     26  C   UNL     1      -2.719 -10.679  16.544  0.00  0.00    +0.014 A 
ATOM     27  C   UNL     1      -3.762 -10.600  13.997  0.00  0.00    +0.167 A 
ATOM     28  C   UNL     1      -2.400 -10.577  14.192  0.00  0.00    +0.166 A 
ATOM     29  C   UNL     1      -1.847 -10.616  15.455  0.00  0.00    +0.050 A 
ATOM     32  C   UNL     1      -2.792 -10.504  12.065  0.00  0.00    +0.466 C 
ENDBRANCH  19  23
ENDBRANCH  13   7
BRANCH  14   3
ATOM      3  O   UNL     1     -13.200  -8.453  16.183  0.00  0.00    -0.442 OA
BRANCH   3  18
ATOM      4  O   UNL     1     -14.724  -6.779  15.790  0.00  0.00    -0.226 OA
ATOM     10  N   UNL     1     -15.167  -8.480  17.305  0.00  0.00    -0.277 N 
ATOM     18  C   UNL     1     -14.400  -7.808  16.376  0.00  0.00    +0.401 C 
ATOM     37  H   UNL     1     -14.777  -9.316  17.730  0.00  0.00    +0.152 HD
BRANCH  10  21
ATOM     21  C   UNL     1     -16.481  -8.051  17.722  0.00  0.00    +0.142 C 
BRANCH  21  24
ATOM     24  C   UNL     1     -16.474  -7.486  19.113  0.00  0.00    -0.030 A 
ATOM     30  C   UNL     1     -16.863  -6.165  19.332  0.00  0.00    +0.005 A 
ATOM     31  C   UNL     1     -16.079  -8.283  20.188  0.00  0.00    +0.005 A 
ATOM     33  C   UNL     1     -16.858  -5.640  20.625  0.00  0.00    +0.000 A 
ATOM     34  C   UNL     1     -16.073  -7.759  21.480  0.00  0.00    +0.000 A 
ATOM     35  C   UNL     1     -16.463  -6.437  21.699  0.00  0.00    +0.000 A 
ENDBRANCH  21  24
ENDBRANCH  10  21
ENDBRANCH   3  18
ENDBRANCH  14   3
TORSDOF 6
ENDMDL
MODEL 2
REMARK VINA RESULT:      -8.0      2.320      3.940
REMARK  Name = 11913105
REMARK  6 active torsions:
REMARK  status: ('A' for Active; 'I' for Inactive)
REMARK    1  A    between atoms: O_3  and  C_14
REMARK    2  A    between atoms: O_3  and  C_18
REMARK    3  A    between atoms: N_7  and  C_13
REMARK    4  A    between atoms: N_10  and  C_21
REMARK    5  A    between atoms: C_19  and  C_23
REMARK    6  A    between atoms: C_21  and  C_24
REMARK                            x       y       z     vdW  Elec       q    Type
REMARK                         _______ _______ _______ _____ _____    ______ ____
ROOT
ATOM      1  O   UNL     1     -11.073  -9.907  16.661  0.00  0.00    -0.368 OA
ATOM      2  O   UNL     1      -9.793  -7.188  16.043  0.00  0.00    -0.368 OA
ATOM     11  C   UNL     1      -9.727  -8.033  17.211  0.00  0.00    +0.173 C 
ATOM     12  C   UNL     1     -11.097  -8.660  17.377  0.00  0.00    +0.192 C 
ATOM     13  C   UNL     1      -8.816  -9.210  16.947  0.00  0.00    +0.130 C 
ATOM     14  C   UNL     1     -12.002  -7.652  16.711  0.00  0.00    +0.235 C 
ATOM     15  C   UNL     1      -9.734 -10.173  16.216  0.00  0.00    +0.185 C 
ATOM     16  C   UNL     1     -11.146  -7.164  15.564  0.00  0.00    +0.207 C 
ENDROOT
BRANCH  13   7
ATOM      7  N   UNL     1      -8.371  -9.791  18.196  0.00  0.00    -0.306 N 
ATOM      8  N   UNL     1      -6.265 -10.258  17.337  0.00  0.00    -0.214 NA
ATOM      9  N   UNL     1      -6.841 -10.814  19.611  0.00  0.00    -0.223 NA
ATOM     17  C   UNL     1      -7.103 -10.310  18.390  0.00  0.00    +0.216 A 
ATOM     19  C   UNL     1      -5.038 -10.774  17.562  0.00  0.00    +0.076 A 
ATOM     20  C   UNL     1      -5.596 -11.313  19.766  0.00  0.00    +0.116 A 
ATOM     22  C   UNL     1      -4.644 -11.319  18.766  0.00  0.00    +0.048 A 
ATOM     36  H   UNL     1      -8.990  -9.778  18.999  0.00  0.00    +0.149 HD
BRANCH  19  23
ATOM      5  O   UNL     1      -4.059 -10.582  12.771  0.00  0.00    -0.453 OA
ATOM      6  O   UNL     1      -1.679 -10.563  13.152  0.00  0.00    -0.453 OA
ATOM     23  C   UNL     1      -4.136 -10.719  16.437  0.00  0.00    +0.004 A 
ATOM     25  C   UNL     1      -4.649 -10.677  15.138  0.00  0.00    +0.059 A 
ATOM     26  C   UNL     1      -2.747 -10.709  16.658  0.00  0.00    +0.014 A 
ATOM     27  C   UNL     1      -3.747 -10.625  14.095  0.00  0.00    +0.167 A 
ATOM     28  C   UNL     1      -2.388 -10.615  14.312  0.00  0.00    +0.166 A 
ATOM     29  C   UNL     1      -1.856 -10.655  15.584  0.00  0.00    +0.050 A 
ATOM     32  C   UNL     1      -2.744 -10.542  12.179  0.00  0.00    +0.466 C 
ENDBRANCH  19  23
ENDBRANCH  13   7
BRANCH  14   3
ATOM      3  O   UNL     1     -13.224  -8.197  16.266  0.00  0.00    -0.442 OA
BRANCH   3  18
ATOM      4  O   UNL     1     -15.084  -6.958  16.794  0.00  0.00    -0.226 OA
ATOM     10  N   UNL     1     -14.137  -6.867  14.678  0.00  0.00    -0.277 N 
ATOM     18  C   UNL     1     -14.231  -7.304  15.982  0.00  0.00    +0.401 C 
ATOM     37  H   UNL     1     -13.389  -7.242  14.102  0.00  0.00    +0.152 HD
BRANCH  10  21
ATOM     21  C   UNL     1     -15.051  -5.922  14.080  0.00  0.00    +0.142 C 
BRANCH  21  24
ATOM     24  C   UNL     1     -14.352  -4.974  13.150  0.00  0.00    -0.030 A 
ATOM     30  C   UNL     1     -15.086  -4.248  12.212  0.00  0.00    +0.005 A 
ATOM     31  C   UNL     1     -12.968  -4.817  13.224  0.00  0.00    +0.005 A 
ATOM     33  C   UNL     1     -14.437  -3.365  11.349  0.00  0.00    +0.000 A 
ATOM     34  C   UNL     1     -12.319  -3.935  12.360  0.00  0.00    +0.000 A 
ATOM     35  C   UNL     1     -13.053  -3.209  11.422  0.00  0.00    +0.000 A 
ENDBRANCH  21  24
ENDBRANCH  10  21
ENDBRANCH   3  18
ENDBRANCH  14   3
TORSDOF 6
ENDMDL
MODEL 3
REMARK VINA RESULT:      -8.0      3.474     11.138
REMARK  Name = 11913105
REMARK  6 active torsions:
REMARK  status: ('A' for Active; 'I' for Inactive)
REMARK    1  A    between atoms: O_3  and  C_14
REMARK    2  A    between atoms: O_3  and  C_18
REMARK    3  A    between atoms: N_7  and  C_13
REMARK    4  A    between atoms: N_10  and  C_21
REMARK    5  A    between atoms: C_19  and  C_23
REMARK    6  A    between atoms: C_21  and  C_24
REMARK                            x       y       z     vdW  Elec       q    Type
REMARK                         _______ _______ _______ _____ _____    ______ ____
ROOT
ATOM      1  O   UNL     1      -5.639 -11.106  15.303  0.00  0.00    -0.368 OA
ATOM      2  O   UNL     1      -5.200 -10.756  18.320  0.00  0.00    -0.368 OA
ATOM     11  C   UNL     1      -5.737  -9.863  17.321  0.00  0.00    +0.173 C 
ATOM     12  C   UNL     1      -4.942 -10.095  16.052  0.00  0.00    +0.192 C 
ATOM     13  C   UNL     1      -7.142 -10.284  16.955  0.00  0.00    +0.130 C 
ATOM     14  C   UNL     1      -3.622 -10.601  16.580  0.00  0.00    +0.235 C 
ATOM     15  C   UNL     1      -6.896 -11.385  15.938  0.00  0.00    +0.185 C 
ATOM     16  C   UNL     1      -4.051 -11.421  17.776  0.00  0.00    +0.207 C 
ENDROOT
BRANCH  13   7
ATOM      7  N   UNL     1      -7.851  -9.182  16.339  0.00  0.00    -0.306 N 
ATOM      8  N   UNL     1      -9.746  -9.559  17.628  0.00  0.00    -0.214 NA
ATOM      9  N   UNL     1      -9.666  -7.772  16.013  0.00  0.00    -0.223 NA
ATOM     17  C   UNL     1      -9.144  -8.821  16.675  0.00  0.00    +0.216 A 
ATOM     19  C   UNL     1     -11.006  -9.180  17.930  0.00  0.00    +0.076 A 
ATOM     20  C   UNL     1     -10.928  -7.447  16.364  0.00  0.00    +0.116 A 
ATOM     22  C   UNL     1     -11.654  -8.122  17.326  0.00  0.00    +0.048 A 
ATOM     36  H   UNL     1      -7.373  -8.600  15.661  0.00  0.00    +0.149 HD
BRANCH  19  23
ATOM      5  O   UNL     1     -11.265 -13.006  20.969  0.00  0.00    -0.453 OA
ATOM      6  O   UNL     1     -13.390 -12.294  21.852  0.00  0.00    -0.453 OA
ATOM     23  C   UNL     1     -11.653  -9.966  18.951  0.00  0.00    +0.004 A 
ATOM     25  C   UNL     1     -11.044 -11.133  19.420  0.00  0.00    +0.059 A 
ATOM     26  C   UNL     1     -12.894  -9.551  19.468  0.00  0.00    +0.014 A 
ATOM     27  C   UNL     1     -11.701 -11.851  20.397  0.00  0.00    +0.167 A 
ATOM     28  C   UNL     1     -12.915 -11.444  20.902  0.00  0.00    +0.166 A 
ATOM     29  C   UNL     1     -13.538 -10.297  20.457  0.00  0.00    +0.050 A 
ATOM     32  C   UNL     1     -12.339 -13.281  21.891  0.00  0.00    +0.466 C 
ENDBRANCH  19  23
ENDBRANCH  13   7
BRANCH  14   3
ATOM      3  O   UNL     1      -2.896 -11.367  15.644  0.00  0.00    -0.442 OA
BRANCH   3  18
ATOM      4  O   UNL     1      -1.178  -9.946  15.092  0.00  0.00    -0.226 OA
ATOM     10  N   UNL     1      -2.515 -10.912  13.460  0.00  0.00    -0.277 N 
ATOM     18  C   UNL     1      -2.109 -10.672  14.755  0.00  0.00    +0.401 C 
ATOM     37  H   UNL     1      -3.311 -11.525  13.315  0.00  0.00    +0.152 HD
BRANCH  10  21
ATOM     21  C   UNL     1      -1.885 -10.326  12.300  0.00  0.00    +0.142 C 
BRANCH  21  24
ATOM     24  C   UNL     1      -2.787 -10.343  11.100  0.00  0.00    -0.030 A 
ATOM     30  C   UNL     1      -3.005  -9.173  10.374  0.00  0.00    +0.005 A 
ATOM     31  C   UNL     1      -3.406 -11.531  10.709  0.00  0.00    +0.005 A 
ATOM     33  C   UNL     1      -3.842  -9.189   9.258  0.00  0.00    +0.000 A 
ATOM     34  C   UNL     1      -4.243 -11.548   9.594  0.00  0.00    +0.000 A 
ATOM     35  C   UNL     1      -4.462 -10.376   8.868  0.00  0.00    +0.000 A 
ENDBRANCH  21  24
ENDBRANCH  10  21
ENDBRANCH   3  18
ENDBRANCH  14   3
TORSDOF 6
ENDMDL
MODEL 4
REMARK VINA RESULT:      -7.8      5.192      9.896
REMARK  Name = 11913105
REMARK  6 active torsions:
REMARK  status: ('A' for Active; 'I' for Inactive)
REMARK    1  A    between atoms: O_3  and  C_14
REMARK    2  A    between atoms: O_3  and  C_18
REMARK    3  A    between atoms: N_7  and  C_13
REMARK    4  A    between atoms: N_10  and  C_21
REMARK    5  A    between atoms: C_19  and  C_23
REMARK    6  A    between atoms: C_21  and  C_24
REMARK                            x       y       z     vdW  Elec       q    Type
REMARK                         _______ _______ _______ _____ _____    ______ ____
ROOT
ATOM      1  O   UNL     1      -4.180  -9.125   9.654  0.00  0.00    -0.368 OA
ATOM      2  O   UNL     1      -6.150 -11.377  10.337  0.00  0.00    -0.368 OA
ATOM     11  C   UNL     1      -4.741 -11.223  10.609  0.00  0.00    +0.173 C 
ATOM     12  C   UNL     1      -4.133 -10.540   9.400  0.00  0.00    +0.192 C 
ATOM     13  C   UNL     1      -4.536 -10.231  11.731  0.00  0.00    +0.130 C 
ATOM     14  C   UNL     1      -5.074 -10.940   8.289  0.00  0.00    +0.235 C 
ATOM     15  C   UNL     1      -4.613  -8.900  11.004  0.00  0.00    +0.185 C 
ATOM     16  C   UNL     1      -6.412 -10.947   8.993  0.00  0.00    +0.207 C 
ENDROOT
BRANCH  13   7
ATOM      7  N   UNL     1      -3.227 -10.405  12.322  0.00  0.00    -0.306 N 
ATOM      8  N   UNL     1      -4.105 -10.490  14.471  0.00  0.00    -0.214 NA
ATOM      9  N   UNL     1      -1.735 -10.693  14.078  0.00  0.00    -0.223 NA
ATOM     17  C   UNL     1      -3.013 -10.536  13.683  0.00  0.00    +0.216 A 
ATOM     19  C   UNL     1      -3.859 -10.619  15.791  0.00  0.00    +0.076 A 
ATOM     20  C   UNL     1      -1.562 -10.816  15.411  0.00  0.00    +0.116 A 
ATOM     22  C   UNL     1      -2.597 -10.786  16.324  0.00  0.00    +0.048 A 
ATOM     36  H   UNL     1      -2.416 -10.492  11.720  0.00  0.00    +0.149 HD
BRANCH  19  23
ATOM      5  O   UNL     1      -8.597  -9.729  16.630  0.00  0.00    -0.453 OA
ATOM      6  O   UNL     1      -8.420 -10.391  18.940  0.00  0.00    -0.453 OA
ATOM     23  C   UNL     1      -5.026 -10.572  16.638  0.00  0.00    +0.004 A 
ATOM     25  C   UNL     1      -6.248 -10.144  16.113  0.00  0.00    +0.059 A 
ATOM     26  C   UNL     1      -4.924 -10.958  17.987  0.00  0.00    +0.014 A 
ATOM     27  C   UNL     1      -7.336 -10.116  16.961  0.00  0.00    +0.167 A 
ATOM     28  C   UNL     1      -7.235 -10.495  18.280  0.00  0.00    +0.166 A 
ATOM     29  C   UNL     1      -6.041 -10.921  18.824  0.00  0.00    +0.050 A 
ATOM     32  C   UNL     1      -9.280  -9.906  17.888  0.00  0.00    +0.466 C 
ENDBRANCH  19  23
ENDBRANCH  13   7
BRANCH  14   3
ATOM      3  O   UNL     1      -5.057 -10.057   7.190  0.00  0.00    -0.442 OA
BRANCH   3  18
ATOM      4  O   UNL     1      -6.772 -10.947   5.947  0.00  0.00    -0.226 OA
ATOM     10  N   UNL     1      -6.636  -8.666   6.353  0.00  0.00    -0.277 N 
ATOM     18  C   UNL     1      -6.212  -9.975   6.446  0.00  0.00    +0.401 C 
ATOM     37  H   UNL     1      -6.074  -7.950   6.802  0.00  0.00    +0.152 HD
BRANCH  10  21
ATOM     21  C   UNL     1      -7.820  -8.256   5.636  0.00  0.00    +0.142 C 
BRANCH  21  24
ATOM     24  C   UNL     1      -8.719  -7.399   6.479  0.00  0.00    -0.030 A 
ATOM     30  C   UNL     1      -8.190  -6.666   7.541  0.00  0.00    +0.005 A 
ATOM     31  C   UNL     1     -10.085  -7.332   6.199  0.00  0.00    +0.005 A 
ATOM     33  C   UNL     1      -9.025  -5.868   8.323  0.00  0.00    +0.000 A 
ATOM     34  C   UNL     1     -10.919  -6.535   6.981  0.00  0.00    +0.000 A 
ATOM     35  C   UNL     1     -10.390  -5.803   8.044  0.00  0.00    +0.000 A 
ENDBRANCH  21  24
ENDBRANCH  10  21
ENDBRANCH   3  18
ENDBRANCH  14   3
TORSDOF 6
ENDMDL
MODEL 5
REMARK VINA RESULT:      -7.7     28.367     31.623
REMARK  Name = 11913105
REMARK  6 active torsions:
REMARK  status: ('A' for Active; 'I' for Inactive)
REMARK    1  A    between atoms: O_3  and  C_14
REMARK    2  A    between atoms: O_3  and  C_18
REMARK    3  A    between atoms: N_7  and  C_13
REMARK    4  A    between atoms: N_10  and  C_21
REMARK    5  A    between atoms: C_19  and  C_23
REMARK    6  A    between atoms: C_21  and  C_24
REMARK                            x       y       z     vdW  Elec       q    Type
REMARK                         _______ _______ _______ _____ _____    ______ ____
ROOT
ATOM      1  O   UNL     1      11.318  13.037  24.575  0.00  0.00    -0.368 OA
ATOM      2  O   UNL     1      14.097  12.283  23.515  0.00  0.00    -0.368 OA
ATOM     11  C   UNL     1      12.918  11.488  23.760  0.00  0.00    +0.173 C 
ATOM     12  C   UNL     1      12.264  12.045  25.009  0.00  0.00    +0.192 C 
ATOM     13  C   UNL     1      11.897  11.730  22.673  0.00  0.00    +0.130 C 
ATOM     14  C   UNL     1      13.429  12.666  25.740  0.00  0.00    +0.235 C 
ATOM     15  C   UNL     1      11.219  13.005  23.143  0.00  0.00    +0.185 C 
ATOM     16  C   UNL     1      14.268  13.204  24.603  0.00  0.00    +0.207 C 
ENDROOT
BRANCH  13   7
ATOM      7  N   UNL     1      10.943  10.642  22.628  0.00  0.00    -0.306 N 
ATOM      8  N   UNL     1      12.558   9.130  21.920  0.00  0.00    -0.214 NA
ATOM      9  N   UNL     1      10.273   8.449  22.267  0.00  0.00    -0.223 NA
ATOM     17  C   UNL     1      11.272   9.350  22.256  0.00  0.00    +0.216 A 
ATOM     19  C   UNL     1      12.843   7.861  21.561  0.00  0.00    +0.076 A 
ATOM     20  C   UNL     1      10.628   7.200  21.898  0.00  0.00    +0.116 A 
ATOM     22  C   UNL     1      11.910   6.845  21.531  0.00  0.00    +0.048 A 
ATOM     36  H   UNL     1       9.990  10.803  22.933  0.00  0.00    +0.149 HD
BRANCH  19  23
ATOM      5  O   UNL     1      16.339   5.645  18.951  0.00  0.00    -0.453 OA
ATOM      6  O   UNL     1      18.093   6.846  20.086  0.00  0.00    -0.453 OA
ATOM     23  C   UNL     1      14.219   7.621  21.201  0.00  0.00    +0.004 A 
ATOM     25  C   UNL     1      14.524   6.696  20.200  0.00  0.00    +0.059 A 
ATOM     26  C   UNL     1      15.244   8.322  21.864  0.00  0.00    +0.014 A 
ATOM     27  C   UNL     1      15.855   6.501  19.891  0.00  0.00    +0.167 A 
ATOM     28  C   UNL     1      16.857   7.187  20.539  0.00  0.00    +0.166 A 
ATOM     29  C   UNL     1      16.583   8.105  21.531  0.00  0.00    +0.050 A 
ATOM     32  C   UNL     1      17.758   5.868  19.079  0.00  0.00    +0.466 C 
ENDBRANCH  19  23
ENDBRANCH  13   7
BRANCH  14   3
ATOM      3  O   UNL     1      13.052  13.679  26.645  0.00  0.00    -0.442 OA
BRANCH   3  18
ATOM      4  O   UNL     1      14.212  14.964  28.155  0.00  0.00    -0.226 OA
ATOM     10  N   UNL     1      14.220  12.648  28.288  0.00  0.00    -0.277 N 
ATOM     18  C   UNL     1      13.865  13.863  27.740  0.00  0.00    +0.401 C 
ATOM     37  H   UNL     1      13.876  11.804  27.840  0.00  0.00    +0.152 HD
BRANCH  10  21
ATOM     21  C   UNL     1      15.068  12.508  29.448  0.00  0.00    +0.142 C 
BRANCH  21  24
ATOM     24  C   UNL     1      14.320  11.961  30.629  0.00  0.00    -0.030 A 
ATOM     30  C   UNL     1      14.481  10.626  31.000  0.00  0.00    +0.005 A 
ATOM     31  C   UNL     1      13.466  12.789  31.359  0.00  0.00    +0.005 A 
ATOM     33  C   UNL     1      13.787  10.118  32.099  0.00  0.00    +0.000 A 
ATOM     34  C   UNL     1      12.772  12.281  32.457  0.00  0.00    +0.000 A 
ATOM     35  C   UNL     1      12.932  10.945  32.827  0.00  0.00    +0.000 A 
ENDBRANCH  21  24
ENDBRANCH  10  21
ENDBRANCH   3  18
ENDBRANCH  14   3
TORSDOF 6
ENDMDL
MODEL 6
REMARK VINA RESULT:      -7.5      3.477      5.404
REMARK  Name = 11913105
REMARK  6 active torsions:
REMARK  status: ('A' for Active; 'I' for Inactive)
REMARK    1  A    between atoms: O_3  and  C_14
REMARK    2  A    between atoms: O_3  and  C_18
REMARK    3  A    between atoms: N_7  and  C_13
REMARK    4  A    between atoms: N_10  and  C_21
REMARK    5  A    between atoms: C_19  and  C_23
REMARK    6  A    between atoms: C_21  and  C_24
REMARK                            x       y       z     vdW  Elec       q    Type
REMARK                         _______ _______ _______ _____ _____    ______ ____
ROOT
ATOM      1  O   UNL     1     -11.548  -8.841  15.307  0.00  0.00    -0.368 OA
ATOM      2  O   UNL     1     -10.433  -6.059  15.965  0.00  0.00    -0.368 OA
ATOM     11  C   UNL     1     -10.723  -7.196  16.804  0.00  0.00    +0.173 C 
ATOM     12  C   UNL     1     -11.977  -7.843  16.249  0.00  0.00    +0.192 C 
ATOM     13  C   UNL     1      -9.658  -8.254  16.628  0.00  0.00    +0.130 C 
ATOM     14  C   UNL     1     -12.666  -6.688  15.565  0.00  0.00    +0.235 C 
ATOM     15  C   UNL     1     -10.120  -8.974  15.373  0.00  0.00    +0.185 C 
ATOM     16  C   UNL     1     -11.498  -5.900  15.016  0.00  0.00    +0.207 C 
ENDROOT
BRANCH  13   7
ATOM      7  N   UNL     1      -9.659  -9.160  17.756  0.00  0.00    -0.306 N 
ATOM      8  N   UNL     1      -7.542  -9.961  17.235  0.00  0.00    -0.214 NA
ATOM      9  N   UNL     1      -8.758 -10.790  19.143  0.00  0.00    -0.223 NA
ATOM     17  C   UNL     1      -8.607 -10.008  18.058  0.00  0.00    +0.216 A 
ATOM     19  C   UNL     1      -6.536 -10.800  17.559  0.00  0.00    +0.076 A 
ATOM     20  C   UNL     1      -7.715 -11.604  19.409  0.00  0.00    +0.116 A 
ATOM     22  C   UNL     1      -6.567 -11.652  18.644  0.00  0.00    +0.048 A 
ATOM     36  H   UNL     1     -10.441  -9.152  18.401  0.00  0.00    +0.149 HD
BRANCH  19  23
ATOM      5  O   UNL     1      -1.724 -10.672  16.677  0.00  0.00    -0.453 OA
ATOM      6  O   UNL     1      -2.057 -10.616  14.291  0.00  0.00    -0.453 OA
ATOM     23  C   UNL     1      -5.393 -10.753  16.680  0.00  0.00    +0.004 A 
ATOM     25  C   UNL     1      -4.103 -10.739  17.219  0.00  0.00    +0.059 A 
ATOM     26  C   UNL     1      -5.586 -10.720  15.287  0.00  0.00    +0.014 A 
ATOM     27  C   UNL     1      -3.042 -10.693  16.338  0.00  0.00    +0.167 A 
ATOM     28  C   UNL     1      -3.232 -10.662  14.976  0.00  0.00    +0.166 A 
ATOM     29  C   UNL     1      -4.493 -10.674  14.418  0.00  0.00    +0.050 A 
ATOM     32  C   UNL     1      -1.105 -10.623  15.375  0.00  0.00    +0.466 C 
ENDBRANCH  19  23
ENDBRANCH  13   7
BRANCH  14   3
ATOM      3  O   UNL     1     -13.561  -7.086  14.550  0.00  0.00    -0.442 OA
BRANCH   3  18
ATOM      4  O   UNL     1     -15.545  -5.930  14.507  0.00  0.00    -0.226 OA
ATOM     10  N   UNL     1     -13.821  -5.418  13.042  0.00  0.00    -0.277 N 
ATOM     18  C   UNL     1     -14.416  -6.121  14.068  0.00  0.00    +0.401 C 
ATOM     37  H   UNL     1     -12.882  -5.684  12.762  0.00  0.00    +0.152 HD
BRANCH  10  21
ATOM     21  C   UNL     1     -14.465  -4.339  12.330  0.00  0.00    +0.142 C 
BRANCH  21  24
ATOM     24  C   UNL     1     -13.694  -3.931  11.108  0.00  0.00    -0.030 A 
ATOM     30  C   UNL     1     -14.371  -3.552   9.950  0.00  0.00    +0.005 A 
ATOM     31  C   UNL     1     -12.298  -3.928  11.133  0.00  0.00    +0.005 A 
ATOM     33  C   UNL     1     -13.654  -3.171   8.815  0.00  0.00    +0.000 A 
ATOM     34  C   UNL     1     -11.582  -3.548   9.998  0.00  0.00    +0.000 A 
ATOM     35  C   UNL     1     -12.260  -3.169   8.839  0.00  0.00    +0.000 A 
ENDBRANCH  21  24
ENDBRANCH  10  21
ENDBRANCH   3  18
ENDBRANCH  14   3
TORSDOF 6
ENDMDL
MODEL 7
REMARK VINA RESULT:      -7.5     28.371     31.571
REMARK  Name = 11913105
REMARK  6 active torsions:
REMARK  status: ('A' for Active; 'I' for Inactive)
REMARK    1  A    between atoms: O_3  and  C_14
REMARK    2  A    between atoms: O_3  and  C_18
REMARK    3  A    between atoms: N_7  and  C_13
REMARK    4  A    between atoms: N_10  and  C_21
REMARK    5  A    between atoms: C_19  and  C_23
REMARK    6  A    between atoms: C_21  and  C_24
REMARK                            x       y       z     vdW  Elec       q    Type
REMARK                         _______ _______ _______ _____ _____    ______ ____
ROOT
ATOM      1  O   UNL     1      11.162  12.784  25.508  0.00  0.00    -0.368 OA
ATOM      2  O   UNL     1      13.290  13.195  23.336  0.00  0.00    -0.368 OA
ATOM     11  C   UNL     1      12.658  12.000  23.842  0.00  0.00    +0.173 C 
ATOM     12  C   UNL     1      12.466  12.203  25.332  0.00  0.00    +0.192 C 
ATOM     13  C   UNL     1      11.250  11.893  23.303  0.00  0.00    +0.130 C 
ATOM     14  C   UNL     1      13.564  13.180  25.674  0.00  0.00    +0.235 C 
ATOM     15  C   UNL     1      10.471  12.791  24.249  0.00  0.00    +0.185 C 
ATOM     16  C   UNL     1      13.608  14.054  24.440  0.00  0.00    +0.207 C 
ENDROOT
BRANCH  13   7
ATOM      7  N   UNL     1      10.776  10.529  23.402  0.00  0.00    -0.306 N 
ATOM      8  N   UNL     1      11.671   9.969  21.333  0.00  0.00    -0.214 NA
ATOM      9  N   UNL     1      10.486   8.347  22.664  0.00  0.00    -0.223 NA
ATOM     17  C   UNL     1      10.987   9.573  22.424  0.00  0.00    +0.216 A 
ATOM     19  C   UNL     1      11.858   9.012  20.400  0.00  0.00    +0.076 A 
ATOM     20  C   UNL     1      10.709   7.439  21.691  0.00  0.00    +0.116 A 
ATOM     22  C   UNL     1      11.395   7.718  20.526  0.00  0.00    +0.048 A 
ATOM     36  H   UNL     1      10.309  10.225  24.248  0.00  0.00    +0.149 HD
BRANCH  19  23
ATOM      5  O   UNL     1      13.710   8.287  15.929  0.00  0.00    -0.453 OA
ATOM      6  O   UNL     1      14.656  10.502  15.848  0.00  0.00    -0.453 OA
ATOM     23  C   UNL     1      12.591   9.431  19.231  0.00  0.00    +0.004 A 
ATOM     25  C   UNL     1      12.747   8.552  18.156  0.00  0.00    +0.059 A 
ATOM     26  C   UNL     1      13.144  10.724  19.183  0.00  0.00    +0.014 A 
ATOM     27  C   UNL     1      13.456   8.999  17.060  0.00  0.00    +0.167 A 
ATOM     28  C   UNL     1      13.996  10.264  17.014  0.00  0.00    +0.166 A 
ATOM     29  C   UNL     1      13.857  11.151  18.060  0.00  0.00    +0.050 A 
ATOM     32  C   UNL     1      14.470   9.245  15.165  0.00  0.00    +0.466 C 
ENDBRANCH  19  23
ENDBRANCH  13   7
BRANCH  14   3
ATOM      3  O   UNL     1      13.311  13.926  26.843  0.00  0.00    -0.442 OA
BRANCH   3  18
ATOM      4  O   UNL     1      15.120  14.754  27.992  0.00  0.00    -0.226 OA
ATOM     10  N   UNL     1      14.145  12.731  28.575  0.00  0.00    -0.277 N 
ATOM     18  C   UNL     1      14.274  13.880  27.825  0.00  0.00    +0.401 C 
ATOM     37  H   UNL     1      13.409  12.078  28.325  0.00  0.00    +0.152 HD
BRANCH  10  21
ATOM     21  C   UNL     1      15.009  12.394  29.682  0.00  0.00    +0.142 C 
BRANCH  21  24
ATOM     24  C   UNL     1      14.265  11.697  30.785  0.00  0.00    -0.030 A 
ATOM     30  C   UNL     1      14.401  10.320  30.957  0.00  0.00    +0.005 A 
ATOM     31  C   UNL     1      13.440  12.428  31.640  0.00  0.00    +0.005 A 
ATOM     33  C   UNL     1      13.712   9.673  31.982  0.00  0.00    +0.000 A 
ATOM     34  C   UNL     1      12.750  11.781  32.665  0.00  0.00    +0.000 A 
ATOM     35  C   UNL     1      12.886  10.403  32.836  0.00  0.00    +0.000 A 
ENDBRANCH  21  24
ENDBRANCH  10  21
ENDBRANCH   3  18
ENDBRANCH  14   3
TORSDOF 6
ENDMDL
MODEL 8
REMARK VINA RESULT:      -7.4      3.756      6.236
REMARK  Name = 11913105
REMARK  6 active torsions:
REMARK  status: ('A' for Active; 'I' for Inactive)
REMARK    1  A    between atoms: O_3  and  C_14
REMARK    2  A    between atoms: O_3  and  C_18
REMARK    3  A    between atoms: N_7  and  C_13
REMARK    4  A    between atoms: N_10  and  C_21
REMARK    5  A    between atoms: C_19  and  C_23
REMARK    6  A    between atoms: C_21  and  C_24
REMARK                            x       y       z     vdW  Elec       q    Type
REMARK                         _______ _______ _______ _____ _____    ______ ____
ROOT
ATOM      1  O   UNL     1     -13.051  -8.153  15.061  0.00  0.00    -0.368 OA
ATOM      2  O   UNL     1     -10.710  -6.193  15.365  0.00  0.00    -0.368 OA
ATOM     11  C   UNL     1     -11.447  -6.961  16.339  0.00  0.00    +0.173 C 
ATOM     12  C   UNL     1     -12.892  -6.982  15.879  0.00  0.00    +0.192 C 
ATOM     13  C   UNL     1     -11.024  -8.411  16.281  0.00  0.00    +0.130 C 
ATOM     14  C   UNL     1     -12.996  -5.714  15.067  0.00  0.00    +0.235 C 
ATOM     15  C   UNL     1     -11.855  -8.946  15.127  0.00  0.00    +0.185 C 
ATOM     16  C   UNL     1     -11.633  -5.642  14.414  0.00  0.00    +0.207 C 
ENDROOT
BRANCH  13   7
ATOM      7  N   UNL     1     -11.379  -9.087  17.510  0.00  0.00    -0.306 N 
ATOM      8  N   UNL     1      -9.227  -9.913  17.789  0.00  0.00    -0.214 NA
ATOM      9  N   UNL     1     -10.969 -10.398  19.382  0.00  0.00    -0.223 NA
ATOM     17  C   UNL     1     -10.486  -9.832  18.260  0.00  0.00    +0.216 A 
ATOM     19  C   UNL     1      -8.383 -10.648  18.544  0.00  0.00    +0.076 A 
ATOM     20  C   UNL     1     -10.072 -11.118  20.088  0.00  0.00    +0.116 A 
ATOM     22  C   UNL     1      -8.753 -11.279  19.714  0.00  0.00    +0.048 A 
ATOM     36  H   UNL     1     -12.315  -8.978  17.886  0.00  0.00    +0.149 HD
BRANCH  19  23
ATOM      5  O   UNL     1      -5.043 -10.458  14.973  0.00  0.00    -0.453 OA
ATOM      6  O   UNL     1      -3.240 -10.961  16.490  0.00  0.00    -0.453 OA
ATOM     23  C   UNL     1      -7.033 -10.736  18.043  0.00  0.00    +0.004 A 
ATOM     25  C   UNL     1      -6.782 -10.530  16.684  0.00  0.00    +0.059 A 
ATOM     26  C   UNL     1      -5.980 -11.030  18.928  0.00  0.00    +0.014 A 
ATOM     27  C   UNL     1      -5.475 -10.625  16.252  0.00  0.00    +0.167 A 
ATOM     28  C   UNL     1      -4.445 -10.912  17.119  0.00  0.00    +0.166 A 
ATOM     29  C   UNL     1      -4.665 -11.119  18.464  0.00  0.00    +0.050 A 
ATOM     32  C   UNL     1      -3.625 -10.672  15.130  0.00  0.00    +0.466 C 
ENDBRANCH  19  23
ENDBRANCH  13   7
BRANCH  14   3
ATOM      3  O   UNL     1     -14.038  -5.736  14.117  0.00  0.00    -0.442 OA
BRANCH   3  18
ATOM      4  O   UNL     1     -13.862  -3.594  13.309  0.00  0.00    -0.226 OA
ATOM     10  N   UNL     1     -14.059  -5.408  11.877  0.00  0.00    -0.277 N 
ATOM     18  C   UNL     1     -13.976  -4.799  13.111  0.00  0.00    +0.401 C 
ATOM     37  H   UNL     1     -14.165  -6.418  11.849  0.00  0.00    +0.152 HD
BRANCH  10  21
ATOM     21  C   UNL     1     -14.022  -4.691  10.624  0.00  0.00    +0.142 C 
BRANCH  21  24
ATOM     24  C   UNL     1     -12.657  -4.717  10.001  0.00  0.00    -0.030 A 
ATOM     30  C   UNL     1     -12.085  -5.933   9.625  0.00  0.00    +0.005 A 
ATOM     31  C   UNL     1     -11.961  -3.526   9.794  0.00  0.00    +0.005 A 
ATOM     33  C   UNL     1     -10.816  -5.957   9.044  0.00  0.00    +0.000 A 
ATOM     34  C   UNL     1     -10.693  -3.550   9.213  0.00  0.00    +0.000 A 
ATOM     35  C   UNL     1     -10.120  -4.766   8.838  0.00  0.00    +0.000 A 
ENDBRANCH  21  24
ENDBRANCH  10  21
ENDBRANCH   3  18
ENDBRANCH  14   3
TORSDOF 6
ENDMDL
MODEL 9
REMARK VINA RESULT:      -7.3      1.308      1.993
REMARK  Name = 11913105
REMARK  6 active torsions:
REMARK  status: ('A' for Active; 'I' for Inactive)
REMARK    1  A    between atoms: O_3  and  C_14
REMARK    2  A    between atoms: O_3  and  C_18
REMARK    3  A    between atoms: N_7  and  C_13
REMARK    4  A    between atoms: N_10  and  C_21
REMARK    5  A    between atoms: C_19  and  C_23
REMARK    6  A    between atoms: C_21  and  C_24
REMARK                            x       y       z     vdW  Elec       q    Type
REMARK                         _______ _______ _______ _____ _____    ______ ____
ROOT
ATOM      1  O   UNL     1     -11.714  -9.142  15.771  0.00  0.00    -0.368 OA
ATOM      2  O   UNL     1     -10.567  -6.326  16.187  0.00  0.00    -0.368 OA
ATOM     11  C   UNL     1     -10.771  -7.421  17.104  0.00  0.00    +0.173 C 
ATOM     12  C   UNL     1     -12.064  -8.100  16.698  0.00  0.00    +0.192 C 
ATOM     13  C   UNL     1      -9.717  -8.482  16.885  0.00  0.00    +0.130 C 
ATOM     14  C   UNL     1     -12.822  -6.983  16.022  0.00  0.00    +0.235 C 
ATOM     15  C   UNL     1     -10.284  -9.265  15.714  0.00  0.00    +0.185 C 
ATOM     16  C   UNL     1     -11.715  -6.219  15.331  0.00  0.00    +0.207 C 
ENDROOT
BRANCH  13   7
ATOM      7  N   UNL     1      -9.609  -9.331  18.052  0.00  0.00    -0.306 N 
ATOM      8  N   UNL     1      -7.497 -10.074  17.432  0.00  0.00    -0.214 NA
ATOM      9  N   UNL     1      -8.556 -10.854  19.452  0.00  0.00    -0.223 NA
ATOM     17  C   UNL     1      -8.506 -10.121  18.325  0.00  0.00    +0.216 A 
ATOM     19  C   UNL     1      -6.439 -10.856  17.729  0.00  0.00    +0.076 A 
ATOM     20  C   UNL     1      -7.464 -11.613  19.687  0.00  0.00    +0.116 A 
ATOM     22  C   UNL     1      -6.365 -11.654  18.852  0.00  0.00    +0.048 A 
ATOM     36  H   UNL     1     -10.349  -9.321  18.745  0.00  0.00    +0.149 HD
BRANCH  19  23
ATOM      5  O   UNL     1      -1.696 -10.766  16.530  0.00  0.00    -0.453 OA
ATOM      6  O   UNL     1      -2.186 -10.671  14.172  0.00  0.00    -0.453 OA
ATOM     23  C   UNL     1      -5.356 -10.808  16.777  0.00  0.00    +0.004 A 
ATOM     25  C   UNL     1      -4.034 -10.816  17.228  0.00  0.00    +0.059 A 
ATOM     26  C   UNL     1      -5.642 -10.753  15.400  0.00  0.00    +0.014 A 
ATOM     27  C   UNL     1      -3.033 -10.768  16.279  0.00  0.00    +0.167 A 
ATOM     28  C   UNL     1      -3.313 -10.715  14.933  0.00  0.00    +0.166 A 
ATOM     29  C   UNL     1      -4.609 -10.705  14.461  0.00  0.00    +0.050 A 
ATOM     32  C   UNL     1      -1.164 -10.705  15.190  0.00  0.00    +0.466 C 
ENDBRANCH  19  23
ENDBRANCH  13   7
BRANCH  14   3
ATOM      3  O   UNL     1     -13.801  -7.434  15.113  0.00  0.00    -0.442 OA
BRANCH   3  18
ATOM      4  O   UNL     1     -15.535  -8.883  15.529  0.00  0.00    -0.226 OA
ATOM     10  N   UNL     1     -15.578  -6.697  16.308  0.00  0.00    -0.277 N 
ATOM     18  C   UNL     1     -15.026  -7.772  15.643  0.00  0.00    +0.401 C 
ATOM     37  H   UNL     1     -15.059  -5.825  16.318  0.00  0.00    +0.152 HD
BRANCH  10  21
ATOM     21  C   UNL     1     -16.859  -6.737  16.972  0.00  0.00    +0.142 C 
BRANCH  21  24
ATOM     24  C   UNL     1     -16.723  -6.654  18.465  0.00  0.00    -0.030 A 
ATOM     30  C   UNL     1     -16.476  -7.807  19.208  0.00  0.00    +0.005 A 
ATOM     31  C   UNL     1     -16.841  -5.422  19.108  0.00  0.00    +0.005 A 
ATOM     33  C   UNL     1     -16.347  -7.730  20.595  0.00  0.00    +0.000 A 
ATOM     34  C   UNL     1     -16.713  -5.344  20.495  0.00  0.00    +0.000 A 
ATOM     35  C   UNL     1     -16.466  -6.498  21.239  0.00  0.00    +0.000 A 
ENDBRANCH  21  24
ENDBRANCH  10  21
ENDBRANCH   3  18
ENDBRANCH  14   3
TORSDOF 6
ENDMDL
MODEL 10
REMARK VINA RESULT:      -7.3      5.793     11.724
REMARK  Name = 11913105
REMARK  6 active torsions:
REMARK  status: ('A' for Active; 'I' for Inactive)
REMARK    1  A    between atoms: O_3  and  C_14
REMARK    2  A    between atoms: O_3  and  C_18
REMARK    3  A    between atoms: N_7  and  C_13
REMARK    4  A    between atoms: N_10  and  C_21
REMARK    5  A    between atoms: C_19  and  C_23
REMARK    6  A    between atoms: C_21  and  C_24
REMARK                            x       y       z     vdW  Elec       q    Type
REMARK                         _______ _______ _______ _____ _____    ______ ____
ROOT
ATOM      1  O   UNL     1      -5.826  -9.560  10.362  0.00  0.00    -0.368 OA
ATOM      2  O   UNL     1      -6.561 -12.497  10.864  0.00  0.00    -0.368 OA
ATOM     11  C   UNL     1      -5.290 -11.812  10.879  0.00  0.00    +0.173 C 
ATOM     12  C   UNL     1      -5.336 -10.777   9.773  0.00  0.00    +0.192 C 
ATOM     13  C   UNL     1      -5.161 -10.993  12.143  0.00  0.00    +0.130 C 
ATOM     14  C   UNL     1      -6.332 -11.372   8.808  0.00  0.00    +0.235 C 
ATOM     15  C   UNL     1      -5.918  -9.725  11.786  0.00  0.00    +0.185 C 
ATOM     16  C   UNL     1      -7.323 -12.031   9.741  0.00  0.00    +0.207 C 
ENDROOT
BRANCH  13   7
ATOM      7  N   UNL     1      -3.770 -10.689  12.404  0.00  0.00    -0.306 N 
ATOM      8  N   UNL     1      -4.073 -10.829  14.702  0.00  0.00    -0.214 NA
ATOM      9  N   UNL     1      -1.917 -10.319  13.754  0.00  0.00    -0.223 NA
ATOM     17  C   UNL     1      -3.230 -10.609  13.676  0.00  0.00    +0.216 A 
ATOM     19  C   UNL     1      -3.513 -10.743  15.927  0.00  0.00    +0.076 A 
ATOM     20  C   UNL     1      -1.423 -10.249  15.008  0.00  0.00    +0.116 A 
ATOM     22  C   UNL     1      -2.182 -10.453  16.143  0.00  0.00    +0.048 A 
ATOM     36  H   UNL     1      -3.130 -10.577  11.625  0.00  0.00    +0.149 HD
BRANCH  19  23
ATOM      5  O   UNL     1      -7.897 -10.528  18.092  0.00  0.00    -0.453 OA
ATOM      6  O   UNL     1      -7.076 -11.591  20.093  0.00  0.00    -0.453 OA
ATOM     23  C   UNL     1      -4.414 -10.979  17.029  0.00  0.00    +0.004 A 
ATOM     25  C   UNL     1      -5.752 -10.589  16.929  0.00  0.00    +0.059 A 
ATOM     26  C   UNL     1      -3.936 -11.599  18.198  0.00  0.00    +0.014 A 
ATOM     27  C   UNL     1      -6.574 -10.836  18.009  0.00  0.00    +0.167 A 
ATOM     28  C   UNL     1      -6.106 -11.444  19.151  0.00  0.00    +0.166 A 
ATOM     29  C   UNL     1      -4.790 -11.838  19.277  0.00  0.00    +0.050 A 
ATOM     32  C   UNL     1      -8.209 -11.009  19.415  0.00  0.00    +0.466 C 
ENDBRANCH  19  23
ENDBRANCH  13   7
BRANCH  14   3
ATOM      3  O   UNL     1      -6.946 -10.417   7.972  0.00  0.00    -0.442 OA
BRANCH   3  18
ATOM      4  O   UNL     1      -6.431  -9.184   6.103  0.00  0.00    -0.226 OA
ATOM     10  N   UNL     1      -5.791 -11.406   6.294  0.00  0.00    -0.277 N 
ATOM     18  C   UNL     1      -6.390 -10.241   6.725  0.00  0.00    +0.401 C 
ATOM     37  H   UNL     1      -5.838 -12.219   6.900  0.00  0.00    +0.152 HD
BRANCH  10  21
ATOM     21  C   UNL     1      -5.119 -11.539   5.023  0.00  0.00    +0.142 C 
BRANCH  21  24
ATOM     24  C   UNL     1      -4.012 -12.552   5.075  0.00  0.00    -0.030 A 
ATOM     30  C   UNL     1      -3.049 -12.586   4.066  0.00  0.00    +0.005 A 
ATOM     31  C   UNL     1      -3.943 -13.457   6.134  0.00  0.00    +0.005 A 
ATOM     33  C   UNL     1      -2.019 -13.526   4.116  0.00  0.00    +0.000 A 
ATOM     34  C   UNL     1      -2.914 -14.397   6.183  0.00  0.00    +0.000 A 
ATOM     35  C   UNL     1      -1.952 -14.431   5.174  0.00  0.00    +0.000 A 
ENDBRANCH  21  24
ENDBRANCH  10  21
ENDBRANCH   3  18
ENDBRANCH  14   3
TORSDOF 6
ENDMDL
