MODEL 1
REMARK VINA RESULT:      -6.7      0.000      0.000
REMARK  Name = 51137788
REMARK  9 active torsions:
REMARK  status: ('A' for Active; 'I' for Inactive)
REMARK    1  A    between atoms: O_3  and  C_20
REMARK    2  A    between atoms: O_3  and  C_28
REMARK    3  A    between atoms: O_4  and  C_22
REMARK    4  A    between atoms: O_4  and  C_29
REMARK    5  A    between atoms: O_5  and  C_27
REMARK    6  A    between atoms: O_5  and  C_30
REMARK    7  A    between atoms: C_9  and  C_13
REMARK    8  A    between atoms: C_14  and  C_15
REMARK    9  A    between atoms: C_16  and  C_19
REMARK                            x       y       z     vdW  Elec       q    Type
REMARK                         _______ _______ _______ _____ _____    ______ ____
ROOT
ATOM      2  O   UNL     1      14.276  10.430  23.001  0.00  0.00    -0.270 OA
ATOM      6  N   UNL     1      12.740   9.178  21.791  0.00  0.00    -0.297 N 
ATOM      9  C   UNL     1      11.696   7.767  20.183  0.00  0.00    +0.095 C 
ATOM     10  C   UNL     1      12.673   6.943  21.037  0.00  0.00    +0.033 C 
ATOM     11  C   UNL     1      11.484   9.012  21.056  0.00  0.00    +0.121 C 
ATOM     12  C   UNL     1      13.573   7.991  21.678  0.00  0.00    +0.109 C 
ATOM     14  C   UNL     1      13.180  10.311  22.458  0.00  0.00    +0.247 C 
ENDROOT
BRANCH  14  15
ATOM     15  C   UNL     1      12.270  11.467  22.506  0.00  0.00    +0.041 A 
ATOM     17  C   UNL     1      11.541  11.734  23.664  0.00  0.00    +0.062 A 
ATOM     18  C   UNL     1      12.136  12.295  21.390  0.00  0.00    +0.017 A 
ATOM     20  C   UNL     1      10.678  12.829  23.708  0.00  0.00    +0.162 A 
ATOM     21  C   UNL     1      11.273  13.389  21.435  0.00  0.00    +0.050 A 
ATOM     22  C   UNL     1      10.545  13.657  22.594  0.00  0.00    +0.162 A 
BRANCH  20   3
ATOM      3  O   UNL     1       9.971  13.080  24.846  0.00  0.00    -0.491 OA
ATOM     28  C   UNL     1      10.631  13.830  25.865  0.00  0.00    +0.277 C 
ENDBRANCH  20   3
BRANCH  22   4
ATOM      4  O   UNL     1       9.705  14.729  22.624  0.00  0.00    -0.491 OA
ATOM     29  C   UNL     1       8.799  14.873  21.533  0.00  0.00    +0.277 C 
ENDBRANCH  22   4
ENDBRANCH  14  15
BRANCH   9  13
ATOM      1  O   UNL     1      12.885   9.180  18.565  0.00  0.00    -0.420 OA
ATOM      7  N   UNL     1      12.177   7.232  17.723  0.00  0.00    -0.112 NA
ATOM      8  N   UNL     1      12.824   7.922  16.715  0.00  0.00    -0.107 NA
ATOM     13  C   UNL     1      12.237   8.003  18.784  0.00  0.00    +0.222 A 
ATOM     16  C   UNL     1      13.221   9.053  17.252  0.00  0.00    +0.248 A 
BRANCH  16  19
ATOM     19  C   UNL     1      13.939  10.154  16.679  0.00  0.00    +0.039 A 
ATOM     23  C   UNL     1      13.958  11.389  17.328  0.00  0.00    +0.017 A 
ATOM     24  C   UNL     1      14.619   9.991  15.472  0.00  0.00    +0.017 A 
ATOM     25  C   UNL     1      14.655  12.459  16.770  0.00  0.00    +0.046 A 
ATOM     26  C   UNL     1      15.317  11.062  14.913  0.00  0.00    +0.046 A 
ATOM     27  C   UNL     1      15.336  12.296  15.563  0.00  0.00    +0.120 A 
BRANCH  27   5
ATOM      5  O   UNL     1      16.019  13.340  15.020  0.00  0.00    -0.495 OA
ATOM     30  C   UNL     1      16.515  13.171  13.692  0.00  0.00    +0.277 C 
ENDBRANCH  27   5
ENDBRANCH  16  19
ENDBRANCH   9  13
TORSDOF 6
ENDMDL
MODEL 2
REMARK VINA RESULT:      -6.7     27.935     30.121
REMARK  Name = 51137788
REMARK  9 active torsions:
REMARK  status: ('A' for Active; 'I' for Inactive)
REMARK    1  A    between atoms: O_3  and  C_20
REMARK    2  A    between atoms: O_3  and  C_28
REMARK    3  A    between atoms: O_4  and  C_22
REMARK    4  A    between atoms: O_4  and  C_29
REMARK    5  A    between atoms: O_5  and  C_27
REMARK    6  A    between atoms: O_5  and  C_30
REMARK    7  A    between atoms: C_9  and  C_13
REMARK    8  A    between atoms: C_14  and  C_15
REMARK    9  A    between atoms: C_16  and  C_19
REMARK                            x       y       z     vdW  Elec       q    Type
REMARK                         _______ _______ _______ _____ _____    ______ ____
ROOT
ATOM      2  O   UNL     1      -4.495 -14.025  15.512  0.00  0.00    -0.270 OA
ATOM      6  N   UNL     1      -4.624 -12.216  16.962  0.00  0.00    -0.297 N 
ATOM      9  C   UNL     1      -5.246 -10.719  18.705  0.00  0.00    +0.095 C 
ATOM     10  C   UNL     1      -4.633 -11.991  19.311  0.00  0.00    +0.033 C 
ATOM     11  C   UNL     1      -4.748 -10.787  17.254  0.00  0.00    +0.121 C 
ATOM     12  C   UNL     1      -4.706 -13.008  18.179  0.00  0.00    +0.109 C 
ATOM     14  C   UNL     1      -4.524 -12.813  15.715  0.00  0.00    +0.247 C 
ENDROOT
BRANCH  14  15
ATOM     15  C   UNL     1      -4.463 -11.928  14.541  0.00  0.00    +0.041 A 
ATOM     17  C   UNL     1      -5.621 -11.644  13.820  0.00  0.00    +0.062 A 
ATOM     18  C   UNL     1      -3.243 -11.374  14.149  0.00  0.00    +0.017 A 
ATOM     20  C   UNL     1      -5.563 -10.806  12.707  0.00  0.00    +0.162 A 
ATOM     21  C   UNL     1      -3.185 -10.536  13.036  0.00  0.00    +0.050 A 
ATOM     22  C   UNL     1      -4.344 -10.251  12.315  0.00  0.00    +0.162 A 
BRANCH  20   3
ATOM      3  O   UNL     1      -6.702 -10.535  12.010  0.00  0.00    -0.491 OA
ATOM     28  C   UNL     1      -7.589  -9.568  12.570  0.00  0.00    +0.277 C 
ENDBRANCH  20   3
BRANCH  22   4
ATOM      4  O   UNL     1      -4.273  -9.431  11.229  0.00  0.00    -0.491 OA
ATOM     29  C   UNL     1      -3.072  -9.473  10.463  0.00  0.00    +0.277 C 
ENDBRANCH  22   4
ENDBRANCH  14  15
BRANCH   9  13
ATOM      1  O   UNL     1      -7.455  -9.835  18.095  0.00  0.00    -0.420 OA
ATOM      7  N   UNL     1      -7.502 -11.331  19.758  0.00  0.00    -0.112 NA
ATOM      8  N   UNL     1      -8.799 -10.919  19.518  0.00  0.00    -0.107 NA
ATOM     13  C   UNL     1      -6.751 -10.674  18.905  0.00  0.00    +0.222 A 
ATOM     16  C   UNL     1      -8.724 -10.046  18.540  0.00  0.00    +0.248 A 
BRANCH  16  19
ATOM     19  C   UNL     1      -9.752  -9.296  17.881  0.00  0.00    +0.039 A 
ATOM     23  C   UNL     1      -9.425  -8.146  17.160  0.00  0.00    +0.017 A 
ATOM     24  C   UNL     1     -11.081  -9.714  17.959  0.00  0.00    +0.017 A 
ATOM     25  C   UNL     1     -10.426  -7.416  16.520  0.00  0.00    +0.046 A 
ATOM     26  C   UNL     1     -12.082  -8.984  17.318  0.00  0.00    +0.046 A 
ATOM     27  C   UNL     1     -11.754  -7.835  16.598  0.00  0.00    +0.120 A 
BRANCH  27   5
ATOM      5  O   UNL     1     -12.730  -7.124  15.971  0.00  0.00    -0.495 OA
ATOM     30  C   UNL     1     -12.318  -5.988  15.210  0.00  0.00    +0.277 C 
ENDBRANCH  27   5
ENDBRANCH  16  19
ENDBRANCH   9  13
TORSDOF 6
ENDMDL
MODEL 3
REMARK VINA RESULT:      -6.6      3.580      5.316
REMARK  Name = 51137788
REMARK  9 active torsions:
REMARK  status: ('A' for Active; 'I' for Inactive)
REMARK    1  A    between atoms: O_3  and  C_20
REMARK    2  A    between atoms: O_3  and  C_28
REMARK    3  A    between atoms: O_4  and  C_22
REMARK    4  A    between atoms: O_4  and  C_29
REMARK    5  A    between atoms: O_5  and  C_27
REMARK    6  A    between atoms: O_5  and  C_30
REMARK    7  A    between atoms: C_9  and  C_13
REMARK    8  A    between atoms: C_14  and  C_15
REMARK    9  A    between atoms: C_16  and  C_19
REMARK                            x       y       z     vdW  Elec       q    Type
REMARK                         _______ _______ _______ _____ _____    ______ ____
ROOT
ATOM      2  O   UNL     1      10.353   9.407  22.343  0.00  0.00    -0.270 OA
ATOM      6  N   UNL     1      11.692   9.628  20.459  0.00  0.00    -0.297 N 
ATOM      9  C   UNL     1      13.143   9.208  18.620  0.00  0.00    +0.095 C 
ATOM     10  C   UNL     1      11.786   8.529  18.373  0.00  0.00    +0.033 C 
ATOM     11  C   UNL     1      12.791  10.234  19.706  0.00  0.00    +0.121 C 
ATOM     12  C   UNL     1      11.146   8.480  19.754  0.00  0.00    +0.109 C 
ATOM     14  C   UNL     1      11.234   9.992  21.716  0.00  0.00    +0.247 C 
ENDROOT
BRANCH  14  15
ATOM     15  C   UNL     1      11.860  11.160  22.355  0.00  0.00    +0.041 A 
ATOM     17  C   UNL     1      13.027  11.005  23.102  0.00  0.00    +0.062 A 
ATOM     18  C   UNL     1      11.284  12.423  22.215  0.00  0.00    +0.017 A 
ATOM     20  C   UNL     1      13.619  12.112  23.709  0.00  0.00    +0.162 A 
ATOM     21  C   UNL     1      11.876  13.530  22.822  0.00  0.00    +0.050 A 
ATOM     22  C   UNL     1      13.045  13.375  23.568  0.00  0.00    +0.162 A 
BRANCH  20   3
ATOM      3  O   UNL     1      14.760  11.948  24.436  0.00  0.00    -0.491 OA
ATOM     28  C   UNL     1      14.610  11.508  25.786  0.00  0.00    +0.277 C 
ENDBRANCH  20   3
BRANCH  22   4
ATOM      4  O   UNL     1      13.613  14.464  24.157  0.00  0.00    -0.491 OA
ATOM     29  C   UNL     1      13.024  14.926  25.370  0.00  0.00    +0.277 C 
ENDBRANCH  22   4
ENDBRANCH  14  15
BRANCH   9  13
ATOM      1  O   UNL     1      15.258   8.636  19.730  0.00  0.00    -0.420 OA
ATOM      7  N   UNL     1      14.315   6.927  18.636  0.00  0.00    -0.112 NA
ATOM      8  N   UNL     1      15.487   6.472  19.209  0.00  0.00    -0.107 NA
ATOM     13  C   UNL     1      14.221   8.195  18.966  0.00  0.00    +0.222 A 
ATOM     16  C   UNL     1      16.004   7.503  19.838  0.00  0.00    +0.248 A 
BRANCH  16  19
ATOM     19  C   UNL     1      17.210   7.617  20.605  0.00  0.00    +0.039 A 
ATOM     23  C   UNL     1      18.063   6.519  20.732  0.00  0.00    +0.017 A 
ATOM     24  C   UNL     1      17.532   8.825  21.224  0.00  0.00    +0.017 A 
ATOM     25  C   UNL     1      19.235   6.630  21.478  0.00  0.00    +0.046 A 
ATOM     26  C   UNL     1      18.705   8.935  21.971  0.00  0.00    +0.046 A 
ATOM     27  C   UNL     1      19.557   7.838  22.097  0.00  0.00    +0.120 A 
BRANCH  27   5
ATOM      5  O   UNL     1      20.703   7.947  22.823  0.00  0.00    -0.495 OA
ATOM     30  C   UNL     1      21.026   6.861  23.691  0.00  0.00    +0.277 C 
ENDBRANCH  27   5
ENDBRANCH  16  19
ENDBRANCH   9  13
TORSDOF 6
ENDMDL
MODEL 4
REMARK VINA RESULT:      -6.4     27.695     30.240
REMARK  Name = 51137788
REMARK  9 active torsions:
REMARK  status: ('A' for Active; 'I' for Inactive)
REMARK    1  A    between atoms: O_3  and  C_20
REMARK    2  A    between atoms: O_3  and  C_28
REMARK    3  A    between atoms: O_4  and  C_22
REMARK    4  A    between atoms: O_4  and  C_29
REMARK    5  A    between atoms: O_5  and  C_27
REMARK    6  A    between atoms: O_5  and  C_30
REMARK    7  A    between atoms: C_9  and  C_13
REMARK    8  A    between atoms: C_14  and  C_15
REMARK    9  A    between atoms: C_16  and  C_19
REMARK                            x       y       z     vdW  Elec       q    Type
REMARK                         _______ _______ _______ _____ _____    ______ ____
ROOT
ATOM      2  O   UNL     1      -5.028 -13.657  14.789  0.00  0.00    -0.270 OA
ATOM      6  N   UNL     1      -4.912 -11.996  16.407  0.00  0.00    -0.297 N 
ATOM      9  C   UNL     1      -5.247 -10.672  18.357  0.00  0.00    +0.095 C 
ATOM     10  C   UNL     1      -4.577 -12.000  18.743  0.00  0.00    +0.033 C 
ATOM     11  C   UNL     1      -4.965 -10.601  16.849  0.00  0.00    +0.121 C 
ATOM     12  C   UNL     1      -4.832 -12.901  17.543  0.00  0.00    +0.109 C 
ATOM     14  C   UNL     1      -5.004 -12.470  15.108  0.00  0.00    +0.247 C 
ENDROOT
BRANCH  14  15
ATOM     15  C   UNL     1      -5.096 -11.476  14.028  0.00  0.00    +0.041 A 
ATOM     17  C   UNL     1      -3.969 -11.163  13.269  0.00  0.00    +0.062 A 
ATOM     18  C   UNL     1      -6.312 -10.844  13.763  0.00  0.00    +0.017 A 
ATOM     20  C   UNL     1      -4.056 -10.219  12.246  0.00  0.00    +0.162 A 
ATOM     21  C   UNL     1      -6.399  -9.901  12.740  0.00  0.00    +0.050 A 
ATOM     22  C   UNL     1      -5.272  -9.588  11.980  0.00  0.00    +0.162 A 
BRANCH  20   3
ATOM      3  O   UNL     1      -2.948  -9.922  11.510  0.00  0.00    -0.491 OA
ATOM     28  C   UNL     1      -1.731 -10.565  11.886  0.00  0.00    +0.277 C 
ENDBRANCH  20   3
BRANCH  22   4
ATOM      4  O   UNL     1      -5.371  -8.664  10.984  0.00  0.00    -0.491 OA
ATOM     29  C   UNL     1      -6.408  -8.853  10.026  0.00  0.00    +0.277 C 
ENDBRANCH  22   4
ENDBRANCH  14  15
BRANCH   9  13
ATOM      1  O   UNL     1      -7.567  -9.972  17.960  0.00  0.00    -0.420 OA
ATOM      7  N   UNL     1      -7.285 -11.162  19.833  0.00  0.00    -0.112 NA
ATOM      8  N   UNL     1      -8.624 -10.837  19.732  0.00  0.00    -0.107 NA
ATOM     13  C   UNL     1      -6.706 -10.638  18.777  0.00  0.00    +0.222 A 
ATOM     16  C   UNL     1      -8.743 -10.142  18.623  0.00  0.00    +0.248 A 
BRANCH  16  19
ATOM     19  C   UNL     1      -9.898  -9.547  18.017  0.00  0.00    +0.039 A 
ATOM     23  C   UNL     1     -11.145 -10.163  18.136  0.00  0.00    +0.017 A 
ATOM     24  C   UNL     1      -9.776  -8.351  17.309  0.00  0.00    +0.017 A 
ATOM     25  C   UNL     1     -12.267  -9.583  17.546  0.00  0.00    +0.046 A 
ATOM     26  C   UNL     1     -10.900  -7.771  16.719  0.00  0.00    +0.046 A 
ATOM     27  C   UNL     1     -12.145  -8.387  16.838  0.00  0.00    +0.120 A 
BRANCH  27   5
ATOM      5  O   UNL     1     -13.242  -7.821  16.265  0.00  0.00    -0.495 OA
ATOM     30  C   UNL     1     -13.066  -6.545  15.650  0.00  0.00    +0.277 C 
ENDBRANCH  27   5
ENDBRANCH  16  19
ENDBRANCH   9  13
TORSDOF 6
ENDMDL
MODEL 5
REMARK VINA RESULT:      -6.2     29.766     31.201
REMARK  Name = 51137788
REMARK  9 active torsions:
REMARK  status: ('A' for Active; 'I' for Inactive)
REMARK    1  A    between atoms: O_3  and  C_20
REMARK    2  A    between atoms: O_3  and  C_28
REMARK    3  A    between atoms: O_4  and  C_22
REMARK    4  A    between atoms: O_4  and  C_29
REMARK    5  A    between atoms: O_5  and  C_27
REMARK    6  A    between atoms: O_5  and  C_30
REMARK    7  A    between atoms: C_9  and  C_13
REMARK    8  A    between atoms: C_14  and  C_15
REMARK    9  A    between atoms: C_16  and  C_19
REMARK                            x       y       z     vdW  Elec       q    Type
REMARK                         _______ _______ _______ _____ _____    ______ ____
ROOT
ATOM      2  O   UNL     1     -14.827  -6.936  14.716  0.00  0.00    -0.270 OA
ATOM      6  N   UNL     1     -13.736  -5.176  13.665  0.00  0.00    -0.297 N 
ATOM      9  C   UNL     1     -13.005  -3.552  12.085  0.00  0.00    +0.095 C 
ATOM     10  C   UNL     1     -14.461  -3.265  12.485  0.00  0.00    +0.033 C 
ATOM     11  C   UNL     1     -12.535  -4.460  13.230  0.00  0.00    +0.121 C 
ATOM     12  C   UNL     1     -14.935  -4.572  13.104  0.00  0.00    +0.109 C 
ATOM     14  C   UNL     1     -13.796  -6.326  14.435  0.00  0.00    +0.247 C 
ENDROOT
BRANCH  14  15
ATOM     15  C   UNL     1     -12.527  -6.869  14.945  0.00  0.00    +0.041 A 
ATOM     17  C   UNL     1     -11.848  -7.851  14.224  0.00  0.00    +0.062 A 
ATOM     18  C   UNL     1     -12.004  -6.403  16.151  0.00  0.00    +0.017 A 
ATOM     20  C   UNL     1     -10.647  -8.366  14.708  0.00  0.00    +0.162 A 
ATOM     21  C   UNL     1     -10.802  -6.918  16.635  0.00  0.00    +0.050 A 
ATOM     22  C   UNL     1     -10.123  -7.899  15.913  0.00  0.00    +0.162 A 
BRANCH  20   3
ATOM      3  O   UNL     1      -9.992  -9.325  13.994  0.00  0.00    -0.491 OA
ATOM     28  C   UNL     1     -10.699  -9.918  12.906  0.00  0.00    +0.277 C 
ENDBRANCH  20   3
BRANCH  22   4
ATOM      4  O   UNL     1      -8.950  -8.395  16.398  0.00  0.00    -0.491 OA
ATOM     29  C   UNL     1      -9.036  -9.357  17.445  0.00  0.00    +0.277 C 
ENDBRANCH  22   4
ENDBRANCH  14  15
BRANCH   9  13
ATOM      1  O   UNL     1     -11.712  -4.647  10.307  0.00  0.00    -0.420 OA
ATOM      7  N   UNL     1     -13.831  -4.199   9.746  0.00  0.00    -0.112 NA
ATOM      8  N   UNL     1     -13.223  -4.810   8.665  0.00  0.00    -0.107 NA
ATOM     13  C   UNL     1     -12.913  -4.126  10.681  0.00  0.00    +0.222 A 
ATOM     16  C   UNL     1     -11.988  -5.053   9.038  0.00  0.00    +0.248 A 
BRANCH  16  19
ATOM     19  C   UNL     1     -10.905  -5.669   8.327  0.00  0.00    +0.039 A 
ATOM     23  C   UNL     1     -11.170  -6.543   7.271  0.00  0.00    +0.017 A 
ATOM     24  C   UNL     1      -9.587  -5.394   8.690  0.00  0.00    +0.017 A 
ATOM     25  C   UNL     1     -10.117  -7.141   6.581  0.00  0.00    +0.046 A 
ATOM     26  C   UNL     1      -8.533  -5.993   7.998  0.00  0.00    +0.046 A 
ATOM     27  C   UNL     1      -8.798  -6.866   6.943  0.00  0.00    +0.120 A 
BRANCH  27   5
ATOM      5  O   UNL     1      -7.771  -7.448   6.267  0.00  0.00    -0.495 OA
ATOM     30  C   UNL     1      -7.731  -8.875   6.251  0.00  0.00    +0.277 C 
ENDBRANCH  27   5
ENDBRANCH  16  19
ENDBRANCH   9  13
TORSDOF 6
ENDMDL
MODEL 6
REMARK VINA RESULT:      -6.1     13.957     18.069
REMARK  Name = 51137788
REMARK  9 active torsions:
REMARK  status: ('A' for Active; 'I' for Inactive)
REMARK    1  A    between atoms: O_3  and  C_20
REMARK    2  A    between atoms: O_3  and  C_28
REMARK    3  A    between atoms: O_4  and  C_22
REMARK    4  A    between atoms: O_4  and  C_29
REMARK    5  A    between atoms: O_5  and  C_27
REMARK    6  A    between atoms: O_5  and  C_30
REMARK    7  A    between atoms: C_9  and  C_13
REMARK    8  A    between atoms: C_14  and  C_15
REMARK    9  A    between atoms: C_16  and  C_19
REMARK                            x       y       z     vdW  Elec       q    Type
REMARK                         _______ _______ _______ _____ _____    ______ ____
ROOT
ATOM      2  O   UNL     1       9.591   7.923   1.790  0.00  0.00    -0.270 OA
ATOM      6  N   UNL     1       9.451   6.340   3.483  0.00  0.00    -0.297 N 
ATOM      9  C   UNL     1       9.461   5.237   5.593  0.00  0.00    +0.095 C 
ATOM     10  C   UNL     1       8.285   6.225   5.532  0.00  0.00    +0.033 C 
ATOM     11  C   UNL     1       9.807   5.064   4.107  0.00  0.00    +0.121 C 
ATOM     12  C   UNL     1       8.647   7.154   4.381  0.00  0.00    +0.109 C 
ATOM     14  C   UNL     1       9.856   6.811   2.244  0.00  0.00    +0.247 C 
ENDROOT
BRANCH  14  15
ATOM     15  C   UNL     1      10.679   5.919   1.414  0.00  0.00    +0.041 A 
ATOM     17  C   UNL     1      12.052   5.826   1.638  0.00  0.00    +0.062 A 
ATOM     18  C   UNL     1      10.086   5.166   0.400  0.00  0.00    +0.017 A 
ATOM     20  C   UNL     1      12.833   4.981   0.850  0.00  0.00    +0.162 A 
ATOM     21  C   UNL     1      10.866   4.321  -0.388  0.00  0.00    +0.050 A 
ATOM     22  C   UNL     1      12.240   4.227  -0.163  0.00  0.00    +0.162 A 
BRANCH  20   3
ATOM      3  O   UNL     1      14.174   4.899   1.079  0.00  0.00    -0.491 OA
ATOM     28  C   UNL     1      14.650   3.714   1.716  0.00  0.00    +0.277 C 
ENDBRANCH  20   3
BRANCH  22   4
ATOM      4  O   UNL     1      12.991   3.398  -0.940  0.00  0.00    -0.491 OA
ATOM     29  C   UNL     1      12.293   2.570  -1.867  0.00  0.00    +0.277 C 
ENDBRANCH  22   4
ENDBRANCH  14  15
BRANCH   9  13
ATOM      1  O   UNL     1      11.486   6.584   5.933  0.00  0.00    -0.420 OA
ATOM      7  N   UNL     1      10.800   5.496   7.764  0.00  0.00    -0.112 NA
ATOM      8  N   UNL     1      11.938   6.209   8.092  0.00  0.00    -0.107 NA
ATOM     13  C   UNL     1      10.572   5.745   6.494  0.00  0.00    +0.222 A 
ATOM     16  C   UNL     1      12.303   6.828   6.993  0.00  0.00    +0.248 A 
BRANCH  16  19
ATOM     19  C   UNL     1      13.410   7.705   6.743  0.00  0.00    +0.039 A 
ATOM     23  C   UNL     1      14.665   7.176   6.440  0.00  0.00    +0.017 A 
ATOM     24  C   UNL     1      13.232   9.087   6.802  0.00  0.00    +0.017 A 
ATOM     25  C   UNL     1      15.741   8.029   6.198  0.00  0.00    +0.046 A 
ATOM     26  C   UNL     1      14.309   9.941   6.559  0.00  0.00    +0.046 A 
ATOM     27  C   UNL     1      15.563   9.411   6.257  0.00  0.00    +0.120 A 
BRANCH  27   5
ATOM      5  O   UNL     1      16.613  10.244   6.017  0.00  0.00    -0.495 OA
ATOM     30  C   UNL     1      17.877   9.635   5.755  0.00  0.00    +0.277 C 
ENDBRANCH  27   5
ENDBRANCH  16  19
ENDBRANCH   9  13
TORSDOF 6
ENDMDL
MODEL 7
REMARK VINA RESULT:      -6.1     27.677     29.861
REMARK  Name = 51137788
REMARK  9 active torsions:
REMARK  status: ('A' for Active; 'I' for Inactive)
REMARK    1  A    between atoms: O_3  and  C_20
REMARK    2  A    between atoms: O_3  and  C_28
REMARK    3  A    between atoms: O_4  and  C_22
REMARK    4  A    between atoms: O_4  and  C_29
REMARK    5  A    between atoms: O_5  and  C_27
REMARK    6  A    between atoms: O_5  and  C_30
REMARK    7  A    between atoms: C_9  and  C_13
REMARK    8  A    between atoms: C_14  and  C_15
REMARK    9  A    between atoms: C_16  and  C_19
REMARK                            x       y       z     vdW  Elec       q    Type
REMARK                         _______ _______ _______ _____ _____    ______ ____
ROOT
ATOM      2  O   UNL     1      -5.336 -14.300  11.581  0.00  0.00    -0.270 OA
ATOM      6  N   UNL     1      -3.321 -13.307  12.169  0.00  0.00    -0.297 N 
ATOM      9  C   UNL     1      -1.476 -12.414  13.379  0.00  0.00    +0.095 C 
ATOM     10  C   UNL     1      -1.523 -13.939  13.560  0.00  0.00    +0.033 C 
ATOM     11  C   UNL     1      -2.345 -12.216  12.129  0.00  0.00    +0.121 C 
ATOM     12  C   UNL     1      -2.940 -14.314  13.147  0.00  0.00    +0.109 C 
ATOM     14  C   UNL     1      -4.510 -13.397  11.461  0.00  0.00    +0.247 C 
ENDROOT
BRANCH  14  15
ATOM     15  C   UNL     1      -4.814 -12.322  10.505  0.00  0.00    +0.041 A 
ATOM     17  C   UNL     1      -5.542 -11.207  10.916  0.00  0.00    +0.062 A 
ATOM     18  C   UNL     1      -4.375 -12.420   9.184  0.00  0.00    +0.017 A 
ATOM     20  C   UNL     1      -5.831 -10.188  10.009  0.00  0.00    +0.162 A 
ATOM     21  C   UNL     1      -4.665 -11.402   8.276  0.00  0.00    +0.050 A 
ATOM     22  C   UNL     1      -5.392 -10.285   8.689  0.00  0.00    +0.162 A 
BRANCH  20   3
ATOM      3  O   UNL     1      -6.543  -9.103  10.423  0.00  0.00    -0.491 OA
ATOM     28  C   UNL     1      -7.965  -9.186  10.329  0.00  0.00    +0.277 C 
ENDBRANCH  20   3
BRANCH  22   4
ATOM      4  O   UNL     1      -5.668  -9.298   7.792  0.00  0.00    -0.491 OA
ATOM     29  C   UNL     1      -6.195  -9.698   6.529  0.00  0.00    +0.277 C 
ENDBRANCH  22   4
ENDBRANCH  14  15
BRANCH   9  13
ATOM      1  O   UNL     1      -3.261 -11.532  14.818  0.00  0.00    -0.420 OA
ATOM      7  N   UNL     1      -1.198 -11.169  15.603  0.00  0.00    -0.112 NA
ATOM      8  N   UNL     1      -2.098 -10.627  16.501  0.00  0.00    -0.107 NA
ATOM     13  C   UNL     1      -1.920 -11.687  14.637  0.00  0.00    +0.222 A 
ATOM     16  C   UNL     1      -3.289 -10.862  16.002  0.00  0.00    +0.248 A 
BRANCH  16  19
ATOM     19  C   UNL     1      -4.590 -10.529  16.503  0.00  0.00    +0.039 A 
ATOM     23  C   UNL     1      -4.917 -10.799  17.833  0.00  0.00    +0.017 A 
ATOM     24  C   UNL     1      -5.531  -9.934  15.662  0.00  0.00    +0.017 A 
ATOM     25  C   UNL     1      -6.183 -10.474  18.319  0.00  0.00    +0.046 A 
ATOM     26  C   UNL     1      -6.797  -9.609  16.149  0.00  0.00    +0.046 A 
ATOM     27  C   UNL     1      -7.123  -9.879  17.478  0.00  0.00    +0.120 A 
BRANCH  27   5
ATOM      5  O   UNL     1      -8.357  -9.560  17.954  0.00  0.00    -0.495 OA
ATOM     30  C   UNL     1      -9.121  -8.619  17.200  0.00  0.00    +0.277 C 
ENDBRANCH  27   5
ENDBRANCH  16  19
ENDBRANCH   9  13
TORSDOF 6
ENDMDL
MODEL 8
REMARK VINA RESULT:      -6.1     27.595     30.037
REMARK  Name = 51137788
REMARK  9 active torsions:
REMARK  status: ('A' for Active; 'I' for Inactive)
REMARK    1  A    between atoms: O_3  and  C_20
REMARK    2  A    between atoms: O_3  and  C_28
REMARK    3  A    between atoms: O_4  and  C_22
REMARK    4  A    between atoms: O_4  and  C_29
REMARK    5  A    between atoms: O_5  and  C_27
REMARK    6  A    between atoms: O_5  and  C_30
REMARK    7  A    between atoms: C_9  and  C_13
REMARK    8  A    between atoms: C_14  and  C_15
REMARK    9  A    between atoms: C_16  and  C_19
REMARK                            x       y       z     vdW  Elec       q    Type
REMARK                         _______ _______ _______ _____ _____    ______ ____
ROOT
ATOM      2  O   UNL     1     -10.729  -9.923  20.468  0.00  0.00    -0.270 OA
ATOM      6  N   UNL     1      -9.731 -11.378  18.958  0.00  0.00    -0.297 N 
ATOM      9  C   UNL     1      -8.199 -12.805  17.824  0.00  0.00    +0.095 C 
ATOM     10  C   UNL     1      -8.603 -13.440  19.165  0.00  0.00    +0.033 C 
ATOM     11  C   UNL     1      -9.321 -11.778  17.610  0.00  0.00    +0.121 C 
ATOM     12  C   UNL     1      -9.184 -12.279  19.960  0.00  0.00    +0.109 C 
ATOM     14  C   UNL     1     -10.469 -10.260  19.314  0.00  0.00    +0.247 C 
ENDROOT
BRANCH  14  15
ATOM     15  C   UNL     1     -10.967  -9.401  18.229  0.00  0.00    +0.041 A 
ATOM     17  C   UNL     1     -12.278  -9.539  17.774  0.00  0.00    +0.062 A 
ATOM     18  C   UNL     1     -10.127  -8.448  17.652  0.00  0.00    +0.017 A 
ATOM     20  C   UNL     1     -12.750  -8.726  16.745  0.00  0.00    +0.162 A 
ATOM     21  C   UNL     1     -10.598  -7.635  16.623  0.00  0.00    +0.050 A 
ATOM     22  C   UNL     1     -11.910  -7.773  16.169  0.00  0.00    +0.162 A 
BRANCH  20   3
ATOM      3  O   UNL     1     -14.033  -8.870  16.310  0.00  0.00    -0.491 OA
ATOM     28  C   UNL     1     -15.063  -8.798  17.295  0.00  0.00    +0.277 C 
ENDBRANCH  20   3
BRANCH  22   4
ATOM      4  O   UNL     1     -12.358  -6.972  15.162  0.00  0.00    -0.491 OA
ATOM     29  C   UNL     1     -11.597  -5.800  14.879  0.00  0.00    +0.277 C 
ENDBRANCH  22   4
ENDBRANCH  14  15
BRANCH   9  13
ATOM      1  O   UNL     1      -6.190 -11.992  16.670  0.00  0.00    -0.420 OA
ATOM      7  N   UNL     1      -6.012 -12.010  18.900  0.00  0.00    -0.112 NA
ATOM      8  N   UNL     1      -4.823 -11.535  18.380  0.00  0.00    -0.107 NA
ATOM     13  C   UNL     1      -6.781 -12.264  17.866  0.00  0.00    +0.222 A 
ATOM     16  C   UNL     1      -4.972 -11.541  17.075  0.00  0.00    +0.248 A 
BRANCH  16  19
ATOM     19  C   UNL     1      -4.067 -11.155  16.033  0.00  0.00    +0.039 A 
ATOM     23  C   UNL     1      -2.758 -10.787  16.346  0.00  0.00    +0.017 A 
ATOM     24  C   UNL     1      -4.494 -11.149  14.705  0.00  0.00    +0.017 A 
ATOM     25  C   UNL     1      -1.878 -10.411  15.332  0.00  0.00    +0.046 A 
ATOM     26  C   UNL     1      -3.613 -10.773  13.690  0.00  0.00    +0.046 A 
ATOM     27  C   UNL     1      -2.305 -10.404  14.004  0.00  0.00    +0.120 A 
BRANCH  27   5
ATOM      5  O   UNL     1      -1.445 -10.040  13.014  0.00  0.00    -0.495 OA
ATOM     30  C   UNL     1      -1.903 -10.185  11.670  0.00  0.00    +0.277 C 
ENDBRANCH  27   5
ENDBRANCH  16  19
ENDBRANCH   9  13
TORSDOF 6
ENDMDL
MODEL 9
REMARK VINA RESULT:      -6.1     28.089     31.003
REMARK  Name = 51137788
REMARK  9 active torsions:
REMARK  status: ('A' for Active; 'I' for Inactive)
REMARK    1  A    between atoms: O_3  and  C_20
REMARK    2  A    between atoms: O_3  and  C_28
REMARK    3  A    between atoms: O_4  and  C_22
REMARK    4  A    between atoms: O_4  and  C_29
REMARK    5  A    between atoms: O_5  and  C_27
REMARK    6  A    between atoms: O_5  and  C_30
REMARK    7  A    between atoms: C_9  and  C_13
REMARK    8  A    between atoms: C_14  and  C_15
REMARK    9  A    between atoms: C_16  and  C_19
REMARK                            x       y       z     vdW  Elec       q    Type
REMARK                         _______ _______ _______ _____ _____    ______ ____
ROOT
ATOM      2  O   UNL     1      -7.863 -14.368  17.636  0.00  0.00    -0.270 OA
ATOM      6  N   UNL     1      -8.699 -12.684  18.998  0.00  0.00    -0.297 N 
ATOM      9  C   UNL     1     -10.121 -11.122  20.096  0.00  0.00    +0.095 C 
ATOM     10  C   UNL     1     -10.485 -12.549  20.534  0.00  0.00    +0.033 C 
ATOM     11  C   UNL     1      -8.710 -11.317  19.522  0.00  0.00    +0.121 C 
ATOM     12  C   UNL     1      -9.855 -13.433  19.465  0.00  0.00    +0.109 C 
ATOM     14  C   UNL     1      -7.791 -13.235  18.107  0.00  0.00    +0.247 C 
ENDROOT
BRANCH  14  15
ATOM     15  C   UNL     1      -6.662 -12.394  17.680  0.00  0.00    +0.041 A 
ATOM     17  C   UNL     1      -6.786 -11.577  16.557  0.00  0.00    +0.062 A 
ATOM     18  C   UNL     1      -5.467 -12.414  18.400  0.00  0.00    +0.017 A 
ATOM     20  C   UNL     1      -5.715 -10.781  16.152  0.00  0.00    +0.162 A 
ATOM     21  C   UNL     1      -4.396 -11.618  17.995  0.00  0.00    +0.050 A 
ATOM     22  C   UNL     1      -4.520 -10.800  16.871  0.00  0.00    +0.162 A 
BRANCH  20   3
ATOM      3  O   UNL     1      -5.848  -9.986  15.053  0.00  0.00    -0.491 OA
ATOM     28  C   UNL     1      -5.620 -10.595  13.783  0.00  0.00    +0.277 C 
ENDBRANCH  20   3
BRANCH  22   4
ATOM      4  O   UNL     1      -3.466 -10.027  16.486  0.00  0.00    -0.491 OA
ATOM     29  C   UNL     1      -2.313 -10.704  15.992  0.00  0.00    +0.277 C 
ENDBRANCH  22   4
ENDBRANCH  14  15
BRANCH   9  13
ATOM      1  O   UNL     1     -10.777  -9.490  18.382  0.00  0.00    -0.420 OA
ATOM      7  N   UNL     1     -12.410 -10.904  18.964  0.00  0.00    -0.112 NA
ATOM      8  N   UNL     1     -12.909 -10.047  18.001  0.00  0.00    -0.107 NA
ATOM     13  C   UNL     1     -11.162 -10.542  19.155  0.00  0.00    +0.222 A 
ATOM     16  C   UNL     1     -11.921  -9.240  17.690  0.00  0.00    +0.248 A 
BRANCH  16  19
ATOM     19  C   UNL     1     -11.864  -8.155  16.754  0.00  0.00    +0.039 A 
ATOM     23  C   UNL     1     -12.944  -7.909  15.905  0.00  0.00    +0.017 A 
ATOM     24  C   UNL     1     -10.730  -7.346  16.692  0.00  0.00    +0.017 A 
ATOM     25  C   UNL     1     -12.888  -6.854  14.995  0.00  0.00    +0.046 A 
ATOM     26  C   UNL     1     -10.674  -6.291  15.781  0.00  0.00    +0.046 A 
ATOM     27  C   UNL     1     -11.753  -6.045  14.933  0.00  0.00    +0.120 A 
BRANCH  27   5
ATOM      5  O   UNL     1     -11.700  -5.014  14.046  0.00  0.00    -0.495 OA
ATOM     30  C   UNL     1     -12.916  -4.662  13.386  0.00  0.00    +0.277 C 
ENDBRANCH  27   5
ENDBRANCH  16  19
ENDBRANCH   9  13
TORSDOF 6
ENDMDL
MODEL 10
REMARK VINA RESULT:      -6.0     27.077     29.441
REMARK  Name = 51137788
REMARK  9 active torsions:
REMARK  status: ('A' for Active; 'I' for Inactive)
REMARK    1  A    between atoms: O_3  and  C_20
REMARK    2  A    between atoms: O_3  and  C_28
REMARK    3  A    between atoms: O_4  and  C_22
REMARK    4  A    between atoms: O_4  and  C_29
REMARK    5  A    between atoms: O_5  and  C_27
REMARK    6  A    between atoms: O_5  and  C_30
REMARK    7  A    between atoms: C_9  and  C_13
REMARK    8  A    between atoms: C_14  and  C_15
REMARK    9  A    between atoms: C_16  and  C_19
REMARK                            x       y       z     vdW  Elec       q    Type
REMARK                         _______ _______ _______ _____ _____    ______ ____
ROOT
ATOM      2  O   UNL     1      -3.457 -13.149  11.531  0.00  0.00    -0.270 OA
ATOM      6  N   UNL     1      -2.668 -11.610  13.080  0.00  0.00    -0.297 N 
ATOM      9  C   UNL     1      -2.031 -10.507  15.092  0.00  0.00    +0.095 C 
ATOM     10  C   UNL     1      -1.109 -11.713  14.850  0.00  0.00    +0.033 C 
ATOM     11  C   UNL     1      -2.632 -10.282  13.697  0.00  0.00    +0.121 C 
ATOM     12  C   UNL     1      -1.874 -12.561  13.842  0.00  0.00    +0.109 C 
ATOM     14  C   UNL     1      -3.401 -12.002  11.971  0.00  0.00    +0.247 C 
ENDROOT
BRANCH  14  15
ATOM     15  C   UNL     1      -4.184 -10.970  11.276  0.00  0.00    +0.041 A 
ATOM     17  C   UNL     1      -5.417 -10.566  11.787  0.00  0.00    +0.062 A 
ATOM     18  C   UNL     1      -3.694 -10.394  10.103  0.00  0.00    +0.017 A 
ATOM     20  C   UNL     1      -6.161  -9.589  11.127  0.00  0.00    +0.162 A 
ATOM     21  C   UNL     1      -4.437  -9.417   9.442  0.00  0.00    +0.050 A 
ATOM     22  C   UNL     1      -5.671  -9.013   9.955  0.00  0.00    +0.162 A 
BRANCH  20   3
ATOM      3  O   UNL     1      -7.364  -9.203  11.636  0.00  0.00    -0.491 OA
ATOM     28  C   UNL     1      -7.794  -9.842  12.838  0.00  0.00    +0.277 C 
ENDBRANCH  20   3
BRANCH  22   4
ATOM      4  O   UNL     1      -6.387  -8.057   9.300  0.00  0.00    -0.491 OA
ATOM     29  C   UNL     1      -7.086  -8.462   8.125  0.00  0.00    +0.277 C 
ENDBRANCH  22   4
ENDBRANCH  14  15
BRANCH   9  13
ATOM      1  O   UNL     1      -4.282 -10.305  16.053  0.00  0.00    -0.420 OA
ATOM      7  N   UNL     1      -2.829 -11.391  17.362  0.00  0.00    -0.112 NA
ATOM      8  N   UNL     1      -4.045 -11.350  18.017  0.00  0.00    -0.107 NA
ATOM     13  C   UNL     1      -3.013 -10.770  16.220  0.00  0.00    +0.222 A 
ATOM     16  C   UNL     1      -4.863 -10.707  17.216  0.00  0.00    +0.248 A 
BRANCH  16  19
ATOM     19  C   UNL     1      -6.247 -10.369  17.375  0.00  0.00    +0.039 A 
ATOM     23  C   UNL     1      -6.856  -9.482  16.486  0.00  0.00    +0.017 A 
ATOM     24  C   UNL     1      -6.987 -10.927  18.418  0.00  0.00    +0.017 A 
ATOM     25  C   UNL     1      -8.202  -9.153  16.641  0.00  0.00    +0.046 A 
ATOM     26  C   UNL     1      -8.334 -10.598  18.574  0.00  0.00    +0.046 A 
ATOM     27  C   UNL     1      -8.941  -9.711  17.685  0.00  0.00    +0.120 A 
BRANCH  27   5
ATOM      5  O   UNL     1     -10.256  -9.392  17.834  0.00  0.00    -0.495 OA
ATOM     30  C   UNL     1     -10.987  -9.082  16.649  0.00  0.00    +0.277 C 
ENDBRANCH  27   5
ENDBRANCH  16  19
ENDBRANCH   9  13
TORSDOF 6
ENDMDL
