MODEL 1
REMARK VINA RESULT:      -7.2      0.000      0.000
REMARK  Name = 26743120
REMARK  13 active torsions:
REMARK  status: ('A' for Active; 'I' for Inactive)
REMARK    1  A    between atoms: S_1  and  C_21
REMARK    2  A    between atoms: S_1  and  C_28
REMARK    3  A    between atoms: O_4  and  C_25
REMARK    4  A    between atoms: O_4  and  C_33
REMARK    5  A    between atoms: O_5  and  C_27
REMARK    6  A    between atoms: O_5  and  C_34
REMARK    7  A    between atoms: N_7  and  C_20
REMARK    8  A    between atoms: C_9  and  C_15
REMARK    9  A    between atoms: C_10  and  C_14
REMARK   10  A    between atoms: C_14  and  C_16
REMARK   11  A    between atoms: C_15  and  C_17
REMARK   12  A    between atoms: C_19  and  C_21
REMARK   13  A    between atoms: C_20  and  C_22
REMARK                            x       y       z     vdW  Elec       q    Type
REMARK                         _______ _______ _______ _____ _____    ______ ____
ROOT
ATOM      6  N   UNL     1      -4.418 -11.964  19.489  0.00  0.00    -0.316 NA
ATOM      9  C   UNL     1      -6.637 -10.744  18.016  0.00  0.00    +0.004 C 
ATOM     10  C   UNL     1      -5.387 -11.297  17.289  0.00  0.00    +0.012 C 
ATOM     11  C   UNL     1      -6.306 -10.358  19.466  0.00  0.00    +0.019 C 
ATOM     12  C   UNL     1      -4.755 -12.416  18.138  0.00  0.00    +0.085 C 
ATOM     13  C   UNL     1      -5.608 -11.501  20.202  0.00  0.00    +0.081 C 
ATOM     36  H   UNL     1      -3.734 -11.212  19.446  0.00  0.00    +0.122 HD
ENDROOT
BRANCH  10  14
ATOM     14  C   UNL     1      -4.346 -10.223  16.943  0.00  0.00    +0.064 C 
BRANCH  14  16
ATOM      3  O   UNL     1      -1.402 -11.381  15.227  0.00  0.00    -0.359 OA
ATOM      8  N   UNL     1      -2.058 -10.892  16.350  0.00  0.00    -0.083 NA
ATOM     16  C   UNL     1      -3.329 -10.741  15.968  0.00  0.00    +0.084 A 
ATOM     18  C   UNL     1      -3.532 -11.113  14.629  0.00  0.00    +0.071 A 
ATOM     19  C   UNL     1      -2.290 -11.508  14.208  0.00  0.00    +0.148 A 
BRANCH  19  21
ATOM     21  C   UNL     1      -1.761 -12.016  12.937  0.00  0.00    +0.151 C 
BRANCH  21   1
ATOM      1  S   UNL     1      -3.038 -12.787  11.882  0.00  0.00    -0.117 S 
BRANCH   1  28
ATOM     28  C   UNL     1      -3.441 -11.432  10.787  0.00  0.00    +0.008 A 
ATOM     29  C   UNL     1      -2.919 -10.161  11.030  0.00  0.00    +0.015 A 
ATOM     30  C   UNL     1      -4.276 -11.645   9.692  0.00  0.00    +0.015 A 
ATOM     31  C   UNL     1      -3.233  -9.104  10.176  0.00  0.00    +0.001 A 
ATOM     32  C   UNL     1      -4.590 -10.589   8.837  0.00  0.00    +0.001 A 
ATOM     35  C   UNL     1      -4.069  -9.318   9.079  0.00  0.00    +0.000 A 
ENDBRANCH   1  28
ENDBRANCH  21   1
ENDBRANCH  19  21
ENDBRANCH  14  16
ENDBRANCH  10  14
BRANCH   9  15
ATOM     15  C   UNL     1      -7.302  -9.581  17.282  0.00  0.00    +0.099 C 
BRANCH  15  17
ATOM      2  O   UNL     1      -9.276 -10.739  16.497  0.00  0.00    -0.276 OA
ATOM      7  N   UNL     1      -9.515  -8.778  17.721  0.00  0.00    -0.311 N 
ATOM     17  C   UNL     1      -8.791  -9.790  17.108  0.00  0.00    +0.214 C 
ATOM     37  H   UNL     1      -9.022  -8.028  18.197  0.00  0.00    +0.149 HD
BRANCH   7  20
ATOM     20  C   UNL     1     -10.958  -8.722  17.712  0.00  0.00    +0.139 C 
BRANCH  20  22
ATOM     22  C   UNL     1     -11.475  -7.724  16.715  0.00  0.00    -0.027 A 
ATOM     23  C   UNL     1     -12.832  -7.699  16.394  0.00  0.00    +0.054 A 
ATOM     24  C   UNL     1     -10.599  -6.822  16.114  0.00  0.00    +0.009 A 
ATOM     25  C   UNL     1     -13.313  -6.770  15.471  0.00  0.00    +0.162 A 
ATOM     26  C   UNL     1     -11.080  -5.893  15.190  0.00  0.00    +0.050 A 
ATOM     27  C   UNL     1     -12.437  -5.868  14.869  0.00  0.00    +0.162 A 
BRANCH  25   4
ATOM      4  O   UNL     1     -14.641  -6.755  15.167  0.00  0.00    -0.491 OA
ATOM     33  C   UNL     1     -15.388  -7.933  15.463  0.00  0.00    +0.277 C 
ENDBRANCH  25   4
BRANCH  27   5
ATOM      5  O   UNL     1     -12.894  -4.956  13.965  0.00  0.00    -0.491 OA
ATOM     34  C   UNL     1     -12.997  -5.384  12.609  0.00  0.00    +0.277 C 
ENDBRANCH  27   5
ENDBRANCH  20  22
ENDBRANCH   7  20
ENDBRANCH  15  17
ENDBRANCH   9  15
TORSDOF 11
ENDMDL
MODEL 2
REMARK VINA RESULT:      -6.9     27.646     30.882
REMARK  Name = 26743120
REMARK  13 active torsions:
REMARK  status: ('A' for Active; 'I' for Inactive)
REMARK    1  A    between atoms: S_1  and  C_21
REMARK    2  A    between atoms: S_1  and  C_28
REMARK    3  A    between atoms: O_4  and  C_25
REMARK    4  A    between atoms: O_4  and  C_33
REMARK    5  A    between atoms: O_5  and  C_27
REMARK    6  A    between atoms: O_5  and  C_34
REMARK    7  A    between atoms: N_7  and  C_20
REMARK    8  A    between atoms: C_9  and  C_15
REMARK    9  A    between atoms: C_10  and  C_14
REMARK   10  A    between atoms: C_14  and  C_16
REMARK   11  A    between atoms: C_15  and  C_17
REMARK   12  A    between atoms: C_19  and  C_21
REMARK   13  A    between atoms: C_20  and  C_22
REMARK                            x       y       z     vdW  Elec       q    Type
REMARK                         _______ _______ _______ _____ _____    ______ ____
ROOT
ATOM      6  N   UNL     1      14.656  11.279  14.074  0.00  0.00    -0.316 NA
ATOM      9  C   UNL     1      14.657  11.973  16.919  0.00  0.00    +0.004 C 
ATOM     10  C   UNL     1      14.445  10.517  16.439  0.00  0.00    +0.012 C 
ATOM     11  C   UNL     1      14.247  12.978  15.831  0.00  0.00    +0.019 C 
ATOM     12  C   UNL     1      15.132  10.323  15.075  0.00  0.00    +0.085 C 
ATOM     13  C   UNL     1      14.914  12.656  14.494  0.00  0.00    +0.081 C 
ATOM     36  H   UNL     1      13.658  11.152  13.916  0.00  0.00    +0.122 HD
ENDROOT
BRANCH  10  14
ATOM     14  C   UNL     1      12.971  10.096  16.370  0.00  0.00    +0.064 C 
BRANCH  14  16
ATOM      3  O   UNL     1      12.196   7.048  18.121  0.00  0.00    -0.359 OA
ATOM      8  N   UNL     1      12.449   7.769  16.961  0.00  0.00    -0.083 NA
ATOM     16  C   UNL     1      12.661   9.022  17.372  0.00  0.00    +0.084 A 
ATOM     18  C   UNL     1      12.555   9.151  18.767  0.00  0.00    +0.071 A 
ATOM     19  C   UNL     1      12.262   7.881  19.191  0.00  0.00    +0.148 A 
BRANCH  19  21
ATOM     21  C   UNL     1      12.018   7.280  20.507  0.00  0.00    +0.151 C 
BRANCH  21   1
ATOM      1  S   UNL     1      13.257   7.764  21.760  0.00  0.00    -0.117 S 
BRANCH   1  28
ATOM     28  C   UNL     1      12.706   9.416  22.164  0.00  0.00    +0.008 A 
ATOM     29  C   UNL     1      11.353   9.662  22.397  0.00  0.00    +0.015 A 
ATOM     30  C   UNL     1      13.629  10.458  22.245  0.00  0.00    +0.015 A 
ATOM     31  C   UNL     1      10.924  10.952  22.711  0.00  0.00    +0.001 A 
ATOM     32  C   UNL     1      13.201  11.747  22.559  0.00  0.00    +0.001 A 
ATOM     35  C   UNL     1      11.848  11.995  22.793  0.00  0.00    +0.000 A 
ENDBRANCH   1  28
ENDBRANCH  21   1
ENDBRANCH  19  21
ENDBRANCH  14  16
ENDBRANCH  10  14
BRANCH   9  15
ATOM     15  C   UNL     1      13.956  12.287  18.240  0.00  0.00    +0.099 C 
BRANCH  15  17
ATOM      2  O   UNL     1      14.985  13.703  19.909  0.00  0.00    -0.276 OA
ATOM      7  N   UNL     1      15.757  11.529  19.625  0.00  0.00    -0.311 N 
ATOM     17  C   UNL     1      14.937  12.613  19.345  0.00  0.00    +0.214 C 
ATOM     37  H   UNL     1      15.646  10.669  19.097  0.00  0.00    +0.149 HD
BRANCH   7  20
ATOM     20  C   UNL     1      16.788  11.560  20.636  0.00  0.00    +0.139 C 
BRANCH  20  22
ATOM     22  C   UNL     1      17.352  10.194  20.904  0.00  0.00    -0.027 A 
ATOM     23  C   UNL     1      16.649   9.058  20.503  0.00  0.00    +0.054 A 
ATOM     24  C   UNL     1      18.580  10.061  21.551  0.00  0.00    +0.009 A 
ATOM     25  C   UNL     1      17.174   7.790  20.749  0.00  0.00    +0.162 A 
ATOM     26  C   UNL     1      19.105   8.792  21.798  0.00  0.00    +0.050 A 
ATOM     27  C   UNL     1      18.401   7.657  21.396  0.00  0.00    +0.162 A 
BRANCH  25   4
ATOM      4  O   UNL     1      16.477   6.688  20.351  0.00  0.00    -0.491 OA
ATOM     33  C   UNL     1      15.750   6.788  19.128  0.00  0.00    +0.277 C 
ENDBRANCH  25   4
BRANCH  27   5
ATOM      5  O   UNL     1      18.925   6.423  21.643  0.00  0.00    -0.491 OA
ATOM     34  C   UNL     1      20.092   6.056  20.910  0.00  0.00    +0.277 C 
ENDBRANCH  27   5
ENDBRANCH  20  22
ENDBRANCH   7  20
ENDBRANCH  15  17
ENDBRANCH   9  15
TORSDOF 11
ENDMDL
MODEL 3
REMARK VINA RESULT:      -6.7      2.927      4.982
REMARK  Name = 26743120
REMARK  13 active torsions:
REMARK  status: ('A' for Active; 'I' for Inactive)
REMARK    1  A    between atoms: S_1  and  C_21
REMARK    2  A    between atoms: S_1  and  C_28
REMARK    3  A    between atoms: O_4  and  C_25
REMARK    4  A    between atoms: O_4  and  C_33
REMARK    5  A    between atoms: O_5  and  C_27
REMARK    6  A    between atoms: O_5  and  C_34
REMARK    7  A    between atoms: N_7  and  C_20
REMARK    8  A    between atoms: C_9  and  C_15
REMARK    9  A    between atoms: C_10  and  C_14
REMARK   10  A    between atoms: C_14  and  C_16
REMARK   11  A    between atoms: C_15  and  C_17
REMARK   12  A    between atoms: C_19  and  C_21
REMARK   13  A    between atoms: C_20  and  C_22
REMARK                            x       y       z     vdW  Elec       q    Type
REMARK                         _______ _______ _______ _____ _____    ______ ____
ROOT
ATOM      6  N   UNL     1      -5.845 -12.926  18.766  0.00  0.00    -0.316 NA
ATOM      9  C   UNL     1      -7.288 -10.767  17.411  0.00  0.00    +0.004 C 
ATOM     10  C   UNL     1      -5.984 -11.363  16.827  0.00  0.00    +0.012 C 
ATOM     11  C   UNL     1      -7.351 -10.965  18.933  0.00  0.00    +0.019 C 
ATOM     12  C   UNL     1      -5.828 -12.818  17.306  0.00  0.00    +0.085 C 
ATOM     13  C   UNL     1      -7.103 -12.423  19.317  0.00  0.00    +0.081 C 
ATOM     36  H   UNL     1      -5.067 -12.405  19.164  0.00  0.00    +0.122 HD
ENDROOT
BRANCH  10  14
ATOM     14  C   UNL     1      -4.728 -10.545  17.155  0.00  0.00    +0.064 C 
BRANCH  14  16
ATOM      3  O   UNL     1      -1.756 -10.822  15.143  0.00  0.00    -0.359 OA
ATOM      8  N   UNL     1      -2.409 -10.741  16.366  0.00  0.00    -0.083 NA
ATOM     16  C   UNL     1      -3.706 -10.649  16.060  0.00  0.00    +0.084 A 
ATOM     18  C   UNL     1      -3.929 -10.667  14.672  0.00  0.00    +0.071 A 
ATOM     19  C   UNL     1      -2.671 -10.777  14.141  0.00  0.00    +0.148 A 
BRANCH  19  21
ATOM     21  C   UNL     1      -2.149 -10.851  12.772  0.00  0.00    +0.151 C 
BRANCH  21   1
ATOM      1  S   UNL     1      -3.206 -11.835  11.651  0.00  0.00    -0.117 S 
BRANCH   1  28
ATOM     28  C   UNL     1      -4.028 -10.540  10.733  0.00  0.00    +0.008 A 
ATOM     29  C   UNL     1      -4.078 -10.597   9.340  0.00  0.00    +0.015 A 
ATOM     30  C   UNL     1      -4.619  -9.473  11.409  0.00  0.00    +0.015 A 
ATOM     31  C   UNL     1      -4.719  -9.586   8.624  0.00  0.00    +0.001 A 
ATOM     32  C   UNL     1      -5.260  -8.463  10.694  0.00  0.00    +0.001 A 
ATOM     35  C   UNL     1      -5.311  -8.519   9.301  0.00  0.00    +0.000 A 
ENDBRANCH   1  28
ENDBRANCH  21   1
ENDBRANCH  19  21
ENDBRANCH  14  16
ENDBRANCH  10  14
BRANCH   9  15
ATOM     15  C   UNL     1      -7.503  -9.300  17.044  0.00  0.00    +0.099 C 
BRANCH  15  17
ATOM      2  O   UNL     1      -9.737  -8.738  16.306  0.00  0.00    -0.276 OA
ATOM      7  N   UNL     1      -8.164  -9.442  14.747  0.00  0.00    -0.311 N 
ATOM     17  C   UNL     1      -8.605  -9.120  16.023  0.00  0.00    +0.214 C 
ATOM     37  H   UNL     1      -7.208  -9.757  14.613  0.00  0.00    +0.149 HD
BRANCH   7  20
ATOM     20  C   UNL     1      -9.008  -9.364  13.577  0.00  0.00    +0.139 C 
BRANCH  20  22
ATOM     22  C   UNL     1      -8.478 -10.199  12.446  0.00  0.00    -0.027 A 
ATOM     23  C   UNL     1      -7.740 -11.351  12.717  0.00  0.00    +0.054 A 
ATOM     24  C   UNL     1      -8.727  -9.823  11.127  0.00  0.00    +0.009 A 
ATOM     25  C   UNL     1      -7.251 -12.128  11.667  0.00  0.00    +0.162 A 
ATOM     26  C   UNL     1      -8.237 -10.600  10.077  0.00  0.00    +0.050 A 
ATOM     27  C   UNL     1      -7.499 -11.752  10.347  0.00  0.00    +0.162 A 
BRANCH  25   4
ATOM      4  O   UNL     1      -6.532 -13.252  11.944  0.00  0.00    -0.491 OA
ATOM     33  C   UNL     1      -7.237 -14.342  12.536  0.00  0.00    +0.277 C 
ENDBRANCH  25   4
BRANCH  27   5
ATOM      5  O   UNL     1      -7.026 -12.503   9.313  0.00  0.00    -0.491 OA
ATOM     34  C   UNL     1      -7.491 -12.172   8.006  0.00  0.00    +0.277 C 
ENDBRANCH  27   5
ENDBRANCH  20  22
ENDBRANCH   7  20
ENDBRANCH  15  17
ENDBRANCH   9  15
TORSDOF 11
ENDMDL
MODEL 4
REMARK VINA RESULT:      -6.6      2.471      4.223
REMARK  Name = 26743120
REMARK  13 active torsions:
REMARK  status: ('A' for Active; 'I' for Inactive)
REMARK    1  A    between atoms: S_1  and  C_21
REMARK    2  A    between atoms: S_1  and  C_28
REMARK    3  A    between atoms: O_4  and  C_25
REMARK    4  A    between atoms: O_4  and  C_33
REMARK    5  A    between atoms: O_5  and  C_27
REMARK    6  A    between atoms: O_5  and  C_34
REMARK    7  A    between atoms: N_7  and  C_20
REMARK    8  A    between atoms: C_9  and  C_15
REMARK    9  A    between atoms: C_10  and  C_14
REMARK   10  A    between atoms: C_14  and  C_16
REMARK   11  A    between atoms: C_15  and  C_17
REMARK   12  A    between atoms: C_19  and  C_21
REMARK   13  A    between atoms: C_20  and  C_22
REMARK                            x       y       z     vdW  Elec       q    Type
REMARK                         _______ _______ _______ _____ _____    ______ ____
ROOT
ATOM      6  N   UNL     1      -4.823 -12.311  18.945  0.00  0.00    -0.316 NA
ATOM      9  C   UNL     1      -6.741 -10.553  17.601  0.00  0.00    +0.004 C 
ATOM     10  C   UNL     1      -5.518 -11.139  16.856  0.00  0.00    +0.012 C 
ATOM     11  C   UNL     1      -6.482 -10.478  19.113  0.00  0.00    +0.019 C 
ATOM     12  C   UNL     1      -5.105 -12.467  17.517  0.00  0.00    +0.085 C 
ATOM     13  C   UNL     1      -5.998 -11.818  19.664  0.00  0.00    +0.081 C 
ATOM     36  H   UNL     1      -4.046 -11.667  19.080  0.00  0.00    +0.122 HD
ENDROOT
BRANCH  10  14
ATOM     14  C   UNL     1      -4.324 -10.178  16.773  0.00  0.00    +0.064 C 
BRANCH  14  16
ATOM      3  O   UNL     1      -1.492 -11.158  14.778  0.00  0.00    -0.359 OA
ATOM      8  N   UNL     1      -2.082 -10.802  15.984  0.00  0.00    -0.083 NA
ATOM     16  C   UNL     1      -3.367 -10.586  15.691  0.00  0.00    +0.084 A 
ATOM     18  C   UNL     1      -3.644 -10.788  14.328  0.00  0.00    +0.071 A 
ATOM     19  C   UNL     1      -2.432 -11.146  13.798  0.00  0.00    +0.148 A 
BRANCH  19  21
ATOM     21  C   UNL     1      -1.977 -11.500  12.449  0.00  0.00    +0.151 C 
BRANCH  21   1
ATOM      1  S   UNL     1      -3.291 -12.244  11.418  0.00  0.00    -0.117 S 
BRANCH   1  28
ATOM     28  C   UNL     1      -4.107 -10.781  10.796  0.00  0.00    +0.008 A 
ATOM     29  C   UNL     1      -5.434 -10.522  11.142  0.00  0.00    +0.015 A 
ATOM     30  C   UNL     1      -3.418  -9.899   9.965  0.00  0.00    +0.015 A 
ATOM     31  C   UNL     1      -6.070  -9.380  10.655  0.00  0.00    +0.001 A 
ATOM     32  C   UNL     1      -4.054  -8.757   9.478  0.00  0.00    +0.001 A 
ATOM     35  C   UNL     1      -5.380  -8.497   9.824  0.00  0.00    +0.000 A 
ENDBRANCH   1  28
ENDBRANCH  21   1
ENDBRANCH  19  21
ENDBRANCH  14  16
ENDBRANCH  10  14
BRANCH   9  15
ATOM     15  C   UNL     1      -7.191  -9.197  17.058  0.00  0.00    +0.099 C 
BRANCH  15  17
ATOM      2  O   UNL     1      -9.115  -9.529  15.629  0.00  0.00    -0.276 OA
ATOM      7  N   UNL     1      -9.421  -8.713  17.784  0.00  0.00    -0.311 N 
ATOM     17  C   UNL     1      -8.665  -9.177  16.717  0.00  0.00    +0.214 C 
ATOM     37  H   UNL     1      -8.956  -8.438  18.644  0.00  0.00    +0.149 HD
BRANCH   7  20
ATOM     20  C   UNL     1     -10.859  -8.587  17.737  0.00  0.00    +0.139 C 
BRANCH  20  22
ATOM     22  C   UNL     1     -11.542  -9.623  18.584  0.00  0.00    -0.027 A 
ATOM     23  C   UNL     1     -10.783 -10.557  19.289  0.00  0.00    +0.054 A 
ATOM     24  C   UNL     1     -12.933  -9.648  18.668  0.00  0.00    +0.009 A 
ATOM     25  C   UNL     1     -11.416 -11.517  20.078  0.00  0.00    +0.162 A 
ATOM     26  C   UNL     1     -13.567 -10.609  19.457  0.00  0.00    +0.050 A 
ATOM     27  C   UNL     1     -12.808 -11.543  20.162  0.00  0.00    +0.162 A 
BRANCH  25   4
ATOM      4  O   UNL     1     -10.664 -12.423  20.763  0.00  0.00    -0.491 OA
ATOM     33  C   UNL     1      -9.455 -12.860  20.146  0.00  0.00    +0.277 C 
ENDBRANCH  25   4
BRANCH  27   5
ATOM      5  O   UNL     1     -13.439 -12.476  20.929  0.00  0.00    -0.491 OA
ATOM     34  C   UNL     1     -14.714 -12.929  20.480  0.00  0.00    +0.277 C 
ENDBRANCH  27   5
ENDBRANCH  20  22
ENDBRANCH   7  20
ENDBRANCH  15  17
ENDBRANCH   9  15
TORSDOF 11
ENDMDL
MODEL 5
REMARK VINA RESULT:      -6.6      3.161      6.490
REMARK  Name = 26743120
REMARK  13 active torsions:
REMARK  status: ('A' for Active; 'I' for Inactive)
REMARK    1  A    between atoms: S_1  and  C_21
REMARK    2  A    between atoms: S_1  and  C_28
REMARK    3  A    between atoms: O_4  and  C_25
REMARK    4  A    between atoms: O_4  and  C_33
REMARK    5  A    between atoms: O_5  and  C_27
REMARK    6  A    between atoms: O_5  and  C_34
REMARK    7  A    between atoms: N_7  and  C_20
REMARK    8  A    between atoms: C_9  and  C_15
REMARK    9  A    between atoms: C_10  and  C_14
REMARK   10  A    between atoms: C_14  and  C_16
REMARK   11  A    between atoms: C_15  and  C_17
REMARK   12  A    between atoms: C_19  and  C_21
REMARK   13  A    between atoms: C_20  and  C_22
REMARK                            x       y       z     vdW  Elec       q    Type
REMARK                         _______ _______ _______ _____ _____    ______ ____
ROOT
ATOM      6  N   UNL     1      -2.256 -14.381  11.822  0.00  0.00    -0.316 NA
ATOM      9  C   UNL     1      -2.718 -12.165  13.681  0.00  0.00    +0.004 C 
ATOM     10  C   UNL     1      -3.339 -12.178  12.263  0.00  0.00    +0.012 C 
ATOM     11  C   UNL     1      -1.447 -13.026  13.733  0.00  0.00    +0.019 C 
ATOM     12  C   UNL     1      -3.515 -13.635  11.796  0.00  0.00    +0.085 C 
ATOM     13  C   UNL     1      -1.698 -14.426  13.174  0.00  0.00    +0.081 C 
ATOM     36  H   UNL     1      -1.582 -13.953  11.190  0.00  0.00    +0.122 HD
ENDROOT
BRANCH  10  14
ATOM     14  C   UNL     1      -2.545 -11.367  11.230  0.00  0.00    +0.064 C 
BRANCH  14  16
ATOM      3  O   UNL     1      -4.172  -8.690   9.458  0.00  0.00    -0.359 OA
ATOM      8  N   UNL     1      -3.152  -9.197  10.254  0.00  0.00    -0.083 NA
ATOM     16  C   UNL     1      -3.447 -10.489  10.412  0.00  0.00    +0.084 A 
ATOM     18  C   UNL     1      -4.630 -10.853   9.746  0.00  0.00    +0.071 A 
ATOM     19  C   UNL     1      -5.047  -9.686   9.162  0.00  0.00    +0.148 A 
BRANCH  19  21
ATOM     21  C   UNL     1      -6.194  -9.323   8.322  0.00  0.00    +0.151 C 
BRANCH  21   1
ATOM      1  S   UNL     1      -7.530  -8.490   9.249  0.00  0.00    -0.117 S 
BRANCH   1  28
ATOM     28  C   UNL     1      -7.522  -9.423  10.774  0.00  0.00    +0.008 A 
ATOM     29  C   UNL     1      -6.800  -8.956  11.872  0.00  0.00    +0.015 A 
ATOM     30  C   UNL     1      -8.236 -10.616  10.864  0.00  0.00    +0.015 A 
ATOM     31  C   UNL     1      -6.793  -9.685  13.062  0.00  0.00    +0.001 A 
ATOM     32  C   UNL     1      -8.231 -11.345  12.053  0.00  0.00    +0.001 A 
ATOM     35  C   UNL     1      -7.509 -10.880  13.153  0.00  0.00    +0.000 A 
ENDBRANCH   1  28
ENDBRANCH  21   1
ENDBRANCH  19  21
ENDBRANCH  14  16
ENDBRANCH  10  14
BRANCH   9  15
ATOM     15  C   UNL     1      -2.444 -10.758  14.211  0.00  0.00    +0.099 C 
BRANCH  15  17
ATOM      2  O   UNL     1      -1.633 -10.752  16.490  0.00  0.00    -0.276 OA
ATOM      7  N   UNL     1      -3.909 -10.508  16.089  0.00  0.00    -0.311 N 
ATOM     17  C   UNL     1      -2.583 -10.676  15.716  0.00  0.00    +0.214 C 
ATOM     37  H   UNL     1      -4.628 -10.464  15.373  0.00  0.00    +0.149 HD
BRANCH   7  20
ATOM     20  C   UNL     1      -4.334 -10.400  17.465  0.00  0.00    +0.139 C 
BRANCH  20  22
ATOM     22  C   UNL     1      -5.825 -10.265  17.583  0.00  0.00    -0.027 A 
ATOM     23  C   UNL     1      -6.488 -10.801  18.687  0.00  0.00    +0.054 A 
ATOM     24  C   UNL     1      -6.546  -9.603  16.590  0.00  0.00    +0.009 A 
ATOM     25  C   UNL     1      -7.873 -10.673  18.798  0.00  0.00    +0.162 A 
ATOM     26  C   UNL     1      -7.931  -9.476  16.701  0.00  0.00    +0.050 A 
ATOM     27  C   UNL     1      -8.593 -10.011  17.806  0.00  0.00    +0.162 A 
BRANCH  25   4
ATOM      4  O   UNL     1      -8.508 -11.199  19.883  0.00  0.00    -0.491 OA
ATOM     33  C   UNL     1      -8.734 -12.607  19.883  0.00  0.00    +0.277 C 
ENDBRANCH  25   4
BRANCH  27   5
ATOM      5  O   UNL     1      -9.947  -9.880  17.903  0.00  0.00    -0.491 OA
ATOM     34  C   UNL     1     -10.500  -8.609  17.571  0.00  0.00    +0.277 C 
ENDBRANCH  27   5
ENDBRANCH  20  22
ENDBRANCH   7  20
ENDBRANCH  15  17
ENDBRANCH   9  15
TORSDOF 11
ENDMDL
MODEL 6
REMARK VINA RESULT:      -6.6      3.995      7.571
REMARK  Name = 26743120
REMARK  13 active torsions:
REMARK  status: ('A' for Active; 'I' for Inactive)
REMARK    1  A    between atoms: S_1  and  C_21
REMARK    2  A    between atoms: S_1  and  C_28
REMARK    3  A    between atoms: O_4  and  C_25
REMARK    4  A    between atoms: O_4  and  C_33
REMARK    5  A    between atoms: O_5  and  C_27
REMARK    6  A    between atoms: O_5  and  C_34
REMARK    7  A    between atoms: N_7  and  C_20
REMARK    8  A    between atoms: C_9  and  C_15
REMARK    9  A    between atoms: C_10  and  C_14
REMARK   10  A    between atoms: C_14  and  C_16
REMARK   11  A    between atoms: C_15  and  C_17
REMARK   12  A    between atoms: C_19  and  C_21
REMARK   13  A    between atoms: C_20  and  C_22
REMARK                            x       y       z     vdW  Elec       q    Type
REMARK                         _______ _______ _______ _____ _____    ______ ____
ROOT
ATOM      6  N   UNL     1      -3.023 -14.084  11.543  0.00  0.00    -0.316 NA
ATOM      9  C   UNL     1      -2.891 -11.915  13.506  0.00  0.00    +0.004 C 
ATOM     10  C   UNL     1      -3.647 -11.752  12.166  0.00  0.00    +0.012 C 
ATOM     11  C   UNL     1      -1.794 -12.985  13.393  0.00  0.00    +0.019 C 
ATOM     12  C   UNL     1      -4.126 -13.131  11.677  0.00  0.00    +0.085 C 
ATOM     13  C   UNL     1      -2.346 -14.291  12.823  0.00  0.00    +0.081 C 
ATOM     36  H   UNL     1      -2.353 -13.749  10.854  0.00  0.00    +0.122 HD
ENDROOT
BRANCH  10  14
ATOM     14  C   UNL     1      -2.832 -11.041  11.077  0.00  0.00    +0.064 C 
BRANCH  14  16
ATOM      3  O   UNL     1      -4.786  -8.632   9.250  0.00  0.00    -0.359 OA
ATOM      8  N   UNL     1      -3.934  -8.993  10.288  0.00  0.00    -0.083 NA
ATOM     16  C   UNL     1      -3.723 -10.301  10.122  0.00  0.00    +0.084 A 
ATOM     18  C   UNL     1      -4.408 -10.816   9.008  0.00  0.00    +0.071 A 
ATOM     19  C   UNL     1      -5.062  -9.726   8.495  0.00  0.00    +0.148 A 
BRANCH  19  21
ATOM     21  C   UNL     1      -5.954  -9.524   7.348  0.00  0.00    +0.151 C 
BRANCH  21   1
ATOM      1  S   UNL     1      -7.439  -8.540   7.756  0.00  0.00    -0.117 S 
BRANCH   1  28
ATOM     28  C   UNL     1      -8.039  -8.133   6.122  0.00  0.00    +0.008 A 
ATOM     29  C   UNL     1      -9.254  -7.464   5.972  0.00  0.00    +0.015 A 
ATOM     30  C   UNL     1      -7.294  -8.486   4.998  0.00  0.00    +0.015 A 
ATOM     31  C   UNL     1      -9.721  -7.147   4.696  0.00  0.00    +0.001 A 
ATOM     32  C   UNL     1      -7.761  -8.170   3.723  0.00  0.00    +0.001 A 
ATOM     35  C   UNL     1      -8.975  -7.500   3.571  0.00  0.00    +0.000 A 
ENDBRANCH   1  28
ENDBRANCH  21   1
ENDBRANCH  19  21
ENDBRANCH  14  16
ENDBRANCH  10  14
BRANCH   9  15
ATOM     15  C   UNL     1      -2.318 -10.605  14.045  0.00  0.00    +0.099 C 
BRANCH  15  17
ATOM      2  O   UNL     1      -1.016 -10.267  16.055  0.00  0.00    -0.276 OA
ATOM      7  N   UNL     1      -3.129 -11.221  16.213  0.00  0.00    -0.311 N 
ATOM     17  C   UNL     1      -2.055 -10.664  15.534  0.00  0.00    +0.214 C 
ATOM     37  H   UNL     1      -3.945 -11.528  15.691  0.00  0.00    +0.149 HD
BRANCH   7  20
ATOM     20  C   UNL     1      -3.150 -11.402  17.646  0.00  0.00    +0.139 C 
BRANCH  20  22
ATOM     22  C   UNL     1      -4.527 -11.213  18.215  0.00  0.00    -0.027 A 
ATOM     23  C   UNL     1      -5.442 -10.385  17.566  0.00  0.00    +0.054 A 
ATOM     24  C   UNL     1      -4.890 -11.869  19.391  0.00  0.00    +0.009 A 
ATOM     25  C   UNL     1      -6.722 -10.212  18.094  0.00  0.00    +0.162 A 
ATOM     26  C   UNL     1      -6.170 -11.695  19.919  0.00  0.00    +0.050 A 
ATOM     27  C   UNL     1      -7.085 -10.867  19.270  0.00  0.00    +0.162 A 
BRANCH  25   4
ATOM      4  O   UNL     1      -7.607  -9.401  17.450  0.00  0.00    -0.491 OA
ATOM     33  C   UNL     1      -7.902  -9.714  16.090  0.00  0.00    +0.277 C 
ENDBRANCH  25   4
BRANCH  27   5
ATOM      5  O   UNL     1      -8.333 -10.706  19.795  0.00  0.00    -0.491 OA
ATOM     34  C   UNL     1      -9.284 -11.735  19.532  0.00  0.00    +0.277 C 
ENDBRANCH  27   5
ENDBRANCH  20  22
ENDBRANCH   7  20
ENDBRANCH  15  17
ENDBRANCH   9  15
TORSDOF 11
ENDMDL
MODEL 7
REMARK VINA RESULT:      -6.5      3.743      7.471
REMARK  Name = 26743120
REMARK  13 active torsions:
REMARK  status: ('A' for Active; 'I' for Inactive)
REMARK    1  A    between atoms: S_1  and  C_21
REMARK    2  A    between atoms: S_1  and  C_28
REMARK    3  A    between atoms: O_4  and  C_25
REMARK    4  A    between atoms: O_4  and  C_33
REMARK    5  A    between atoms: O_5  and  C_27
REMARK    6  A    between atoms: O_5  and  C_34
REMARK    7  A    between atoms: N_7  and  C_20
REMARK    8  A    between atoms: C_9  and  C_15
REMARK    9  A    between atoms: C_10  and  C_14
REMARK   10  A    between atoms: C_14  and  C_16
REMARK   11  A    between atoms: C_15  and  C_17
REMARK   12  A    between atoms: C_19  and  C_21
REMARK   13  A    between atoms: C_20  and  C_22
REMARK                            x       y       z     vdW  Elec       q    Type
REMARK                         _______ _______ _______ _____ _____    ______ ____
ROOT
ATOM      6  N   UNL     1     -11.968 -11.378  18.957  0.00  0.00    -0.316 NA
ATOM      9  C   UNL     1      -9.224 -11.858  19.863  0.00  0.00    +0.004 C 
ATOM     10  C   UNL     1      -9.525 -11.050  18.577  0.00  0.00    +0.012 C 
ATOM     11  C   UNL     1     -10.375 -12.822  20.189  0.00  0.00    +0.019 C 
ATOM     12  C   UNL     1     -10.914 -10.396  18.697  0.00  0.00    +0.085 C 
ATOM     13  C   UNL     1     -11.721 -12.100  20.205  0.00  0.00    +0.081 C 
ATOM     36  H   UNL     1     -12.025 -12.042  18.186  0.00  0.00    +0.122 HD
ENDROOT
BRANCH  10  14
ATOM     14  C   UNL     1      -9.422 -11.876  17.288  0.00  0.00    +0.064 C 
BRANCH  14  16
ATOM      3  O   UNL     1      -7.013  -9.847  15.545  0.00  0.00    -0.359 OA
ATOM      8  N   UNL     1      -7.801 -10.143  16.650  0.00  0.00    -0.083 NA
ATOM     16  C   UNL     1      -8.461 -11.255  16.316  0.00  0.00    +0.084 A 
ATOM     18  C   UNL     1      -8.133 -11.702  15.024  0.00  0.00    +0.071 A 
ATOM     19  C   UNL     1      -7.219 -10.783  14.583  0.00  0.00    +0.148 A 
BRANCH  19  21
ATOM     21  C   UNL     1      -6.459 -10.622  13.338  0.00  0.00    +0.151 C 
BRANCH  21   1
ATOM      1  S   UNL     1      -7.087  -9.269  12.281  0.00  0.00    -0.117 S 
BRANCH   1  28
ATOM     28  C   UNL     1      -5.899  -9.300  10.946  0.00  0.00    +0.008 A 
ATOM     29  C   UNL     1      -6.338  -9.298   9.622  0.00  0.00    +0.015 A 
ATOM     30  C   UNL     1      -4.534  -9.326  11.227  0.00  0.00    +0.015 A 
ATOM     31  C   UNL     1      -5.411  -9.322   8.580  0.00  0.00    +0.001 A 
ATOM     32  C   UNL     1      -3.606  -9.350  10.186  0.00  0.00    +0.001 A 
ATOM     35  C   UNL     1      -4.045  -9.348   8.862  0.00  0.00    +0.000 A 
ENDBRANCH   1  28
ENDBRANCH  21   1
ENDBRANCH  19  21
ENDBRANCH  14  16
ENDBRANCH  10  14
BRANCH   9  15
ATOM     15  C   UNL     1      -7.890 -12.600  19.816  0.00  0.00    +0.099 C 
BRANCH  15  17
ATOM      2  O   UNL     1      -6.478 -10.746  20.466  0.00  0.00    -0.276 OA
ATOM      7  N   UNL     1      -5.958 -11.959  18.553  0.00  0.00    -0.311 N 
ATOM     17  C   UNL     1      -6.714 -11.657  19.676  0.00  0.00    +0.214 C 
ATOM     37  H   UNL     1      -6.239 -12.730  17.954  0.00  0.00    +0.149 HD
BRANCH   7  20
ATOM     20  C   UNL     1      -4.777 -11.220  18.173  0.00  0.00    +0.139 C 
BRANCH  20  22
ATOM     22  C   UNL     1      -4.221 -11.687  16.859  0.00  0.00    -0.027 A 
ATOM     23  C   UNL     1      -3.198 -10.968  16.240  0.00  0.00    +0.054 A 
ATOM     24  C   UNL     1      -4.725 -12.840  16.259  0.00  0.00    +0.009 A 
ATOM     25  C   UNL     1      -2.679 -11.403  15.020  0.00  0.00    +0.162 A 
ATOM     26  C   UNL     1      -4.206 -13.275  15.039  0.00  0.00    +0.050 A 
ATOM     27  C   UNL     1      -3.183 -12.556  14.420  0.00  0.00    +0.162 A 
BRANCH  25   4
ATOM      4  O   UNL     1      -1.679 -10.693  14.427  0.00  0.00    -0.491 OA
ATOM     33  C   UNL     1      -1.047  -9.683  15.211  0.00  0.00    +0.277 C 
ENDBRANCH  25   4
BRANCH  27   5
ATOM      5  O   UNL     1      -2.685 -12.991  13.229  0.00  0.00    -0.491 OA
ATOM     34  C   UNL     1      -1.840 -14.139  13.260  0.00  0.00    +0.277 C 
ENDBRANCH  27   5
ENDBRANCH  20  22
ENDBRANCH   7  20
ENDBRANCH  15  17
ENDBRANCH   9  15
TORSDOF 11
ENDMDL
MODEL 8
REMARK VINA RESULT:      -6.5      3.595      7.338
REMARK  Name = 26743120
REMARK  13 active torsions:
REMARK  status: ('A' for Active; 'I' for Inactive)
REMARK    1  A    between atoms: S_1  and  C_21
REMARK    2  A    between atoms: S_1  and  C_28
REMARK    3  A    between atoms: O_4  and  C_25
REMARK    4  A    between atoms: O_4  and  C_33
REMARK    5  A    between atoms: O_5  and  C_27
REMARK    6  A    between atoms: O_5  and  C_34
REMARK    7  A    between atoms: N_7  and  C_20
REMARK    8  A    between atoms: C_9  and  C_15
REMARK    9  A    between atoms: C_10  and  C_14
REMARK   10  A    between atoms: C_14  and  C_16
REMARK   11  A    between atoms: C_15  and  C_17
REMARK   12  A    between atoms: C_19  and  C_21
REMARK   13  A    between atoms: C_20  and  C_22
REMARK                            x       y       z     vdW  Elec       q    Type
REMARK                         _______ _______ _______ _____ _____    ______ ____
ROOT
ATOM      6  N   UNL     1      -3.313 -13.825  11.162  0.00  0.00    -0.316 NA
ATOM      9  C   UNL     1      -2.722 -11.832  13.225  0.00  0.00    +0.004 C 
ATOM     10  C   UNL     1      -3.635 -11.505  12.018  0.00  0.00    +0.012 C 
ATOM     11  C   UNL     1      -1.752 -12.974  12.888  0.00  0.00    +0.019 C 
ATOM     12  C   UNL     1      -4.298 -12.799  11.513  0.00  0.00    +0.085 C 
ATOM     13  C   UNL     1      -2.491 -14.184  12.316  0.00  0.00    +0.081 C 
ATOM     36  H   UNL     1      -2.715 -13.492  10.408  0.00  0.00    +0.122 HD
ENDROOT
BRANCH  10  14
ATOM     14  C   UNL     1      -2.914 -10.780  10.874  0.00  0.00    +0.064 C 
BRANCH  14  16
ATOM      3  O   UNL     1      -5.157  -8.510   9.207  0.00  0.00    -0.359 OA
ATOM      8  N   UNL     1      -4.273  -8.838  10.228  0.00  0.00    -0.083 NA
ATOM     16  C   UNL     1      -3.888 -10.089   9.964  0.00  0.00    +0.084 A 
ATOM     18  C   UNL     1      -4.491 -10.599   8.802  0.00  0.00    +0.071 A 
ATOM     19  C   UNL     1      -5.280  -9.567   8.364  0.00  0.00    +0.148 A 
BRANCH  19  21
ATOM     21  C   UNL     1      -6.183  -9.393   7.220  0.00  0.00    +0.151 C 
BRANCH  21   1
ATOM      1  S   UNL     1      -7.880  -9.985   7.546  0.00  0.00    -0.117 S 
BRANCH   1  28
ATOM     28  C   UNL     1      -8.782  -8.442   7.571  0.00  0.00    +0.008 A 
ATOM     29  C   UNL     1      -9.930  -8.293   6.792  0.00  0.00    +0.015 A 
ATOM     30  C   UNL     1      -8.338  -7.388   8.368  0.00  0.00    +0.015 A 
ATOM     31  C   UNL     1     -10.633  -7.088   6.811  0.00  0.00    +0.001 A 
ATOM     32  C   UNL     1      -9.041  -6.184   8.388  0.00  0.00    +0.001 A 
ATOM     35  C   UNL     1     -10.188  -6.033   7.609  0.00  0.00    +0.000 A 
ENDBRANCH   1  28
ENDBRANCH  21   1
ENDBRANCH  19  21
ENDBRANCH  14  16
ENDBRANCH  10  14
BRANCH   9  15
ATOM     15  C   UNL     1      -1.967 -10.617  13.762  0.00  0.00    +0.099 C 
BRANCH  15  17
ATOM      2  O   UNL     1      -1.013 -10.297  15.962  0.00  0.00    -0.276 OA
ATOM      7  N   UNL     1      -3.274 -10.793  15.761  0.00  0.00    -0.311 N 
ATOM     17  C   UNL     1      -1.999 -10.545  15.273  0.00  0.00    +0.214 C 
ATOM     37  H   UNL     1      -4.027 -10.997  15.110  0.00  0.00    +0.149 HD
BRANCH   7  20
ATOM     20  C   UNL     1      -3.596 -10.790  17.169  0.00  0.00    +0.139 C 
BRANCH  20  22
ATOM     22  C   UNL     1      -5.052 -10.515  17.412  0.00  0.00    -0.027 A 
ATOM     23  C   UNL     1      -5.673 -11.012  18.557  0.00  0.00    +0.054 A 
ATOM     24  C   UNL     1      -5.781  -9.760  16.494  0.00  0.00    +0.009 A 
ATOM     25  C   UNL     1      -7.025 -10.754  18.784  0.00  0.00    +0.162 A 
ATOM     26  C   UNL     1      -7.133  -9.503  16.721  0.00  0.00    +0.050 A 
ATOM     27  C   UNL     1      -7.755  -9.999  17.866  0.00  0.00    +0.162 A 
BRANCH  25   4
ATOM      4  O   UNL     1      -7.621 -11.244  19.908  0.00  0.00    -0.491 OA
ATOM     33  C   UNL     1      -8.025 -12.611  19.884  0.00  0.00    +0.277 C 
ENDBRANCH  25   4
BRANCH  27   5
ATOM      5  O   UNL     1      -9.076  -9.741  18.077  0.00  0.00    -0.491 OA
ATOM     34  C   UNL     1     -10.013 -10.472  17.289  0.00  0.00    +0.277 C 
ENDBRANCH  27   5
ENDBRANCH  20  22
ENDBRANCH   7  20
ENDBRANCH  15  17
ENDBRANCH   9  15
TORSDOF 11
ENDMDL
MODEL 9
REMARK VINA RESULT:      -6.5      3.168      8.727
REMARK  Name = 26743120
REMARK  13 active torsions:
REMARK  status: ('A' for Active; 'I' for Inactive)
REMARK    1  A    between atoms: S_1  and  C_21
REMARK    2  A    between atoms: S_1  and  C_28
REMARK    3  A    between atoms: O_4  and  C_25
REMARK    4  A    between atoms: O_4  and  C_33
REMARK    5  A    between atoms: O_5  and  C_27
REMARK    6  A    between atoms: O_5  and  C_34
REMARK    7  A    between atoms: N_7  and  C_20
REMARK    8  A    between atoms: C_9  and  C_15
REMARK    9  A    between atoms: C_10  and  C_14
REMARK   10  A    between atoms: C_14  and  C_16
REMARK   11  A    between atoms: C_15  and  C_17
REMARK   12  A    between atoms: C_19  and  C_21
REMARK   13  A    between atoms: C_20  and  C_22
REMARK                            x       y       z     vdW  Elec       q    Type
REMARK                         _______ _______ _______ _____ _____    ______ ____
ROOT
ATOM      6  N   UNL     1      -9.453 -12.966  17.715  0.00  0.00    -0.316 NA
ATOM      9  C   UNL     1      -7.506 -11.176  18.973  0.00  0.00    +0.004 C 
ATOM     10  C   UNL     1      -8.807 -10.637  18.332  0.00  0.00    +0.012 C 
ATOM     11  C   UNL     1      -7.099 -12.520  18.349  0.00  0.00    +0.019 C 
ATOM     12  C   UNL     1      -9.889 -11.733  18.373  0.00  0.00    +0.085 C 
ATOM     13  C   UNL     1      -8.260 -13.514  18.359  0.00  0.00    +0.081 C 
ATOM     36  H   UNL     1      -9.258 -12.788  16.732  0.00  0.00    +0.122 HD
ENDROOT
BRANCH  10  14
ATOM     14  C   UNL     1      -8.622 -10.109  16.904  0.00  0.00    +0.064 C 
BRANCH  14  16
ATOM      3  O   UNL     1     -10.504  -7.052  17.180  0.00  0.00    -0.359 OA
ATOM      8  N   UNL     1      -9.840  -8.142  17.731  0.00  0.00    -0.083 NA
ATOM     16  C   UNL     1      -9.399  -8.843  16.683  0.00  0.00    +0.084 A 
ATOM     18  C   UNL     1      -9.752  -8.252  15.458  0.00  0.00    +0.071 A 
ATOM     19  C   UNL     1     -10.445  -7.129  15.826  0.00  0.00    +0.148 A 
BRANCH  19  21
ATOM     21  C   UNL     1     -11.102  -6.050  15.079  0.00  0.00    +0.151 C 
BRANCH  21   1
ATOM      1  S   UNL     1     -12.909  -6.274  14.928  0.00  0.00    -0.117 S 
BRANCH   1  28
ATOM     28  C   UNL     1     -13.294  -5.091  13.644  0.00  0.00    +0.008 A 
ATOM     29  C   UNL     1     -12.266  -4.404  12.998  0.00  0.00    +0.015 A 
ATOM     30  C   UNL     1     -14.621  -4.855  13.289  0.00  0.00    +0.015 A 
ATOM     31  C   UNL     1     -12.567  -3.481  11.997  0.00  0.00    +0.001 A 
ATOM     32  C   UNL     1     -14.923  -3.933  12.288  0.00  0.00    +0.001 A 
ATOM     35  C   UNL     1     -13.895  -3.246  11.641  0.00  0.00    +0.000 A 
ENDBRANCH   1  28
ENDBRANCH  21   1
ENDBRANCH  19  21
ENDBRANCH  14  16
ENDBRANCH  10  14
BRANCH   9  15
ATOM     15  C   UNL     1      -6.347 -10.182  18.924  0.00  0.00    +0.099 C 
BRANCH  15  17
ATOM      2  O   UNL     1      -4.407 -11.606  19.170  0.00  0.00    -0.276 OA
ATOM      7  N   UNL     1      -4.711 -10.426  17.192  0.00  0.00    -0.311 N 
ATOM     17  C   UNL     1      -5.055 -10.828  18.474  0.00  0.00    +0.214 C 
ATOM     37  H   UNL     1      -5.309  -9.770  16.697  0.00  0.00    +0.149 HD
BRANCH   7  20
ATOM     20  C   UNL     1      -3.524 -10.886  16.511  0.00  0.00    +0.139 C 
BRANCH  20  22
ATOM     22  C   UNL     1      -3.627 -10.714  15.023  0.00  0.00    -0.027 A 
ATOM     23  C   UNL     1      -4.870 -10.487  14.432  0.00  0.00    +0.054 A 
ATOM     24  C   UNL     1      -2.481 -10.778  14.232  0.00  0.00    +0.009 A 
ATOM     25  C   UNL     1      -4.967 -10.325  13.050  0.00  0.00    +0.162 A 
ATOM     26  C   UNL     1      -2.577 -10.615  12.850  0.00  0.00    +0.050 A 
ATOM     27  C   UNL     1      -3.820 -10.389  12.259  0.00  0.00    +0.162 A 
BRANCH  25   4
ATOM      4  O   UNL     1      -6.187 -10.103  12.485  0.00  0.00    -0.491 OA
ATOM     33  C   UNL     1      -7.322 -10.175  13.346  0.00  0.00    +0.277 C 
ENDBRANCH  25   4
BRANCH  27   5
ATOM      5  O   UNL     1      -3.901 -10.232  10.908  0.00  0.00    -0.491 OA
ATOM     34  C   UNL     1      -3.039  -9.263  10.316  0.00  0.00    +0.277 C 
ENDBRANCH  27   5
ENDBRANCH  20  22
ENDBRANCH   7  20
ENDBRANCH  15  17
ENDBRANCH   9  15
TORSDOF 11
ENDMDL
MODEL 10
REMARK VINA RESULT:      -6.5     25.347     28.445
REMARK  Name = 26743120
REMARK  13 active torsions:
REMARK  status: ('A' for Active; 'I' for Inactive)
REMARK    1  A    between atoms: S_1  and  C_21
REMARK    2  A    between atoms: S_1  and  C_28
REMARK    3  A    between atoms: O_4  and  C_25
REMARK    4  A    between atoms: O_4  and  C_33
REMARK    5  A    between atoms: O_5  and  C_27
REMARK    6  A    between atoms: O_5  and  C_34
REMARK    7  A    between atoms: N_7  and  C_20
REMARK    8  A    between atoms: C_9  and  C_15
REMARK    9  A    between atoms: C_10  and  C_14
REMARK   10  A    between atoms: C_14  and  C_16
REMARK   11  A    between atoms: C_15  and  C_17
REMARK   12  A    between atoms: C_19  and  C_21
REMARK   13  A    between atoms: C_20  and  C_22
REMARK                            x       y       z     vdW  Elec       q    Type
REMARK                         _______ _______ _______ _____ _____    ______ ____
ROOT
ATOM      6  N   UNL     1      14.525   5.522  -1.736  0.00  0.00    -0.316 NA
ATOM      9  C   UNL     1      12.822   4.550   0.440  0.00  0.00    +0.004 C 
ATOM     10  C   UNL     1      13.556   5.910   0.530  0.00  0.00    +0.012 C 
ATOM     11  C   UNL     1      13.544   3.596  -0.523  0.00  0.00    +0.019 C 
ATOM     12  C   UNL     1      13.787   6.461  -0.889  0.00  0.00    +0.085 C 
ATOM     13  C   UNL     1      13.802   4.258  -1.876  0.00  0.00    +0.081 C 
ATOM     36  H   UNL     1      15.446   5.345  -1.340  0.00  0.00    +0.122 HD
ENDROOT
BRANCH  10  14
ATOM     14  C   UNL     1      14.876   5.851   1.311  0.00  0.00    +0.064 C 
BRANCH  14  16
ATOM      3  O   UNL     1      15.424   8.331   3.862  0.00  0.00    -0.359 OA
ATOM      8  N   UNL     1      15.746   7.710   2.661  0.00  0.00    -0.083 NA
ATOM     16  C   UNL     1      14.837   6.741   2.519  0.00  0.00    +0.084 A 
ATOM     18  C   UNL     1      13.927   6.703   3.589  0.00  0.00    +0.071 A 
ATOM     19  C   UNL     1      14.339   7.722   4.405  0.00  0.00    +0.148 A 
BRANCH  19  21
ATOM     21  C   UNL     1      13.861   8.256   5.686  0.00  0.00    +0.151 C 
BRANCH  21   1
ATOM      1  S   UNL     1      13.448   6.953   6.900  0.00  0.00    -0.117 S 
BRANCH   1  28
ATOM     28  C   UNL     1      11.731   7.324   7.227  0.00  0.00    +0.008 A 
ATOM     29  C   UNL     1      10.885   6.329   7.719  0.00  0.00    +0.015 A 
ATOM     30  C   UNL     1      11.236   8.605   6.991  0.00  0.00    +0.015 A 
ATOM     31  C   UNL     1       9.544   6.618   7.974  0.00  0.00    +0.001 A 
ATOM     32  C   UNL     1       9.896   8.895   7.246  0.00  0.00    +0.001 A 
ATOM     35  C   UNL     1       9.050   7.902   7.738  0.00  0.00    +0.000 A 
ENDBRANCH   1  28
ENDBRANCH  21   1
ENDBRANCH  19  21
ENDBRANCH  14  16
ENDBRANCH  10  14
BRANCH   9  15
ATOM     15  C   UNL     1      12.601   3.887   1.798  0.00  0.00    +0.099 C 
BRANCH  15  17
ATOM      2  O   UNL     1      10.184   3.953   1.714  0.00  0.00    -0.276 OA
ATOM      7  N   UNL     1      11.278   4.649   3.643  0.00  0.00    -0.311 N 
ATOM     17  C   UNL     1      11.217   4.154   2.348  0.00  0.00    +0.214 C 
ATOM     37  H   UNL     1      12.183   4.790   4.083  0.00  0.00    +0.149 HD
BRANCH   7  20
ATOM     20  C   UNL     1      10.105   4.994   4.413  0.00  0.00    +0.139 C 
BRANCH  20  22
ATOM     22  C   UNL     1       9.651   6.400   4.145  0.00  0.00    -0.027 A 
ATOM     23  C   UNL     1      10.534   7.322   3.583  0.00  0.00    +0.054 A 
ATOM     24  C   UNL     1       8.347   6.783   4.455  0.00  0.00    +0.009 A 
ATOM     25  C   UNL     1      10.112   8.628   3.332  0.00  0.00    +0.162 A 
ATOM     26  C   UNL     1       7.925   8.089   4.204  0.00  0.00    +0.050 A 
ATOM     27  C   UNL     1       8.807   9.011   3.642  0.00  0.00    +0.162 A 
BRANCH  25   4
ATOM      4  O   UNL     1      10.983   9.519   2.781  0.00  0.00    -0.491 OA
ATOM     33  C   UNL     1      11.717  10.348   3.680  0.00  0.00    +0.277 C 
ENDBRANCH  25   4
BRANCH  27   5
ATOM      5  O   UNL     1       8.383  10.283   3.401  0.00  0.00    -0.491 OA
ATOM     34  C   UNL     1       7.690  10.514   2.176  0.00  0.00    +0.277 C 
ENDBRANCH  27   5
ENDBRANCH  20  22
ENDBRANCH   7  20
ENDBRANCH  15  17
ENDBRANCH   9  15
TORSDOF 11
ENDMDL
