REMARK  Name = 40777671
REMARK  8 active torsions:
REMARK  status: ('A' for Active; 'I' for Inactive)
REMARK    1  A    between atoms: S_1  and  N_8
REMARK    2  A    between atoms: S_1  and  C_22
REMARK    3  A    between atoms: N_8  and  C_13
REMARK    4  A    between atoms: N_9  and  C_21
REMARK    5  A    between atoms: C_11  and  C_14
REMARK    6  A    between atoms: C_17  and  C_19
REMARK    7  A    between atoms: C_18  and  C_20
REMARK    8  A    between atoms: C_28  and  C_31
REMARK                            x       y       z     vdW  Elec       q    Type
REMARK                         _______ _______ _______ _____ _____    ______ ____
ROOT
ATOM      9  N   UNL     1      -1.878  -0.636   0.766  0.00  0.00    -0.236 N 
ATOM     10  N   UNL     1      -1.575  -1.836   1.291  0.00  0.00    -0.171 NA
ATOM     14  C   UNL     1       0.238  -0.448   1.274  0.00  0.00    +0.003 A 
ATOM     17  C   UNL     1      -0.826   0.231   0.733  0.00  0.00    +0.046 A 
ATOM     18  C   UNL     1      -0.281  -1.715   1.599  0.00  0.00    +0.064 A 
ATOM     19  C   UNL     1      -0.924   1.605   0.198  0.00  0.00    +0.066 C 
ATOM     20  C   UNL     1       0.427  -2.853   2.211  0.00  0.00    +0.068 C 
ENDROOT
BRANCH   9  21
ATOM     21  C   UNL     1      -3.175  -0.383   0.320  0.00  0.00    +0.066 A 
ATOM     23  C   UNL     1      -3.390   0.508  -0.731  0.00  0.00    +0.028 A 
ATOM     24  C   UNL     1      -4.258  -1.019   0.928  0.00  0.00    +0.028 A 
ATOM     26  C   UNL     1      -4.688   0.763  -1.174  0.00  0.00    +0.014 A 
ATOM     27  C   UNL     1      -5.555  -0.763   0.485  0.00  0.00    +0.014 A 
ATOM     28  C   UNL     1      -5.771   0.128  -0.566  0.00  0.00    +0.055 A 
BRANCH  28  31
ATOM      3  F   UNL     1      -7.194   1.295  -2.071  0.00  0.00    -0.166 F 
ATOM      4  F   UNL     1      -7.811  -0.709  -1.494  0.00  0.00    -0.166 F 
ATOM      5  F   UNL     1      -7.972   0.924  -0.075  0.00  0.00    -0.166 F 
ATOM     31  C   UNL     1      -7.158   0.402  -1.040  0.00  0.00    +0.417 C 
ENDBRANCH  28  31
ENDBRANCH   9  21
BRANCH  14  11
ATOM     11  C   UNL     1       1.650   0.054   1.472  0.00  0.00    +0.047 C 
ATOM     12  C   UNL     1       2.327   0.506   0.161  0.00  0.00    +0.037 C 
ATOM     13  C   UNL     1       3.211   1.701   0.535  0.00  0.00    +0.100 C 
ATOM     15  C   UNL     1       1.764   1.277   2.335  0.00  0.00    -0.021 C 
ATOM     16  C   UNL     1       2.620   2.168   1.823  0.00  0.00    -0.010 C 
BRANCH  13   8
ATOM      8  N   UNL     1       4.604   1.265   0.772  0.00  0.00    -0.183 NA
ATOM     32  H   UNL     1       4.714   0.526   1.480  0.00  0.00    +0.149 HD
BRANCH   8   1
ATOM      1  S   UNL     1       5.739   1.317  -0.492  0.00  0.00    +0.065 S 
ATOM      6  O   UNL     1       7.076   1.405   0.064  0.00  0.00    -0.153 OA
ATOM      7  O   UNL     1       5.296   2.281  -1.482  0.00  0.00    -0.153 OA
BRANCH   1  22
ATOM      2  S   UNL     1       6.129  -1.578  -0.248  0.00  0.00    -0.077 S 
ATOM     22  C   UNL     1       5.553  -0.286  -1.214  0.00  0.00    +0.142 A 
ATOM     25  C   UNL     1       5.032  -0.727  -2.410  0.00  0.00    +0.036 A 
ATOM     29  C   UNL     1       5.108  -2.144  -2.537  0.00  0.00    +0.010 A 
ATOM     30  C   UNL     1       5.683  -2.732  -1.432  0.00  0.00    +0.047 A 
ENDBRANCH   1  22
ENDBRANCH   8   1
ENDBRANCH  13   8
ENDBRANCH  14  11
TORSDOF 6
