REMARK  Name = 38031193
REMARK  13 active torsions:
REMARK  status: ('A' for Active; 'I' for Inactive)
REMARK    1  A    between atoms: O_1  and  C_21
REMARK    2  A    between atoms: N_3  and  C_11
REMARK    3  A    between atoms: C_6  and  C_10
REMARK    4  A    between atoms: C_7  and  C_11
REMARK    5  A    between atoms: C_9  and  C_14
REMARK    6  A    between atoms: C_10  and  C_17
REMARK    7  A    between atoms: C_10  and  C_18
REMARK    8  A    between atoms: C_13  and  C_22
REMARK    9  A    between atoms: C_14  and  C_23
REMARK   10  A    between atoms: C_24  and  C_25
REMARK   11  A    between atoms: C_25  and  C_26
REMARK   12  A    between atoms: C_25  and  C_27
REMARK   13  A    between atoms: C_25  and  C_28
REMARK                            x       y       z     vdW  Elec       q    Type
REMARK                         _______ _______ _______ _____ _____    ______ ____
ROOT
ATOM      6  C   UNL     1      -0.879  -1.094  -0.994  0.00  0.00    +0.000 C 
ATOM      7  C   UNL     1      -2.026  -1.351   0.011  0.00  0.00    +0.029 C 
ATOM      8  C   UNL     1       0.423  -0.763  -0.252  0.00  0.00    +0.012 C 
ATOM      9  C   UNL     1       0.853  -1.857   0.749  0.00  0.00    +0.024 C 
ATOM     12  C   UNL     1      -1.597  -2.215   1.170  0.00  0.00    -0.023 C 
ATOM     13  C   UNL     1      -0.318  -2.463   1.508  0.00  0.00    -0.073 C 
ATOM     22  C   UNL     1      -0.001  -3.411   2.632  0.00  0.00    +0.039 C 
ENDROOT
BRANCH   6  10
ATOM     10  C   UNL     1      -0.689  -2.286  -1.942  0.00  0.00    -0.013 C 
ATOM     17  C   UNL     1      -1.802  -2.320  -2.984  0.00  0.00    +0.007 C 
ATOM     18  C   UNL     1       0.679  -2.218  -2.614  0.00  0.00    +0.007 C 
ENDBRANCH   6  10
BRANCH   7  11
ATOM     11  C   UNL     1      -2.611  -0.042   0.549  0.00  0.00    +0.092 C 
BRANCH  11   3
ATOM      3  N   UNL     1      -3.061   0.811  -0.549  0.00  0.00    -0.302 NA
ATOM     15  C   UNL     1      -4.368   0.397  -1.076  0.00  0.00    +0.087 C 
ATOM     16  C   UNL     1      -3.058   2.235  -0.184  0.00  0.00    +0.087 C 
ATOM     19  C   UNL     1      -5.545   0.736  -0.160  0.00  0.00    +0.046 C 
ATOM     20  C   UNL     1      -4.191   2.637   0.763  0.00  0.00    +0.046 C 
ATOM     21  C   UNL     1      -5.550   2.216   0.210  0.00  0.00    +0.117 C 
BRANCH  21   1
ATOM      1  O   UNL     1      -6.562   2.447   1.183  0.00  0.00    -0.392 OA
ATOM     29  H   UNL     1      -6.541   3.393   1.408  0.00  0.00    +0.210 HD
ENDBRANCH  21   1
ENDBRANCH  11   3
ENDBRANCH   7  11
BRANCH   9  14
ATOM     14  C   UNL     1       1.930  -1.279   1.675  0.00  0.00    +0.105 C 
BRANCH  14  23
ATOM      2  O   UNL     1       3.122   0.663   0.802  0.00  0.00    -0.424 OA
ATOM      4  N   UNL     1       4.052  -1.299   0.266  0.00  0.00    -0.112 NA
ATOM      5  N   UNL     1       4.824  -0.295  -0.287  0.00  0.00    -0.112 NA
ATOM     23  C   UNL     1       3.070  -0.694   0.892  0.00  0.00    +0.218 A 
ATOM     24  C   UNL     1       4.244   0.833   0.050  0.00  0.00    +0.223 A 
BRANCH  24  25
ATOM     25  C   UNL     1       4.632   2.214  -0.260  0.00  0.00    +0.040 C 
ATOM     26  C   UNL     1       5.939   2.278  -1.125  0.00  0.00    +0.020 C 
ATOM     27  C   UNL     1       4.907   3.054   1.036  0.00  0.00    +0.020 C 
ATOM     28  C   UNL     1       3.582   3.065  -1.068  0.00  0.00    +0.020 C 
ENDBRANCH  24  25
ENDBRANCH  14  23
ENDBRANCH   9  14
TORSDOF 7
