MODEL 1
REMARK VINA RESULT:      -9.0      0.000      0.000
REMARK  Name = 25390950
REMARK  4 active torsions:
REMARK  status: ('A' for Active; 'I' for Inactive)
REMARK    1  A    between atoms: O_4  and  C_22
REMARK    2  A    between atoms: O_4  and  C_27
REMARK    3  A    between atoms: N_6  and  C_9
REMARK    4  A    between atoms: C_19  and  C_21
REMARK                            x       y       z     vdW  Elec       q    Type
REMARK                         _______ _______ _______ _____ _____    ______ ____
ROOT
ATOM      2  O   UNL     1      11.969   7.103  18.777  0.00  0.00    -0.273 OA
ATOM      3  O   UNL     1      15.360   9.170  22.157  0.00  0.00    -0.270 OA
ATOM      5  N   UNL     1      13.484   7.950  21.541  0.00  0.00    -0.286 N 
ATOM      7  N   UNL     1      14.246   6.917  18.875  0.00  0.00    -0.283 N 
ATOM      8  C   UNL     1      12.946   6.730  20.951  0.00  0.00    +0.164 C 
ATOM      9  C   UNL     1      10.606   7.481  21.692  0.00  0.00    +0.054 C 
ATOM     10  C   UNL     1      11.570   6.314  21.483  0.00  0.00    +0.050 C 
ATOM     11  C   UNL     1      11.281   8.548  22.546  0.00  0.00    +0.037 C 
ATOM     12  C   UNL     1      12.556   9.034  21.879  0.00  0.00    +0.110 C 
ATOM     13  C   UNL     1      12.989   6.957  19.451  0.00  0.00    +0.238 C 
ATOM     14  C   UNL     1      14.854   8.206  21.580  0.00  0.00    +0.249 C 
ATOM     15  C   UNL     1      15.769   7.309  20.826  0.00  0.00    +0.059 A 
ATOM     16  C   UNL     1      15.495   6.829  19.531  0.00  0.00    +0.046 A 
ATOM     17  C   UNL     1      17.047   7.120  21.379  0.00  0.00    +0.023 A 
ATOM     18  C   UNL     1      16.531   6.230  18.796  0.00  0.00    +0.024 A 
ATOM     19  C   UNL     1      18.049   6.477  20.653  0.00  0.00    -0.014 A 
ATOM     20  C   UNL     1      17.795   6.044  19.357  0.00  0.00    +0.010 A 
ATOM     30  H   UNL     1      14.265   6.843  17.860  0.00  0.00    +0.155 HD
ENDROOT
BRANCH  19  21
ATOM      1 CL   UNL     1      22.207   3.478  21.135  0.00  0.00    -0.084 Cl
ATOM     21  C   UNL     1      19.358   6.283  21.238  0.00  0.00    +0.025 A 
ATOM     22  C   UNL     1      19.911   7.242  22.086  0.00  0.00    +0.128 A 
ATOM     23  C   UNL     1      20.068   5.120  20.942  0.00  0.00    +0.032 A 
ATOM     24  C   UNL     1      21.175   7.036  22.641  0.00  0.00    +0.047 A 
ATOM     25  C   UNL     1      21.332   4.914  21.496  0.00  0.00    +0.042 A 
ATOM     26  C   UNL     1      21.885   5.872  22.346  0.00  0.00    +0.023 A 
BRANCH  22   4
ATOM      4  O   UNL     1      19.240   8.389  22.390  0.00  0.00    -0.495 OA
ATOM     27  C   UNL     1      19.787   9.609  21.893  0.00  0.00    +0.277 C 
ENDBRANCH  22   4
ENDBRANCH  19  21
BRANCH   9   6
ATOM      6  N   UNL     1       9.381   7.028  22.310  0.00  0.00    -0.327 NA
ATOM     28  H   UNL     1       8.581   7.292  21.736  0.00  0.00    +0.118 HD
ATOM     29  H   UNL     1       9.253   7.485  23.211  0.00  0.00    +0.118 HD
ENDBRANCH   9   6
TORSDOF 3
ENDMDL
MODEL 2
REMARK VINA RESULT:      -7.6      1.827      2.396
REMARK  Name = 25390950
REMARK  4 active torsions:
REMARK  status: ('A' for Active; 'I' for Inactive)
REMARK    1  A    between atoms: O_4  and  C_22
REMARK    2  A    between atoms: O_4  and  C_27
REMARK    3  A    between atoms: N_6  and  C_9
REMARK    4  A    between atoms: C_19  and  C_21
REMARK                            x       y       z     vdW  Elec       q    Type
REMARK                         _______ _______ _______ _____ _____    ______ ____
ROOT
ATOM      2  O   UNL     1      13.681   7.081  19.183  0.00  0.00    -0.273 OA
ATOM      3  O   UNL     1      17.800   9.643  21.098  0.00  0.00    -0.270 OA
ATOM      5  N   UNL     1      15.691   8.678  21.198  0.00  0.00    -0.286 N 
ATOM      7  N   UNL     1      15.893   6.502  19.204  0.00  0.00    -0.283 N 
ATOM      8  C   UNL     1      14.894   7.459  21.234  0.00  0.00    +0.164 C 
ATOM      9  C   UNL     1      12.828   8.901  21.726  0.00  0.00    +0.054 C 
ATOM     10  C   UNL     1      13.563   7.586  21.983  0.00  0.00    +0.050 C 
ATOM     11  C   UNL     1      13.774  10.068  21.984  0.00  0.00    +0.037 C 
ATOM     12  C   UNL     1      14.998   9.966  21.090  0.00  0.00    +0.110 C 
ATOM     13  C   UNL     1      14.754   7.028  19.786  0.00  0.00    +0.238 C 
ATOM     14  C   UNL     1      17.076   8.649  21.032  0.00  0.00    +0.249 C 
ATOM     15  C   UNL     1      17.724   7.356  20.686  0.00  0.00    +0.059 A 
ATOM     16  C   UNL     1      17.195   6.447  19.750  0.00  0.00    +0.046 A 
ATOM     17  C   UNL     1      19.025   7.163  21.182  0.00  0.00    +0.023 A 
ATOM     18  C   UNL     1      18.011   5.403  19.284  0.00  0.00    +0.024 A 
ATOM     19  C   UNL     1      19.802   6.091  20.744  0.00  0.00    -0.014 A 
ATOM     20  C   UNL     1      19.299   5.218  19.785  0.00  0.00    +0.010 A 
ATOM     30  H   UNL     1      15.753   6.010  18.324  0.00  0.00    +0.155 HD
ENDROOT
BRANCH  19  21
ATOM      1 CL   UNL     1      22.878   3.592  24.032  0.00  0.00    -0.084 Cl
ATOM     21  C   UNL     1      21.136   5.900  21.268  0.00  0.00    +0.025 A 
ATOM     22  C   UNL     1      22.209   6.647  20.782  0.00  0.00    +0.128 A 
ATOM     23  C   UNL     1      21.343   4.955  22.272  0.00  0.00    +0.032 A 
ATOM     24  C   UNL     1      23.489   6.449  21.301  0.00  0.00    +0.047 A 
ATOM     25  C   UNL     1      22.622   4.756  22.791  0.00  0.00    +0.042 A 
ATOM     26  C   UNL     1      23.696   5.504  22.306  0.00  0.00    +0.023 A 
BRANCH  22   4
ATOM      4  O   UNL     1      22.036   7.577  19.799  0.00  0.00    -0.495 OA
ATOM     27  C   UNL     1      22.613   8.863  20.016  0.00  0.00    +0.277 C 
ENDBRANCH  22   4
ENDBRANCH  19  21
BRANCH   9   6
ATOM      6  N   UNL     1      11.651   9.000  22.557  0.00  0.00    -0.327 NA
ATOM     28  H   UNL     1      10.986   8.268  22.313  0.00  0.00    +0.118 HD
ATOM     29  H   UNL     1      11.178   9.887  22.390  0.00  0.00    +0.118 HD
ENDBRANCH   9   6
TORSDOF 3
ENDMDL
MODEL 3
REMARK VINA RESULT:      -7.6      4.963      7.736
REMARK  Name = 25390950
REMARK  4 active torsions:
REMARK  status: ('A' for Active; 'I' for Inactive)
REMARK    1  A    between atoms: O_4  and  C_22
REMARK    2  A    between atoms: O_4  and  C_27
REMARK    3  A    between atoms: N_6  and  C_9
REMARK    4  A    between atoms: C_19  and  C_21
REMARK                            x       y       z     vdW  Elec       q    Type
REMARK                         _______ _______ _______ _____ _____    ______ ____
ROOT
ATOM      2  O   UNL     1      10.317  12.427  25.836  0.00  0.00    -0.273 OA
ATOM      3  O   UNL     1      12.621  13.628  21.314  0.00  0.00    -0.270 OA
ATOM      5  N   UNL     1      12.533  13.322  23.614  0.00  0.00    -0.286 N 
ATOM      7  N   UNL     1      10.466  11.225  23.897  0.00  0.00    -0.283 N 
ATOM      8  C   UNL     1      12.462  12.389  24.731  0.00  0.00    +0.164 C 
ATOM      9  C   UNL     1      12.871  14.364  26.320  0.00  0.00    +0.054 C 
ATOM     10  C   UNL     1      13.122  12.886  26.022  0.00  0.00    +0.050 C 
ATOM     11  C   UNL     1      13.244  15.196  25.099  0.00  0.00    +0.037 C 
ATOM     12  C   UNL     1      12.433  14.758  23.891  0.00  0.00    +0.110 C 
ATOM     13  C   UNL     1      10.990  12.049  24.876  0.00  0.00    +0.238 C 
ATOM     14  C   UNL     1      12.462  12.891  22.289  0.00  0.00    +0.249 C 
ATOM     15  C   UNL     1      12.106  11.473  22.019  0.00  0.00    +0.059 A 
ATOM     16  C   UNL     1      11.098  10.779  22.714  0.00  0.00    +0.046 A 
ATOM     17  C   UNL     1      12.682  10.896  20.874  0.00  0.00    +0.023 A 
ATOM     18  C   UNL     1      10.645   9.551  22.203  0.00  0.00    +0.024 A 
ATOM     19  C   UNL     1      12.253   9.653  20.411  0.00  0.00    -0.014 A 
ATOM     20  C   UNL     1      11.226   8.986  21.068  0.00  0.00    +0.010 A 
ATOM     30  H   UNL     1       9.558  10.814  24.104  0.00  0.00    +0.155 HD
ENDROOT
BRANCH  19  21
ATOM      1 CL   UNL     1      12.466   9.429  15.271  0.00  0.00    -0.084 Cl
ATOM     21  C   UNL     1      12.860   9.068  19.235  0.00  0.00    +0.025 A 
ATOM     22  C   UNL     1      13.865   8.108  19.351  0.00  0.00    +0.128 A 
ATOM     23  C   UNL     1      12.428   9.478  17.974  0.00  0.00    +0.032 A 
ATOM     24  C   UNL     1      14.437   7.556  18.204  0.00  0.00    +0.047 A 
ATOM     25  C   UNL     1      13.000   8.926  16.827  0.00  0.00    +0.042 A 
ATOM     26  C   UNL     1      14.005   7.965  16.942  0.00  0.00    +0.023 A 
BRANCH  22   4
ATOM      4  O   UNL     1      14.308   7.691  20.571  0.00  0.00    -0.495 OA
ATOM     27  C   UNL     1      15.218   6.594  20.589  0.00  0.00    +0.277 C 
ENDBRANCH  22   4
ENDBRANCH  19  21
BRANCH   9   6
ATOM      6  N   UNL     1      13.622  14.786  27.479  0.00  0.00    -0.327 NA
ATOM     28  H   UNL     1      14.605  14.902  27.237  0.00  0.00    +0.118 HD
ATOM     29  H   UNL     1      13.585  14.069  28.201  0.00  0.00    +0.118 HD
ENDBRANCH   9   6
TORSDOF 3
ENDMDL
MODEL 4
REMARK VINA RESULT:      -7.6      3.870      8.034
REMARK  Name = 25390950
REMARK  4 active torsions:
REMARK  status: ('A' for Active; 'I' for Inactive)
REMARK    1  A    between atoms: O_4  and  C_22
REMARK    2  A    between atoms: O_4  and  C_27
REMARK    3  A    between atoms: N_6  and  C_9
REMARK    4  A    between atoms: C_19  and  C_21
REMARK                            x       y       z     vdW  Elec       q    Type
REMARK                         _______ _______ _______ _____ _____    ______ ____
ROOT
ATOM      2  O   UNL     1      21.371   8.748  22.034  0.00  0.00    -0.273 OA
ATOM      3  O   UNL     1      17.844   5.995  19.355  0.00  0.00    -0.270 OA
ATOM      5  N   UNL     1      19.326   6.384  21.100  0.00  0.00    -0.286 N 
ATOM      7  N   UNL     1      19.276   9.333  21.330  0.00  0.00    -0.283 N 
ATOM      8  C   UNL     1      19.621   7.114  22.326  0.00  0.00    +0.164 C 
ATOM      9  C   UNL     1      21.653   5.583  22.671  0.00  0.00    +0.054 C 
ATOM     10  C   UNL     1      20.509   6.360  23.322  0.00  0.00    +0.050 C 
ATOM     11  C   UNL     1      21.094   4.689  21.571  0.00  0.00    +0.037 C 
ATOM     12  C   UNL     1      20.365   5.521  20.530  0.00  0.00    +0.110 C 
ATOM     13  C   UNL     1      20.188   8.447  21.873  0.00  0.00    +0.238 C 
ATOM     14  C   UNL     1      18.188   6.653  20.339  0.00  0.00    +0.249 C 
ATOM     15  C   UNL     1      17.367   7.845  20.681  0.00  0.00    +0.059 A 
ATOM     16  C   UNL     1      17.917   9.095  21.024  0.00  0.00    +0.046 A 
ATOM     17  C   UNL     1      15.988   7.737  20.439  0.00  0.00    +0.023 A 
ATOM     18  C   UNL     1      17.077  10.220  21.051  0.00  0.00    +0.024 A 
ATOM     19  C   UNL     1      15.161   8.857  20.520  0.00  0.00    -0.014 A 
ATOM     20  C   UNL     1      15.708  10.101  20.813  0.00  0.00    +0.010 A 
ATOM     30  H   UNL     1      19.596  10.294  21.234  0.00  0.00    +0.155 HD
ENDROOT
BRANCH  19  21
ATOM      1 CL   UNL     1      10.472   7.943  22.442  0.00  0.00    -0.084 Cl
ATOM     21  C   UNL     1      13.741   8.730  20.275  0.00  0.00    +0.025 A 
ATOM     22  C   UNL     1      13.218   8.898  18.994  0.00  0.00    +0.128 A 
ATOM     23  C   UNL     1      12.892   8.436  21.342  0.00  0.00    +0.032 A 
ATOM     24  C   UNL     1      11.845   8.770  18.778  0.00  0.00    +0.047 A 
ATOM     25  C   UNL     1      11.519   8.309  21.127  0.00  0.00    +0.042 A 
ATOM     26  C   UNL     1      10.996   8.476  19.845  0.00  0.00    +0.023 A 
BRANCH  22   4
ATOM      4  O   UNL     1      14.024   9.188  17.933  0.00  0.00    -0.495 OA
ATOM     27  C   UNL     1      13.897   8.361  16.778  0.00  0.00    +0.277 C 
ENDBRANCH  22   4
ENDBRANCH  19  21
BRANCH   9   6
ATOM      6  N   UNL     1      22.366   4.802  23.655  0.00  0.00    -0.327 NA
ATOM     28  H   UNL     1      21.822   3.980  23.911  0.00  0.00    +0.118 HD
ATOM     29  H   UNL     1      22.491   5.344  24.509  0.00  0.00    +0.118 HD
ENDBRANCH   9   6
TORSDOF 3
ENDMDL
MODEL 5
REMARK VINA RESULT:      -7.4     26.875     29.406
REMARK  Name = 25390950
REMARK  4 active torsions:
REMARK  status: ('A' for Active; 'I' for Inactive)
REMARK    1  A    between atoms: O_4  and  C_22
REMARK    2  A    between atoms: O_4  and  C_27
REMARK    3  A    between atoms: N_6  and  C_9
REMARK    4  A    between atoms: C_19  and  C_21
REMARK                            x       y       z     vdW  Elec       q    Type
REMARK                         _______ _______ _______ _____ _____    ______ ____
ROOT
ATOM      2  O   UNL     1      -1.660 -10.724  16.049  0.00  0.00    -0.273 OA
ATOM      3  O   UNL     1      -4.988 -13.251  12.929  0.00  0.00    -0.270 OA
ATOM      5  N   UNL     1      -4.392 -11.974  14.774  0.00  0.00    -0.286 N 
ATOM      7  N   UNL     1      -2.004 -10.524  13.797  0.00  0.00    -0.283 N 
ATOM      8  C   UNL     1      -3.950 -10.684  15.289  0.00  0.00    +0.164 C 
ATOM      9  C   UNL     1      -4.337 -11.575  17.666  0.00  0.00    +0.054 C 
ATOM     10  C   UNL     1      -4.406 -10.376  16.720  0.00  0.00    +0.050 C 
ATOM     11  C   UNL     1      -5.076 -12.753  17.043  0.00  0.00    +0.037 C 
ATOM     12  C   UNL     1      -4.466 -13.110  15.697  0.00  0.00    +0.110 C 
ATOM     13  C   UNL     1      -2.443 -10.672  15.100  0.00  0.00    +0.238 C 
ATOM     14  C   UNL     1      -4.522 -12.215  13.406  0.00  0.00    +0.249 C 
ATOM     15  C   UNL     1      -4.008 -11.198  12.451  0.00  0.00    +0.059 A 
ATOM     16  C   UNL     1      -2.783 -10.524  12.618  0.00  0.00    +0.046 A 
ATOM     17  C   UNL     1      -4.704 -11.081  11.236  0.00  0.00    +0.023 A 
ATOM     18  C   UNL     1      -2.254  -9.802  11.535  0.00  0.00    +0.024 A 
ATOM     19  C   UNL     1      -4.186 -10.318  10.190  0.00  0.00    -0.014 A 
ATOM     20  C   UNL     1      -2.955  -9.690  10.335  0.00  0.00    +0.010 A 
ATOM     30  H   UNL     1      -1.021 -10.291  13.686  0.00  0.00    +0.155 HD
ENDROOT
BRANCH  19  21
ATOM      1 CL   UNL     1      -4.706 -11.792   5.283  0.00  0.00    -0.084 Cl
ATOM     21  C   UNL     1      -4.918 -10.201   8.947  0.00  0.00    +0.025 A 
ATOM     22  C   UNL     1      -6.013  -9.345   8.839  0.00  0.00    +0.128 A 
ATOM     23  C   UNL     1      -4.514 -10.959   7.848  0.00  0.00    +0.032 A 
ATOM     24  C   UNL     1      -6.705  -9.246   7.632  0.00  0.00    +0.047 A 
ATOM     25  C   UNL     1      -5.205 -10.861   6.640  0.00  0.00    +0.042 A 
ATOM     26  C   UNL     1      -6.301 -10.004   6.532  0.00  0.00    +0.023 A 
BRANCH  22   4
ATOM      4  O   UNL     1      -6.431  -8.595   9.899  0.00  0.00    -0.495 OA
ATOM     27  C   UNL     1      -7.770  -8.796  10.346  0.00  0.00    +0.277 C 
ENDBRANCH  22   4
ENDBRANCH  19  21
BRANCH   9   6
ATOM      6  N   UNL     1      -4.897 -11.241  18.955  0.00  0.00    -0.327 NA
ATOM     28  H   UNL     1      -4.262 -10.629  19.465  0.00  0.00    +0.118 HD
ATOM     29  H   UNL     1      -5.002 -12.083  19.519  0.00  0.00    +0.118 HD
ENDBRANCH   9   6
TORSDOF 3
ENDMDL
MODEL 6
REMARK VINA RESULT:      -7.3     28.147     30.746
REMARK  Name = 25390950
REMARK  4 active torsions:
REMARK  status: ('A' for Active; 'I' for Inactive)
REMARK    1  A    between atoms: O_4  and  C_22
REMARK    2  A    between atoms: O_4  and  C_27
REMARK    3  A    between atoms: N_6  and  C_9
REMARK    4  A    between atoms: C_19  and  C_21
REMARK                            x       y       z     vdW  Elec       q    Type
REMARK                         _______ _______ _______ _____ _____    ______ ____
ROOT
ATOM      2  O   UNL     1     -15.690   3.367  24.422  0.00  0.00    -0.273 OA
ATOM      3  O   UNL     1     -16.495   6.090  20.047  0.00  0.00    -0.270 OA
ATOM      5  N   UNL     1     -16.762   5.605  22.302  0.00  0.00    -0.286 N 
ATOM      7  N   UNL     1     -14.187   4.317  22.984  0.00  0.00    -0.283 N 
ATOM      8  C   UNL     1     -16.180   5.595  23.638  0.00  0.00    +0.164 C 
ATOM      9  C   UNL     1     -18.493   4.986  24.571  0.00  0.00    +0.054 C 
ATOM     10  C   UNL     1     -17.192   5.760  24.778  0.00  0.00    +0.050 C 
ATOM     11  C   UNL     1     -19.072   5.329  23.203  0.00  0.00    +0.037 C 
ATOM     12  C   UNL     1     -18.078   4.988  22.106  0.00  0.00    +0.110 C 
ATOM     13  C   UNL     1     -15.363   4.318  23.711  0.00  0.00    +0.238 C 
ATOM     14  C   UNL     1     -16.020   5.969  21.178  0.00  0.00    +0.249 C 
ATOM     15  C   UNL     1     -14.553   6.158  21.323  0.00  0.00    +0.059 A 
ATOM     16  C   UNL     1     -13.729   5.302  22.079  0.00  0.00    +0.046 A 
ATOM     17  C   UNL     1     -13.967   7.125  20.489  0.00  0.00    +0.023 A 
ATOM     18  C   UNL     1     -12.336   5.393  21.926  0.00  0.00    +0.024 A 
ATOM     19  C   UNL     1     -12.581   7.234  20.389  0.00  0.00    -0.014 A 
ATOM     20  C   UNL     1     -11.765   6.359  21.098  0.00  0.00    +0.010 A 
ATOM     30  H   UNL     1     -13.533   3.569  23.201  0.00  0.00    +0.155 HD
ENDROOT
BRANCH  19  21
ATOM      1 CL   UNL     1     -10.526   8.397  15.813  0.00  0.00    -0.084 Cl
ATOM     21  C   UNL     1     -11.991   8.238  19.531  0.00  0.00    +0.025 A 
ATOM     22  C   UNL     1     -11.822   9.549  19.977  0.00  0.00    +0.128 A 
ATOM     23  C   UNL     1     -11.592   7.882  18.244  0.00  0.00    +0.032 A 
ATOM     24  C   UNL     1     -11.251  10.503  19.134  0.00  0.00    +0.047 A 
ATOM     25  C   UNL     1     -11.022   8.836  17.400  0.00  0.00    +0.042 A 
ATOM     26  C   UNL     1     -10.851  10.147  17.846  0.00  0.00    +0.023 A 
BRANCH  22   4
ATOM      4  O   UNL     1     -12.205   9.925  21.230  0.00  0.00    -0.495 OA
ATOM     27  C   UNL     1     -12.496  11.307  21.430  0.00  0.00    +0.277 C 
ENDBRANCH  22   4
ENDBRANCH  19  21
BRANCH   9   6
ATOM      6  N   UNL     1     -19.440   5.288  25.619  0.00  0.00    -0.327 NA
ATOM     28  H   UNL     1     -20.220   5.825  25.243  0.00  0.00    +0.118 HD
ATOM     29  H   UNL     1     -19.002   5.873  26.329  0.00  0.00    +0.118 HD
ENDBRANCH   9   6
TORSDOF 3
ENDMDL
MODEL 7
REMARK VINA RESULT:      -7.2     14.503     15.596
REMARK  Name = 25390950
REMARK  4 active torsions:
REMARK  status: ('A' for Active; 'I' for Inactive)
REMARK    1  A    between atoms: O_4  and  C_22
REMARK    2  A    between atoms: O_4  and  C_27
REMARK    3  A    between atoms: N_6  and  C_9
REMARK    4  A    between atoms: C_19  and  C_21
REMARK                            x       y       z     vdW  Elec       q    Type
REMARK                         _______ _______ _______ _____ _____    ______ ____
ROOT
ATOM      2  O   UNL     1       9.980   9.832   7.438  0.00  0.00    -0.273 OA
ATOM      3  O   UNL     1      13.664   6.142   7.556  0.00  0.00    -0.270 OA
ATOM      5  N   UNL     1      11.704   7.135   6.804  0.00  0.00    -0.286 N 
ATOM      7  N   UNL     1      12.249  10.012   7.221  0.00  0.00    -0.283 N 
ATOM      8  C   UNL     1      11.080   8.205   6.037  0.00  0.00    +0.164 C 
ATOM      9  C   UNL     1       8.826   7.014   6.331  0.00  0.00    +0.054 C 
ATOM     10  C   UNL     1       9.726   7.843   5.416  0.00  0.00    +0.050 C 
ATOM     11  C   UNL     1       9.597   5.800   6.834  0.00  0.00    +0.037 C 
ATOM     12  C   UNL     1      10.845   6.237   7.583  0.00  0.00    +0.110 C 
ATOM     13  C   UNL     1      11.036   9.398   6.975  0.00  0.00    +0.238 C 
ATOM     14  C   UNL     1      13.084   7.079   7.004  0.00  0.00    +0.249 C 
ATOM     15  C   UNL     1      13.911   8.245   6.594  0.00  0.00    +0.059 A 
ATOM     16  C   UNL     1      13.533   9.583   6.817  0.00  0.00    +0.046 A 
ATOM     17  C   UNL     1      15.213   7.955   6.152  0.00  0.00    +0.023 A 
ATOM     18  C   UNL     1      14.495  10.593   6.655  0.00  0.00    +0.024 A 
ATOM     19  C   UNL     1      16.139   8.978   5.949  0.00  0.00    -0.014 A 
ATOM     20  C   UNL     1      15.784  10.296   6.213  0.00  0.00    +0.010 A 
ATOM     30  H   UNL     1      12.200  10.930   7.658  0.00  0.00    +0.155 HD
ENDROOT
BRANCH  19  21
ATOM      1 CL   UNL     1      21.110   8.312   7.118  0.00  0.00    -0.084 Cl
ATOM     21  C   UNL     1      17.474   8.666   5.488  0.00  0.00    +0.025 A 
ATOM     22  C   UNL     1      17.721   8.393   4.143  0.00  0.00    +0.128 A 
ATOM     23  C   UNL     1      18.522   8.640   6.408  0.00  0.00    +0.032 A 
ATOM     24  C   UNL     1      19.015   8.095   3.718  0.00  0.00    +0.047 A 
ATOM     25  C   UNL     1      19.817   8.342   5.984  0.00  0.00    +0.042 A 
ATOM     26  C   UNL     1      20.064   8.069   4.638  0.00  0.00    +0.023 A 
BRANCH  22   4
ATOM      4  O   UNL     1      16.715   8.409   3.222  0.00  0.00    -0.495 OA
ATOM     27  C   UNL     1      17.074   8.147   1.867  0.00  0.00    +0.277 C 
ENDBRANCH  22   4
ENDBRANCH  19  21
BRANCH   9   6
ATOM      6  N   UNL     1       7.626   6.608   5.635  0.00  0.00    -0.327 NA
ATOM     28  H   UNL     1       6.803   6.960   6.122  0.00  0.00    +0.118 HD
ATOM     29  H   UNL     1       7.549   5.593   5.634  0.00  0.00    +0.118 HD
ENDBRANCH   9   6
TORSDOF 3
ENDMDL
MODEL 8
REMARK VINA RESULT:      -7.1      4.159      8.191
REMARK  Name = 25390950
REMARK  4 active torsions:
REMARK  status: ('A' for Active; 'I' for Inactive)
REMARK    1  A    between atoms: O_4  and  C_22
REMARK    2  A    between atoms: O_4  and  C_27
REMARK    3  A    between atoms: N_6  and  C_9
REMARK    4  A    between atoms: C_19  and  C_21
REMARK                            x       y       z     vdW  Elec       q    Type
REMARK                         _______ _______ _______ _____ _____    ______ ____
ROOT
ATOM      2  O   UNL     1      23.040   4.627  20.086  0.00  0.00    -0.273 OA
ATOM      3  O   UNL     1      19.733   6.549  23.631  0.00  0.00    -0.270 OA
ATOM      5  N   UNL     1      21.622   6.581  22.282  0.00  0.00    -0.286 N 
ATOM      7  N   UNL     1      20.778   4.941  19.969  0.00  0.00    -0.283 N 
ATOM      8  C   UNL     1      22.176   6.712  20.940  0.00  0.00    +0.164 C 
ATOM      9  C   UNL     1      24.519   6.796  21.987  0.00  0.00    +0.054 C 
ATOM     10  C   UNL     1      23.589   7.305  20.886  0.00  0.00    +0.050 C 
ATOM     11  C   UNL     1      23.845   6.978  23.342  0.00  0.00    +0.037 C 
ATOM     12  C   UNL     1      22.524   6.228  23.382  0.00  0.00    +0.110 C 
ATOM     13  C   UNL     1      22.057   5.331  20.321  0.00  0.00    +0.238 C 
ATOM     14  C   UNL     1      20.246   6.555  22.511  0.00  0.00    +0.249 C 
ATOM     15  C   UNL     1      19.331   6.457  21.343  0.00  0.00    +0.059 A 
ATOM     16  C   UNL     1      19.564   5.612  20.241  0.00  0.00    +0.046 A 
ATOM     17  C   UNL     1      18.088   7.097  21.475  0.00  0.00    +0.023 A 
ATOM     18  C   UNL     1      18.518   5.377  19.334  0.00  0.00    +0.024 A 
ATOM     19  C   UNL     1      17.077   6.891  20.536  0.00  0.00    -0.014 A 
ATOM     20  C   UNL     1      17.288   6.020  19.473  0.00  0.00    +0.010 A 
ATOM     30  H   UNL     1      20.716   4.130  19.358  0.00  0.00    +0.155 HD
ENDROOT
BRANCH  19  21
ATOM      1 CL   UNL     1      12.008   6.493  21.349  0.00  0.00    -0.084 Cl
ATOM     21  C   UNL     1      15.804   7.562  20.681  0.00  0.00    +0.025 A 
ATOM     22  C   UNL     1      15.713   8.951  20.588  0.00  0.00    +0.128 A 
ATOM     23  C   UNL     1      14.659   6.802  20.917  0.00  0.00    +0.032 A 
ATOM     24  C   UNL     1      14.476   9.579  20.730  0.00  0.00    +0.047 A 
ATOM     25  C   UNL     1      13.422   7.430  21.060  0.00  0.00    +0.042 A 
ATOM     26  C   UNL     1      13.330   8.819  20.966  0.00  0.00    +0.023 A 
BRANCH  22   4
ATOM      4  O   UNL     1      16.817   9.718  20.360  0.00  0.00    -0.495 OA
ATOM     27  C   UNL     1      16.881  10.974  21.032  0.00  0.00    +0.277 C 
ENDBRANCH  22   4
ENDBRANCH  19  21
BRANCH   9   6
ATOM      6  N   UNL     1      25.786   7.489  21.946  0.00  0.00    -0.327 NA
ATOM     28  H   UNL     1      25.676   8.395  21.494  0.00  0.00    +0.118 HD
ATOM     29  H   UNL     1      26.454   6.964  21.384  0.00  0.00    +0.118 HD
ENDBRANCH   9   6
TORSDOF 3
ENDMDL
MODEL 9
REMARK VINA RESULT:      -7.1      6.146      7.990
REMARK  Name = 25390950
REMARK  4 active torsions:
REMARK  status: ('A' for Active; 'I' for Inactive)
REMARK    1  A    between atoms: O_4  and  C_22
REMARK    2  A    between atoms: O_4  and  C_27
REMARK    3  A    between atoms: N_6  and  C_9
REMARK    4  A    between atoms: C_19  and  C_21
REMARK                            x       y       z     vdW  Elec       q    Type
REMARK                         _______ _______ _______ _____ _____    ______ ____
ROOT
ATOM      2  O   UNL     1      13.170   9.937  21.928  0.00  0.00    -0.273 OA
ATOM      3  O   UNL     1      14.220   7.743  17.315  0.00  0.00    -0.270 OA
ATOM      5  N   UNL     1      12.879   8.278  19.133  0.00  0.00    -0.286 N 
ATOM      7  N   UNL     1      14.008  10.867  20.015  0.00  0.00    -0.283 N 
ATOM      8  C   UNL     1      12.124   9.299  19.849  0.00  0.00    +0.164 C 
ATOM      9  C   UNL     1      11.175   7.448  21.354  0.00  0.00    +0.054 C 
ATOM     10  C   UNL     1      10.918   8.770  20.633  0.00  0.00    +0.050 C 
ATOM     11  C   UNL     1      11.737   6.434  20.364  0.00  0.00    +0.037 C 
ATOM     12  C   UNL     1      13.023   6.954  19.744  0.00  0.00    +0.110 C 
ATOM     13  C   UNL     1      13.147  10.030  20.700  0.00  0.00    +0.238 C 
ATOM     14  C   UNL     1      13.651   8.585  18.011  0.00  0.00    +0.249 C 
ATOM     15  C   UNL     1      13.865  10.014  17.663  0.00  0.00    +0.059 A 
ATOM     16  C   UNL     1      14.138  11.014  18.615  0.00  0.00    +0.046 A 
ATOM     17  C   UNL     1      13.996  10.305  16.294  0.00  0.00    +0.023 A 
ATOM     18  C   UNL     1      14.603  12.263  18.171  0.00  0.00    +0.024 A 
ATOM     19  C   UNL     1      14.410  11.568  15.872  0.00  0.00    -0.014 A 
ATOM     20  C   UNL     1      14.726  12.543  16.811  0.00  0.00    +0.010 A 
ATOM     30  H   UNL     1      14.537  11.521  20.586  0.00  0.00    +0.155 HD
ENDROOT
BRANCH  19  21
ATOM      1 CL   UNL     1      12.130  13.119  11.523  0.00  0.00    -0.084 Cl
ATOM     21  C   UNL     1      14.534  11.855  14.459  0.00  0.00    +0.025 A 
ATOM     22  C   UNL     1      15.754  11.698  13.802  0.00  0.00    +0.128 A 
ATOM     23  C   UNL     1      13.414  12.296  13.755  0.00  0.00    +0.032 A 
ATOM     24  C   UNL     1      15.853  11.980  12.439  0.00  0.00    +0.047 A 
ATOM     25  C   UNL     1      13.512  12.579  12.393  0.00  0.00    +0.042 A 
ATOM     26  C   UNL     1      14.732  12.420  11.734  0.00  0.00    +0.023 A 
BRANCH  22   4
ATOM      4  O   UNL     1      16.865  11.271  14.466  0.00  0.00    -0.495 OA
ATOM     27  C   UNL     1      17.936  12.203  14.601  0.00  0.00    +0.277 C 
ENDBRANCH  22   4
ENDBRANCH  19  21
BRANCH   9   6
ATOM      6  N   UNL     1       9.963   6.953  21.964  0.00  0.00    -0.327 NA
ATOM     28  H   UNL     1      10.132   6.044  22.392  0.00  0.00    +0.118 HD
ATOM     29  H   UNL     1       9.247   6.810  21.254  0.00  0.00    +0.118 HD
ENDBRANCH   9   6
TORSDOF 3
ENDMDL
MODEL 10
REMARK VINA RESULT:      -7.1      6.108      7.968
REMARK  Name = 25390950
REMARK  4 active torsions:
REMARK  status: ('A' for Active; 'I' for Inactive)
REMARK    1  A    between atoms: O_4  and  C_22
REMARK    2  A    between atoms: O_4  and  C_27
REMARK    3  A    between atoms: N_6  and  C_9
REMARK    4  A    between atoms: C_19  and  C_21
REMARK                            x       y       z     vdW  Elec       q    Type
REMARK                         _______ _______ _______ _____ _____    ______ ____
ROOT
ATOM      2  O   UNL     1      10.798  10.916  25.662  0.00  0.00    -0.273 OA
ATOM      3  O   UNL     1      10.579  13.527  21.153  0.00  0.00    -0.270 OA
ATOM      5  N   UNL     1      11.217  13.191  23.360  0.00  0.00    -0.286 N 
ATOM      7  N   UNL     1      11.333  10.240  23.545  0.00  0.00    -0.283 N 
ATOM      8  C   UNL     1      12.056  12.462  24.303  0.00  0.00    +0.164 C 
ATOM      9  C   UNL     1      11.288  14.084  26.139  0.00  0.00    +0.054 C 
ATOM     10  C   UNL     1      12.431  13.247  25.565  0.00  0.00    +0.050 C 
ATOM     11  C   UNL     1      10.704  14.963  25.039  0.00  0.00    +0.037 C 
ATOM     12  C   UNL     1      10.202  14.108  23.887  0.00  0.00    +0.110 C 
ATOM     13  C   UNL     1      11.320  11.163  24.574  0.00  0.00    +0.238 C 
ATOM     14  C   UNL     1      11.192  12.876  22.001  0.00  0.00    +0.249 C 
ATOM     15  C   UNL     1      11.884  11.643  21.542  0.00  0.00    +0.059 A 
ATOM     16  C   UNL     1      11.828  10.417  22.232  0.00  0.00    +0.046 A 
ATOM     17  C   UNL     1      12.440  11.687  20.253  0.00  0.00    +0.023 A 
ATOM     18  C   UNL     1      12.270   9.253  21.583  0.00  0.00    +0.024 A 
ATOM     19  C   UNL     1      12.920  10.528  19.644  0.00  0.00    -0.014 A 
ATOM     20  C   UNL     1      12.823   9.309  20.304  0.00  0.00    +0.010 A 
ATOM     30  H   UNL     1      11.044   9.297  23.792  0.00  0.00    +0.155 HD
ENDROOT
BRANCH  19  21
ATOM      1 CL   UNL     1      16.499  12.541  16.536  0.00  0.00    -0.084 Cl
ATOM     21  C   UNL     1      13.496  10.591  18.318  0.00  0.00    +0.025 A 
ATOM     22  C   UNL     1      12.975   9.825  17.275  0.00  0.00    +0.128 A 
ATOM     23  C   UNL     1      14.586  11.430  18.090  0.00  0.00    +0.032 A 
ATOM     24  C   UNL     1      13.544   9.899  16.004  0.00  0.00    +0.047 A 
ATOM     25  C   UNL     1      15.156  11.504  16.819  0.00  0.00    +0.042 A 
ATOM     26  C   UNL     1      14.634  10.739  15.775  0.00  0.00    +0.023 A 
BRANCH  22   4
ATOM      4  O   UNL     1      11.911   8.994  17.470  0.00  0.00    -0.495 OA
ATOM     27  C   UNL     1      10.955   8.908  16.416  0.00  0.00    +0.277 C 
ENDBRANCH  22   4
ENDBRANCH  19  21
BRANCH   9   6
ATOM      6  N   UNL     1      11.749  14.887  27.247  0.00  0.00    -0.327 NA
ATOM     28  H   UNL     1      10.967  15.387  27.667  0.00  0.00    +0.118 HD
ATOM     29  H   UNL     1      12.402  15.597  26.918  0.00  0.00    +0.118 HD
ENDBRANCH   9   6
TORSDOF 3
ENDMDL
