MODEL 1
REMARK VINA RESULT:      -7.5      0.000      0.000
REMARK  Name = 11884022
REMARK  9 active torsions:
REMARK  status: ('A' for Active; 'I' for Inactive)
REMARK    1  A    between atoms: O_3  and  C_13
REMARK    2  A    between atoms: O_3  and  C_17
REMARK    3  A    between atoms: O_5  and  C_18
REMARK    4  A    between atoms: O_5  and  C_20
REMARK    5  A    between atoms: O_7  and  C_27
REMARK    6  A    between atoms: O_7  and  C_31
REMARK    7  A    between atoms: N_8  and  C_12
REMARK    8  A    between atoms: N_9  and  C_19
REMARK    9  A    between atoms: C_16  and  C_18
REMARK                            x       y       z     vdW  Elec       q    Type
REMARK                         _______ _______ _______ _____ _____    ______ ____
ROOT
ATOM      1  O   UNL     1      16.046   8.969  20.453  0.00  0.00    -0.368 OA
ATOM      2  O   UNL     1      15.236   6.215  19.374  0.00  0.00    -0.368 OA
ATOM     10  C   UNL     1      14.722   7.002  20.470  0.00  0.00    +0.173 C 
ATOM     11  C   UNL     1      15.909   7.696  21.106  0.00  0.00    +0.192 C 
ATOM     12  C   UNL     1      13.878   8.137  19.942  0.00  0.00    +0.130 C 
ATOM     13  C   UNL     1      17.051   6.768  20.767  0.00  0.00    +0.235 C 
ATOM     14  C   UNL     1      14.925   9.175  19.578  0.00  0.00    +0.185 C 
ATOM     15  C   UNL     1      16.669   6.284  19.387  0.00  0.00    +0.207 C 
ENDROOT
BRANCH  12   8
ATOM      4  O   UNL     1      11.010   7.744  20.083  0.00  0.00    -0.272 OA
ATOM      8  N   UNL     1      12.976   8.633  20.952  0.00  0.00    -0.305 N 
ATOM     16  C   UNL     1      11.610   8.392  20.936  0.00  0.00    +0.251 C 
ATOM     37  H   UNL     1      13.374   9.139  21.740  0.00  0.00    +0.149 HD
BRANCH  16  18
ATOM     18  C   UNL     1      10.912   9.030  22.119  0.00  0.00    +0.324 C 
BRANCH  18   5
ATOM      5  O   UNL     1      11.762   9.960  22.757  0.00  0.00    -0.483 OA
BRANCH   5  20
ATOM     20  C   UNL     1      11.265  11.224  22.966  0.00  0.00    +0.121 A 
ATOM     25  C   UNL     1      11.147  12.099  21.894  0.00  0.00    +0.045 A 
ATOM     26  C   UNL     1      10.889  11.609  24.245  0.00  0.00    +0.045 A 
ATOM     28  C   UNL     1      10.642  13.381  22.105  0.00  0.00    +0.004 A 
ATOM     29  C   UNL     1      10.384  12.892  24.457  0.00  0.00    +0.004 A 
ATOM     30  C   UNL     1      10.261  13.778  23.387  0.00  0.00    +0.000 A 
ENDBRANCH   5  20
ENDBRANCH  18   5
ENDBRANCH  16  18
ENDBRANCH  12   8
BRANCH  13   3
ATOM      3  O   UNL     1      18.311   7.399  20.779  0.00  0.00    -0.442 OA
BRANCH   3  17
ATOM      6  O   UNL     1      19.538   6.696  22.576  0.00  0.00    -0.226 OA
ATOM      9  N   UNL     1      20.091   6.069  20.390  0.00  0.00    -0.251 N 
ATOM     17  C   UNL     1      19.350   6.707  21.366  0.00  0.00    +0.405 C 
ATOM     38  H   UNL     1      19.776   6.199  19.431  0.00  0.00    +0.158 HD
BRANCH   9  19
ATOM     19  C   UNL     1      21.237   5.258  20.557  0.00  0.00    +0.037 A 
ATOM     21  C   UNL     1      21.078   3.921  20.888  0.00  0.00    +0.027 A 
ATOM     22  C   UNL     1      22.494   5.813  20.386  0.00  0.00    +0.027 A 
ATOM     23  C   UNL     1      22.206   3.119  21.053  0.00  0.00    +0.048 A 
ATOM     24  C   UNL     1      23.623   5.010  20.550  0.00  0.00    +0.048 A 
ATOM     27  C   UNL     1      23.479   3.663  20.883  0.00  0.00    +0.129 A 
BRANCH  27   7
ATOM      7  O   UNL     1      24.582   2.882  21.044  0.00  0.00    -0.456 OA
BRANCH   7  31
ATOM     31  C   UNL     1      24.713   2.192  22.239  0.00  0.00    +0.128 A 
ATOM     32  C   UNL     1      25.065   0.855  22.209  0.00  0.00    +0.046 A 
ATOM     33  C   UNL     1      24.487   2.858  23.429  0.00  0.00    +0.046 A 
ATOM     34  C   UNL     1      25.197   0.160  23.411  0.00  0.00    +0.004 A 
ATOM     35  C   UNL     1      24.618   2.164  24.632  0.00  0.00    +0.004 A 
ATOM     36  C   UNL     1      24.973   0.814  24.623  0.00  0.00    +0.000 A 
ENDBRANCH   7  31
ENDBRANCH  27   7
ENDBRANCH   9  19
ENDBRANCH   3  17
ENDBRANCH  13   3
TORSDOF 9
ENDMDL
MODEL 2
REMARK VINA RESULT:      -7.5     28.142     32.852
REMARK  Name = 11884022
REMARK  9 active torsions:
REMARK  status: ('A' for Active; 'I' for Inactive)
REMARK    1  A    between atoms: O_3  and  C_13
REMARK    2  A    between atoms: O_3  and  C_17
REMARK    3  A    between atoms: O_5  and  C_18
REMARK    4  A    between atoms: O_5  and  C_20
REMARK    5  A    between atoms: O_7  and  C_27
REMARK    6  A    between atoms: O_7  and  C_31
REMARK    7  A    between atoms: N_8  and  C_12
REMARK    8  A    between atoms: N_9  and  C_19
REMARK    9  A    between atoms: C_16  and  C_18
REMARK                            x       y       z     vdW  Elec       q    Type
REMARK                         _______ _______ _______ _____ _____    ______ ____
ROOT
ATOM      1  O   UNL     1      -5.248  -9.557  16.771  0.00  0.00    -0.368 OA
ATOM      2  O   UNL     1      -6.212 -12.456  16.502  0.00  0.00    -0.368 OA
ATOM     10  C   UNL     1      -5.692 -11.527  15.528  0.00  0.00    +0.173 C 
ATOM     11  C   UNL     1      -6.221 -10.157  15.901  0.00  0.00    +0.192 C 
ATOM     12  C   UNL     1      -4.195 -11.393  15.687  0.00  0.00    +0.130 C 
ATOM     13  C   UNL     1      -7.498 -10.489  16.634  0.00  0.00    +0.235 C 
ATOM     14  C   UNL     1      -4.081 -10.394  16.825  0.00  0.00    +0.185 C 
ATOM     15  C   UNL     1      -7.127 -11.761  17.362  0.00  0.00    +0.207 C 
ENDROOT
BRANCH  12   8
ATOM      4  O   UNL     1      -1.382 -11.443  14.991  0.00  0.00    -0.272 OA
ATOM      8  N   UNL     1      -3.584 -10.890  14.482  0.00  0.00    -0.305 N 
ATOM     16  C   UNL     1      -2.220 -10.958  14.235  0.00  0.00    +0.251 C 
ATOM     37  H   UNL     1      -4.192 -10.513  13.759  0.00  0.00    +0.149 HD
BRANCH  16  18
ATOM     18  C   UNL     1      -1.860 -10.355  12.894  0.00  0.00    +0.324 C 
BRANCH  18   5
ATOM      5  O   UNL     1      -2.146 -11.260  11.848  0.00  0.00    -0.483 OA
BRANCH   5  20
ATOM     20  C   UNL     1      -2.968 -10.815  10.840  0.00  0.00    +0.121 A 
ATOM     25  C   UNL     1      -3.786 -11.720  10.176  0.00  0.00    +0.045 A 
ATOM     26  C   UNL     1      -2.968  -9.470  10.502  0.00  0.00    +0.045 A 
ATOM     28  C   UNL     1      -4.620 -11.269   9.154  0.00  0.00    +0.004 A 
ATOM     29  C   UNL     1      -3.803  -9.018   9.479  0.00  0.00    +0.004 A 
ATOM     30  C   UNL     1      -4.629  -9.918   8.805  0.00  0.00    +0.000 A 
ENDBRANCH   5  20
ENDBRANCH  18   5
ENDBRANCH  16  18
ENDBRANCH  12   8
BRANCH  13   3
ATOM      3  O   UNL     1      -7.920  -9.475  17.517  0.00  0.00    -0.442 OA
BRANCH   3  17
ATOM      6  O   UNL     1     -10.098  -9.195  18.156  0.00  0.00    -0.226 OA
ATOM      9  N   UNL     1      -9.273  -8.276  16.167  0.00  0.00    -0.251 N 
ATOM     17  C   UNL     1      -9.200  -8.991  17.347  0.00  0.00    +0.405 C 
ATOM     38  H   UNL     1      -8.413  -8.218  15.625  0.00  0.00    +0.158 HD
BRANCH   9  19
ATOM     19  C   UNL     1     -10.394  -7.617  15.616  0.00  0.00    +0.037 A 
ATOM     21  C   UNL     1     -10.851  -6.449  16.206  0.00  0.00    +0.027 A 
ATOM     22  C   UNL     1     -11.013  -8.148  14.496  0.00  0.00    +0.027 A 
ATOM     23  C   UNL     1     -11.957  -5.796  15.663  0.00  0.00    +0.048 A 
ATOM     24  C   UNL     1     -12.120  -7.495  13.953  0.00  0.00    +0.048 A 
ATOM     27  C   UNL     1     -12.591  -6.318  14.536  0.00  0.00    +0.129 A 
BRANCH  27   7
ATOM      7  O   UNL     1     -13.671  -5.683  14.005  0.00  0.00    -0.456 OA
BRANCH   7  31
ATOM     31  C   UNL     1     -13.489  -4.984  12.822  0.00  0.00    +0.128 A 
ATOM     32  C   UNL     1     -12.423  -4.110  12.713  0.00  0.00    +0.046 A 
ATOM     33  C   UNL     1     -14.380  -5.178  11.782  0.00  0.00    +0.046 A 
ATOM     34  C   UNL     1     -12.240  -3.407  11.523  0.00  0.00    +0.004 A 
ATOM     35  C   UNL     1     -14.197  -4.474  10.591  0.00  0.00    +0.004 A 
ATOM     36  C   UNL     1     -13.127  -3.588  10.462  0.00  0.00    +0.000 A 
ENDBRANCH   7  31
ENDBRANCH  27   7
ENDBRANCH   9  19
ENDBRANCH   3  17
ENDBRANCH  13   3
TORSDOF 9
ENDMDL
MODEL 3
REMARK VINA RESULT:      -7.3      3.547     11.950
REMARK  Name = 11884022
REMARK  9 active torsions:
REMARK  status: ('A' for Active; 'I' for Inactive)
REMARK    1  A    between atoms: O_3  and  C_13
REMARK    2  A    between atoms: O_3  and  C_17
REMARK    3  A    between atoms: O_5  and  C_18
REMARK    4  A    between atoms: O_5  and  C_20
REMARK    5  A    between atoms: O_7  and  C_27
REMARK    6  A    between atoms: O_7  and  C_31
REMARK    7  A    between atoms: N_8  and  C_12
REMARK    8  A    between atoms: N_9  and  C_19
REMARK    9  A    between atoms: C_16  and  C_18
REMARK                            x       y       z     vdW  Elec       q    Type
REMARK                         _______ _______ _______ _____ _____    ______ ____
ROOT
ATOM      1  O   UNL     1      22.151   3.475  21.405  0.00  0.00    -0.368 OA
ATOM      2  O   UNL     1      24.634   4.810  22.611  0.00  0.00    -0.368 OA
ATOM     10  C   UNL     1      23.493   4.178  23.229  0.00  0.00    +0.173 C 
ATOM     11  C   UNL     1      22.287   4.523  22.379  0.00  0.00    +0.192 C 
ATOM     12  C   UNL     1      23.604   2.677  23.108  0.00  0.00    +0.130 C 
ATOM     13  C   UNL     1      22.698   5.829  21.742  0.00  0.00    +0.235 C 
ATOM     14  C   UNL     1      23.087   2.427  21.702  0.00  0.00    +0.185 C 
ATOM     15  C   UNL     1      24.179   5.623  21.519  0.00  0.00    +0.207 C 
ENDROOT
BRANCH  12   8
ATOM      4  O   UNL     1      24.241   0.257  24.571  0.00  0.00    -0.272 OA
ATOM      8  N   UNL     1      22.789   2.011  24.094  0.00  0.00    -0.305 N 
ATOM     16  C   UNL     1      23.179   0.850  24.745  0.00  0.00    +0.251 C 
ATOM     37  H   UNL     1      21.908   2.446  24.358  0.00  0.00    +0.149 HD
BRANCH  16  18
ATOM     18  C   UNL     1      22.129   0.375  25.727  0.00  0.00    +0.324 C 
BRANCH  18   5
ATOM      5  O   UNL     1      22.006  -1.031  25.685  0.00  0.00    -0.483 OA
BRANCH   5  20
ATOM     20  C   UNL     1      20.784  -1.545  25.322  0.00  0.00    +0.121 A 
ATOM     25  C   UNL     1      20.658  -2.907  25.084  0.00  0.00    +0.045 A 
ATOM     26  C   UNL     1      19.695  -0.695  25.198  0.00  0.00    +0.045 A 
ATOM     28  C   UNL     1      19.419  -3.428  24.716  0.00  0.00    +0.004 A 
ATOM     29  C   UNL     1      18.454  -1.216  24.830  0.00  0.00    +0.004 A 
ATOM     30  C   UNL     1      18.316  -2.583  24.589  0.00  0.00    +0.000 A 
ENDBRANCH   5  20
ENDBRANCH  18   5
ENDBRANCH  16  18
ENDBRANCH  12   8
BRANCH  13   3
ATOM      3  O   UNL     1      22.014   6.110  20.544  0.00  0.00    -0.442 OA
BRANCH   3  17
ATOM      6  O   UNL     1      20.638   7.858  21.075  0.00  0.00    -0.226 OA
ATOM      9  N   UNL     1      19.796   5.844  20.230  0.00  0.00    -0.251 N 
ATOM     17  C   UNL     1      20.780   6.716  20.656  0.00  0.00    +0.405 C 
ATOM     38  H   UNL     1      20.112   4.930  19.914  0.00  0.00    +0.158 HD
BRANCH   9  19
ATOM     19  C   UNL     1      18.400   6.063  20.180  0.00  0.00    +0.037 A 
ATOM     21  C   UNL     1      17.719   5.822  18.998  0.00  0.00    +0.027 A 
ATOM     22  C   UNL     1      17.742   6.512  21.313  0.00  0.00    +0.027 A 
ATOM     23  C   UNL     1      16.342   6.036  18.947  0.00  0.00    +0.048 A 
ATOM     24  C   UNL     1      16.364   6.726  21.262  0.00  0.00    +0.048 A 
ATOM     27  C   UNL     1      15.664   6.488  20.079  0.00  0.00    +0.129 A 
BRANCH  27   7
ATOM      7  O   UNL     1      14.320   6.698  20.031  0.00  0.00    -0.456 OA
BRANCH   7  31
ATOM     31  C   UNL     1      13.853   7.681  19.173  0.00  0.00    +0.128 A 
ATOM     32  C   UNL     1      12.711   7.441  18.432  0.00  0.00    +0.046 A 
ATOM     33  C   UNL     1      14.543   8.876  19.080  0.00  0.00    +0.046 A 
ATOM     34  C   UNL     1      12.241   8.430  17.568  0.00  0.00    +0.004 A 
ATOM     35  C   UNL     1      14.073   9.866  18.216  0.00  0.00    +0.004 A 
ATOM     36  C   UNL     1      12.922   9.643  17.460  0.00  0.00    +0.000 A 
ENDBRANCH   7  31
ENDBRANCH  27   7
ENDBRANCH   9  19
ENDBRANCH   3  17
ENDBRANCH  13   3
TORSDOF 9
ENDMDL
MODEL 4
REMARK VINA RESULT:      -7.2     27.665     31.146
REMARK  Name = 11884022
REMARK  9 active torsions:
REMARK  status: ('A' for Active; 'I' for Inactive)
REMARK    1  A    between atoms: O_3  and  C_13
REMARK    2  A    between atoms: O_3  and  C_17
REMARK    3  A    between atoms: O_5  and  C_18
REMARK    4  A    between atoms: O_5  and  C_20
REMARK    5  A    between atoms: O_7  and  C_27
REMARK    6  A    between atoms: O_7  and  C_31
REMARK    7  A    between atoms: N_8  and  C_12
REMARK    8  A    between atoms: N_9  and  C_19
REMARK    9  A    between atoms: C_16  and  C_18
REMARK                            x       y       z     vdW  Elec       q    Type
REMARK                         _______ _______ _______ _____ _____    ______ ____
ROOT
ATOM      1  O   UNL     1      -3.912 -12.157  14.536  0.00  0.00    -0.368 OA
ATOM      2  O   UNL     1      -2.126 -10.883  16.678  0.00  0.00    -0.368 OA
ATOM     10  C   UNL     1      -3.499 -10.637  16.308  0.00  0.00    +0.173 C 
ATOM     11  C   UNL     1      -3.581 -10.785  14.802  0.00  0.00    +0.192 C 
ATOM     12  C   UNL     1      -4.383 -11.745  16.829  0.00  0.00    +0.130 C 
ATOM     13  C   UNL     1      -2.175 -10.454  14.364  0.00  0.00    +0.235 C 
ATOM     14  C   UNL     1      -4.204 -12.824  15.775  0.00  0.00    +0.185 C 
ATOM     15  C   UNL     1      -1.345 -11.040  15.484  0.00  0.00    +0.207 C 
ENDROOT
BRANCH  12   8
ATOM      4  O   UNL     1      -5.692 -10.491  19.091  0.00  0.00    -0.272 OA
ATOM      8  N   UNL     1      -5.758 -11.320  16.918  0.00  0.00    -0.305 N 
ATOM     16  C   UNL     1      -6.299 -10.725  18.049  0.00  0.00    +0.251 C 
ATOM     37  H   UNL     1      -6.342 -11.416  16.091  0.00  0.00    +0.149 HD
BRANCH  16  18
ATOM     18  C   UNL     1      -7.761 -10.381  17.859  0.00  0.00    +0.324 C 
BRANCH  18   5
ATOM      5  O   UNL     1      -7.914  -9.018  17.525  0.00  0.00    -0.483 OA
BRANCH   5  20
ATOM     20  C   UNL     1      -9.014  -8.674  16.777  0.00  0.00    +0.121 A 
ATOM     25  C   UNL     1      -9.893  -7.712  17.256  0.00  0.00    +0.045 A 
ATOM     26  C   UNL     1      -9.230  -9.293  15.554  0.00  0.00    +0.045 A 
ATOM     28  C   UNL     1     -11.009  -7.362  16.496  0.00  0.00    +0.004 A 
ATOM     29  C   UNL     1     -10.346  -8.943  14.794  0.00  0.00    +0.004 A 
ATOM     30  C   UNL     1     -11.236  -7.978  15.265  0.00  0.00    +0.000 A 
ENDBRANCH   5  20
ENDBRANCH  18   5
ENDBRANCH  16  18
ENDBRANCH  12   8
BRANCH  13   3
ATOM      3  O   UNL     1      -1.833 -10.997  13.110  0.00  0.00    -0.442 OA
BRANCH   3  17
ATOM      6  O   UNL     1      -1.532  -9.616  11.312  0.00  0.00    -0.226 OA
ATOM      9  N   UNL     1      -3.619 -10.557  11.802  0.00  0.00    -0.251 N 
ATOM     17  C   UNL     1      -2.272 -10.315  11.993  0.00  0.00    +0.405 C 
ATOM     38  H   UNL     1      -4.065 -11.171  12.481  0.00  0.00    +0.158 HD
BRANCH   9  19
ATOM     19  C   UNL     1      -4.457 -10.056  10.781  0.00  0.00    +0.037 A 
ATOM     21  C   UNL     1      -4.888  -8.740  10.843  0.00  0.00    +0.027 A 
ATOM     22  C   UNL     1      -4.831 -10.888   9.739  0.00  0.00    +0.027 A 
ATOM     23  C   UNL     1      -5.715  -8.244   9.836  0.00  0.00    +0.048 A 
ATOM     24  C   UNL     1      -5.659 -10.392   8.731  0.00  0.00    +0.048 A 
ATOM     27  C   UNL     1      -6.100  -9.069   8.779  0.00  0.00    +0.129 A 
BRANCH  27   7
ATOM      7  O   UNL     1      -6.908  -8.587   7.796  0.00  0.00    -0.456 OA
BRANCH   7  31
ATOM     31  C   UNL     1      -8.020  -7.854   8.179  0.00  0.00    +0.128 A 
ATOM     32  C   UNL     1      -9.004  -8.468   8.933  0.00  0.00    +0.046 A 
ATOM     33  C   UNL     1      -8.118  -6.529   7.796  0.00  0.00    +0.046 A 
ATOM     34  C   UNL     1     -10.124  -7.731   9.318  0.00  0.00    +0.004 A 
ATOM     35  C   UNL     1      -9.238  -5.791   8.181  0.00  0.00    +0.004 A 
ATOM     36  C   UNL     1     -10.241  -6.392   8.941  0.00  0.00    +0.000 A 
ENDBRANCH   7  31
ENDBRANCH  27   7
ENDBRANCH   9  19
ENDBRANCH   3  17
ENDBRANCH  13   3
TORSDOF 9
ENDMDL
MODEL 5
REMARK VINA RESULT:      -7.2     28.179     32.783
REMARK  Name = 11884022
REMARK  9 active torsions:
REMARK  status: ('A' for Active; 'I' for Inactive)
REMARK    1  A    between atoms: O_3  and  C_13
REMARK    2  A    between atoms: O_3  and  C_17
REMARK    3  A    between atoms: O_5  and  C_18
REMARK    4  A    between atoms: O_5  and  C_20
REMARK    5  A    between atoms: O_7  and  C_27
REMARK    6  A    between atoms: O_7  and  C_31
REMARK    7  A    between atoms: N_8  and  C_12
REMARK    8  A    between atoms: N_9  and  C_19
REMARK    9  A    between atoms: C_16  and  C_18
REMARK                            x       y       z     vdW  Elec       q    Type
REMARK                         _______ _______ _______ _____ _____    ______ ____
ROOT
ATOM      1  O   UNL     1      -5.169 -11.412  10.562  0.00  0.00    -0.368 OA
ATOM      2  O   UNL     1      -3.255  -9.105   9.915  0.00  0.00    -0.368 OA
ATOM     10  C   UNL     1      -3.864  -9.523  11.155  0.00  0.00    +0.173 C 
ATOM     11  C   UNL     1      -5.262 -10.001  10.819  0.00  0.00    +0.192 C 
ATOM     12  C   UNL     1      -3.174 -10.761  11.679  0.00  0.00    +0.130 C 
ATOM     13  C   UNL     1      -5.580  -9.224   9.564  0.00  0.00    +0.235 C 
ATOM     14  C   UNL     1      -3.844 -11.866  10.881  0.00  0.00    +0.185 C 
ATOM     15  C   UNL     1      -4.238  -9.174   8.871  0.00  0.00    +0.207 C 
ENDROOT
BRANCH  12   8
ATOM      4  O   UNL     1      -1.468  -9.865  13.844  0.00  0.00    -0.272 OA
ATOM      8  N   UNL     1      -3.398 -10.925  13.094  0.00  0.00    -0.305 N 
ATOM     16  C   UNL     1      -2.520 -10.461  14.062  0.00  0.00    +0.251 C 
ATOM     37  H   UNL     1      -4.269 -11.358  13.392  0.00  0.00    +0.149 HD
BRANCH  16  18
ATOM     18  C   UNL     1      -3.009 -10.771  15.461  0.00  0.00    +0.324 C 
BRANCH  18   5
ATOM      5  O   UNL     1      -4.418 -10.855  15.490  0.00  0.00    -0.483 OA
BRANCH   5  20
ATOM     20  C   UNL     1      -5.026 -10.798  16.721  0.00  0.00    +0.121 A 
ATOM     25  C   UNL     1      -6.236 -10.131  16.857  0.00  0.00    +0.045 A 
ATOM     26  C   UNL     1      -4.421 -11.409  17.811  0.00  0.00    +0.045 A 
ATOM     28  C   UNL     1      -6.853 -10.074  18.105  0.00  0.00    +0.004 A 
ATOM     29  C   UNL     1      -5.038 -11.351  19.061  0.00  0.00    +0.004 A 
ATOM     30  C   UNL     1      -6.254 -10.684  19.208  0.00  0.00    +0.000 A 
ENDBRANCH   5  20
ENDBRANCH  18   5
ENDBRANCH  16  18
ENDBRANCH  12   8
BRANCH  13   3
ATOM      3  O   UNL     1      -6.570  -9.828   8.764  0.00  0.00    -0.442 OA
BRANCH   3  17
ATOM      6  O   UNL     1      -7.674  -8.910   6.984  0.00  0.00    -0.226 OA
ATOM      9  N   UNL     1      -8.185  -8.312   9.188  0.00  0.00    -0.251 N 
ATOM     17  C   UNL     1      -7.509  -8.993   8.195  0.00  0.00    +0.405 C 
ATOM     38  H   UNL     1      -7.903  -8.516  10.145  0.00  0.00    +0.158 HD
BRANCH   9  19
ATOM     19  C   UNL     1      -9.222  -7.362   9.043  0.00  0.00    +0.037 A 
ATOM     21  C   UNL     1     -10.514  -7.709   9.403  0.00  0.00    +0.027 A 
ATOM     22  C   UNL     1      -8.926  -6.104   8.545  0.00  0.00    +0.027 A 
ATOM     23  C   UNL     1     -11.539  -6.774   9.261  0.00  0.00    +0.048 A 
ATOM     24  C   UNL     1      -9.951  -5.167   8.403  0.00  0.00    +0.048 A 
ATOM     27  C   UNL     1     -11.257  -5.502   8.761  0.00  0.00    +0.129 A 
BRANCH  27   7
ATOM      7  O   UNL     1     -12.255  -4.588   8.621  0.00  0.00    -0.456 OA
BRANCH   7  31
ATOM     31  C   UNL     1     -12.860  -4.114   9.774  0.00  0.00    +0.128 A 
ATOM     32  C   UNL     1     -14.214  -3.834   9.757  0.00  0.00    +0.046 A 
ATOM     33  C   UNL     1     -12.094  -3.933  10.911  0.00  0.00    +0.046 A 
ATOM     34  C   UNL     1     -14.824  -3.357  10.918  0.00  0.00    +0.004 A 
ATOM     35  C   UNL     1     -12.703  -3.456  12.072  0.00  0.00    +0.004 A 
ATOM     36  C   UNL     1     -14.068  -3.167  12.076  0.00  0.00    +0.000 A 
ENDBRANCH   7  31
ENDBRANCH  27   7
ENDBRANCH   9  19
ENDBRANCH   3  17
ENDBRANCH  13   3
TORSDOF 9
ENDMDL
MODEL 6
REMARK VINA RESULT:      -7.1      5.321      7.425
REMARK  Name = 11884022
REMARK  9 active torsions:
REMARK  status: ('A' for Active; 'I' for Inactive)
REMARK    1  A    between atoms: O_3  and  C_13
REMARK    2  A    between atoms: O_3  and  C_17
REMARK    3  A    between atoms: O_5  and  C_18
REMARK    4  A    between atoms: O_5  and  C_20
REMARK    5  A    between atoms: O_7  and  C_27
REMARK    6  A    between atoms: O_7  and  C_31
REMARK    7  A    between atoms: N_8  and  C_12
REMARK    8  A    between atoms: N_9  and  C_19
REMARK    9  A    between atoms: C_16  and  C_18
REMARK                            x       y       z     vdW  Elec       q    Type
REMARK                         _______ _______ _______ _____ _____    ______ ____
ROOT
ATOM      1  O   UNL     1      14.042  10.353  17.986  0.00  0.00    -0.368 OA
ATOM      2  O   UNL     1      12.820   7.929  16.559  0.00  0.00    -0.368 OA
ATOM     10  C   UNL     1      12.537   9.340  16.459  0.00  0.00    +0.173 C 
ATOM     11  C   UNL     1      12.679   9.917  17.853  0.00  0.00    +0.192 C 
ATOM     12  C   UNL     1      13.622  10.032  15.668  0.00  0.00    +0.130 C 
ATOM     13  C   UNL     1      12.385   8.725  18.732  0.00  0.00    +0.235 C 
ATOM     14  C   UNL     1      14.703  10.238  16.716  0.00  0.00    +0.185 C 
ATOM     15  C   UNL     1      12.995   7.589  17.943  0.00  0.00    +0.207 C 
ENDROOT
BRANCH  12   8
ATOM      4  O   UNL     1      14.676  11.462  13.378  0.00  0.00    -0.272 OA
ATOM      8  N   UNL     1      13.161  11.290  15.135  0.00  0.00    -0.305 N 
ATOM     16  C   UNL     1      13.731  11.902  14.028  0.00  0.00    +0.251 C 
ATOM     37  H   UNL     1      12.345  11.719  15.564  0.00  0.00    +0.149 HD
BRANCH  16  18
ATOM     18  C   UNL     1      13.045  13.209  13.692  0.00  0.00    +0.324 C 
BRANCH  18   5
ATOM      5  O   UNL     1      12.769  13.286  12.309  0.00  0.00    -0.483 OA
BRANCH   5  20
ATOM     20  C   UNL     1      11.576  12.760  11.876  0.00  0.00    +0.121 A 
ATOM     25  C   UNL     1      11.533  12.053  10.682  0.00  0.00    +0.045 A 
ATOM     26  C   UNL     1      10.431  12.941  12.640  0.00  0.00    +0.045 A 
ATOM     28  C   UNL     1      10.323  11.518  10.243  0.00  0.00    +0.004 A 
ATOM     29  C   UNL     1       9.220  12.406  12.201  0.00  0.00    +0.004 A 
ATOM     30  C   UNL     1       9.166  11.695  11.002  0.00  0.00    +0.000 A 
ENDBRANCH   5  20
ENDBRANCH  18   5
ENDBRANCH  16  18
ENDBRANCH  12   8
BRANCH  13   3
ATOM      3  O   UNL     1      12.934   8.829  20.024  0.00  0.00    -0.442 OA
BRANCH   3  17
ATOM      6  O   UNL     1      13.542   6.888  21.069  0.00  0.00    -0.226 OA
ATOM      9  N   UNL     1      15.093   8.187  19.893  0.00  0.00    -0.251 N 
ATOM     17  C   UNL     1      13.847   7.864  20.395  0.00  0.00    +0.405 C 
ATOM     38  H   UNL     1      15.149   9.048  19.352  0.00  0.00    +0.158 HD
BRANCH   9  19
ATOM     19  C   UNL     1      16.303   7.473  20.038  0.00  0.00    +0.037 A 
ATOM     21  C   UNL     1      16.571   6.414  19.185  0.00  0.00    +0.027 A 
ATOM     22  C   UNL     1      17.198   7.844  21.028  0.00  0.00    +0.027 A 
ATOM     23  C   UNL     1      17.765   5.707  19.326  0.00  0.00    +0.048 A 
ATOM     24  C   UNL     1      18.393   7.138  21.169  0.00  0.00    +0.048 A 
ATOM     27  C   UNL     1      18.677   6.070  20.317  0.00  0.00    +0.129 A 
BRANCH  27   7
ATOM      7  O   UNL     1      19.842   5.381  20.457  0.00  0.00    -0.456 OA
BRANCH   7  31
ATOM     31  C   UNL     1      20.896   6.022  21.088  0.00  0.00    +0.128 A 
ATOM     32  C   UNL     1      21.653   6.935  20.377  0.00  0.00    +0.046 A 
ATOM     33  C   UNL     1      21.164   5.731  22.413  0.00  0.00    +0.046 A 
ATOM     34  C   UNL     1      22.714   7.579  21.012  0.00  0.00    +0.004 A 
ATOM     35  C   UNL     1      22.225   6.376  23.050  0.00  0.00    +0.004 A 
ATOM     36  C   UNL     1      23.001   7.300  22.349  0.00  0.00    +0.000 A 
ENDBRANCH   7  31
ENDBRANCH  27   7
ENDBRANCH   9  19
ENDBRANCH   3  17
ENDBRANCH  13   3
TORSDOF 9
ENDMDL
MODEL 7
REMARK VINA RESULT:      -7.1     28.916     31.235
REMARK  Name = 11884022
REMARK  9 active torsions:
REMARK  status: ('A' for Active; 'I' for Inactive)
REMARK    1  A    between atoms: O_3  and  C_13
REMARK    2  A    between atoms: O_3  and  C_17
REMARK    3  A    between atoms: O_5  and  C_18
REMARK    4  A    between atoms: O_5  and  C_20
REMARK    5  A    between atoms: O_7  and  C_27
REMARK    6  A    between atoms: O_7  and  C_31
REMARK    7  A    between atoms: N_8  and  C_12
REMARK    8  A    between atoms: N_9  and  C_19
REMARK    9  A    between atoms: C_16  and  C_18
REMARK                            x       y       z     vdW  Elec       q    Type
REMARK                         _______ _______ _______ _____ _____    ______ ____
ROOT
ATOM      1  O   UNL     1      -6.941 -12.101  17.660  0.00  0.00    -0.368 OA
ATOM      2  O   UNL     1      -5.902 -11.191  20.398  0.00  0.00    -0.368 OA
ATOM     10  C   UNL     1      -6.817 -10.573  19.468  0.00  0.00    +0.173 C 
ATOM     11  C   UNL     1      -6.304 -10.882  18.076  0.00  0.00    +0.192 C 
ATOM     12  C   UNL     1      -8.158 -11.265  19.523  0.00  0.00    +0.130 C 
ATOM     13  C   UNL     1      -4.825 -11.075  18.308  0.00  0.00    +0.235 C 
ATOM     14  C   UNL     1      -7.934 -12.473  18.629  0.00  0.00    +0.185 C 
ATOM     15  C   UNL     1      -4.798 -11.742  19.664  0.00  0.00    +0.207 C 
ENDROOT
BRANCH  12   8
ATOM      4  O   UNL     1     -10.963 -11.301  20.251  0.00  0.00    -0.272 OA
ATOM      8  N   UNL     1      -9.206 -10.418  19.009  0.00  0.00    -0.305 N 
ATOM     16  C   UNL     1     -10.528 -10.509  19.419  0.00  0.00    +0.251 C 
ATOM     37  H   UNL     1      -8.948  -9.686  18.352  0.00  0.00    +0.149 HD
BRANCH  16  18
ATOM     18  C   UNL     1     -11.407  -9.497  18.716  0.00  0.00    +0.324 C 
BRANCH  18   5
ATOM      5  O   UNL     1     -10.665  -8.773  17.756  0.00  0.00    -0.483 OA
BRANCH   5  20
ATOM     20  C   UNL     1     -11.364  -7.926  16.930  0.00  0.00    +0.121 A 
ATOM     25  C   UNL     1     -12.671  -8.235  16.581  0.00  0.00    +0.045 A 
ATOM     26  C   UNL     1     -10.752  -6.773  16.458  0.00  0.00    +0.045 A 
ATOM     28  C   UNL     1     -13.380  -7.375  15.744  0.00  0.00    +0.004 A 
ATOM     29  C   UNL     1     -11.461  -5.913  15.620  0.00  0.00    +0.004 A 
ATOM     30  C   UNL     1     -12.775  -6.213  15.263  0.00  0.00    +0.000 A 
ENDBRANCH   5  20
ENDBRANCH  18   5
ENDBRANCH  16  18
ENDBRANCH  12   8
BRANCH  13   3
ATOM      3  O   UNL     1      -4.198 -11.857  17.318  0.00  0.00    -0.442 OA
BRANCH   3  17
ATOM      6  O   UNL     1      -2.723 -10.407  16.342  0.00  0.00    -0.226 OA
ATOM      9  N   UNL     1      -4.344 -11.539  15.089  0.00  0.00    -0.251 N 
ATOM     17  C   UNL     1      -3.662 -11.186  16.238  0.00  0.00    +0.405 C 
ATOM     38  H   UNL     1      -5.103 -12.208  15.206  0.00  0.00    +0.158 HD
BRANCH   9  19
ATOM     19  C   UNL     1      -4.120 -11.086  13.770  0.00  0.00    +0.037 A 
ATOM     21  C   UNL     1      -2.926 -11.398  13.139  0.00  0.00    +0.027 A 
ATOM     22  C   UNL     1      -5.098 -10.341  13.132  0.00  0.00    +0.027 A 
ATOM     23  C   UNL     1      -2.703 -10.953  11.837  0.00  0.00    +0.048 A 
ATOM     24  C   UNL     1      -4.876  -9.896  11.828  0.00  0.00    +0.048 A 
ATOM     27  C   UNL     1      -3.678 -10.202  11.181  0.00  0.00    +0.129 A 
BRANCH  27   7
ATOM      7  O   UNL     1      -3.463  -9.766   9.910  0.00  0.00    -0.456 OA
BRANCH   7  31
ATOM     31  C   UNL     1      -4.276 -10.273   8.909  0.00  0.00    +0.128 A 
ATOM     32  C   UNL     1      -5.019  -9.398   8.137  0.00  0.00    +0.046 A 
ATOM     33  C   UNL     1      -4.325 -11.640   8.710  0.00  0.00    +0.046 A 
ATOM     34  C   UNL     1      -5.837  -9.908   7.130  0.00  0.00    +0.004 A 
ATOM     35  C   UNL     1      -5.144 -12.151   7.702  0.00  0.00    +0.004 A 
ATOM     36  C   UNL     1      -5.901 -11.285   6.912  0.00  0.00    +0.000 A 
ENDBRANCH   7  31
ENDBRANCH  27   7
ENDBRANCH   9  19
ENDBRANCH   3  17
ENDBRANCH  13   3
TORSDOF 9
ENDMDL
MODEL 8
REMARK VINA RESULT:      -6.7      3.299     12.062
REMARK  Name = 11884022
REMARK  9 active torsions:
REMARK  status: ('A' for Active; 'I' for Inactive)
REMARK    1  A    between atoms: O_3  and  C_13
REMARK    2  A    between atoms: O_3  and  C_17
REMARK    3  A    between atoms: O_5  and  C_18
REMARK    4  A    between atoms: O_5  and  C_20
REMARK    5  A    between atoms: O_7  and  C_27
REMARK    6  A    between atoms: O_7  and  C_31
REMARK    7  A    between atoms: N_8  and  C_12
REMARK    8  A    between atoms: N_9  and  C_19
REMARK    9  A    between atoms: C_16  and  C_18
REMARK                            x       y       z     vdW  Elec       q    Type
REMARK                         _______ _______ _______ _____ _____    ______ ____
ROOT
ATOM      1  O   UNL     1      21.841   3.345  21.771  0.00  0.00    -0.368 OA
ATOM      2  O   UNL     1      23.942   5.347  22.763  0.00  0.00    -0.368 OA
ATOM     10  C   UNL     1      23.012   4.503  23.476  0.00  0.00    +0.173 C 
ATOM     11  C   UNL     1      21.736   4.469  22.660  0.00  0.00    +0.192 C 
ATOM     12  C   UNL     1      23.493   3.071  23.459  0.00  0.00    +0.130 C 
ATOM     13  C   UNL     1      21.790   5.780  21.913  0.00  0.00    +0.235 C 
ATOM     14  C   UNL     1      23.017   2.589  22.099  0.00  0.00    +0.185 C 
ATOM     15  C   UNL     1      23.269   5.930  21.638  0.00  0.00    +0.207 C 
ENDROOT
BRANCH  12   8
ATOM      4  O   UNL     1      24.172   0.377  24.281  0.00  0.00    -0.272 OA
ATOM      8  N   UNL     1      22.897   2.306  24.526  0.00  0.00    -0.305 N 
ATOM     16  C   UNL     1      23.290   1.015  24.848  0.00  0.00    +0.251 C 
ATOM     37  H   UNL     1      22.189   2.759  25.100  0.00  0.00    +0.149 HD
BRANCH  16  18
ATOM     18  C   UNL     1      22.495   0.458  26.010  0.00  0.00    +0.324 C 
BRANCH  18   5
ATOM      5  O   UNL     1      22.372  -0.945  25.903  0.00  0.00    -0.483 OA
BRANCH   5  20
ATOM     20  C   UNL     1      21.156  -1.440  25.499  0.00  0.00    +0.121 A 
ATOM     25  C   UNL     1      20.075  -0.579  25.371  0.00  0.00    +0.045 A 
ATOM     26  C   UNL     1      21.027  -2.794  25.224  0.00  0.00    +0.045 A 
ATOM     28  C   UNL     1      18.841  -1.081  24.959  0.00  0.00    +0.004 A 
ATOM     29  C   UNL     1      19.792  -3.298  24.813  0.00  0.00    +0.004 A 
ATOM     30  C   UNL     1      18.699  -2.441  24.680  0.00  0.00    +0.000 A 
ENDBRANCH   5  20
ENDBRANCH  18   5
ENDBRANCH  16  18
ENDBRANCH  12   8
BRANCH  13   3
ATOM      3  O   UNL     1      21.025   5.785  20.730  0.00  0.00    -0.442 OA
BRANCH   3  17
ATOM      6  O   UNL     1      20.128   7.873  20.985  0.00  0.00    -0.226 OA
ATOM      9  N   UNL     1      18.861   6.083  20.166  0.00  0.00    -0.251 N 
ATOM     17  C   UNL     1      19.997   6.701  20.655  0.00  0.00    +0.405 C 
ATOM     38  H   UNL     1      18.949   5.093  19.946  0.00  0.00    +0.158 HD
BRANCH   9  19
ATOM     19  C   UNL     1      17.590   6.655  19.933  0.00  0.00    +0.037 A 
ATOM     21  C   UNL     1      16.773   6.113  18.954  0.00  0.00    +0.027 A 
ATOM     22  C   UNL     1      17.185   7.742  20.689  0.00  0.00    +0.027 A 
ATOM     23  C   UNL     1      15.517   6.675  18.723  0.00  0.00    +0.048 A 
ATOM     24  C   UNL     1      15.929   8.304  20.459  0.00  0.00    +0.048 A 
ATOM     27  C   UNL     1      15.095   7.770  19.476  0.00  0.00    +0.129 A 
BRANCH  27   7
ATOM      7  O   UNL     1      13.871   8.320  19.253  0.00  0.00    -0.456 OA
BRANCH   7  31
ATOM     31  C   UNL     1      12.877   8.080  20.187  0.00  0.00    +0.128 A 
ATOM     32  C   UNL     1      12.263   9.152  20.809  0.00  0.00    +0.046 A 
ATOM     33  C   UNL     1      12.525   6.774  20.475  0.00  0.00    +0.046 A 
ATOM     34  C   UNL     1      11.262   8.910  21.750  0.00  0.00    +0.004 A 
ATOM     35  C   UNL     1      11.524   6.531  21.417  0.00  0.00    +0.004 A 
ATOM     36  C   UNL     1      10.893   7.599  22.055  0.00  0.00    +0.000 A 
ENDBRANCH   7  31
ENDBRANCH  27   7
ENDBRANCH   9  19
ENDBRANCH   3  17
ENDBRANCH  13   3
TORSDOF 9
ENDMDL
MODEL 9
REMARK VINA RESULT:      -6.6      5.156     11.650
REMARK  Name = 11884022
REMARK  9 active torsions:
REMARK  status: ('A' for Active; 'I' for Inactive)
REMARK    1  A    between atoms: O_3  and  C_13
REMARK    2  A    between atoms: O_3  and  C_17
REMARK    3  A    between atoms: O_5  and  C_18
REMARK    4  A    between atoms: O_5  and  C_20
REMARK    5  A    between atoms: O_7  and  C_27
REMARK    6  A    between atoms: O_7  and  C_31
REMARK    7  A    between atoms: N_8  and  C_12
REMARK    8  A    between atoms: N_9  and  C_19
REMARK    9  A    between atoms: C_16  and  C_18
REMARK                            x       y       z     vdW  Elec       q    Type
REMARK                         _______ _______ _______ _____ _____    ______ ____
ROOT
ATOM      1  O   UNL     1      24.141  -0.674  24.978  0.00  0.00    -0.368 OA
ATOM      2  O   UNL     1      23.131   0.695  27.529  0.00  0.00    -0.368 OA
ATOM     10  C   UNL     1      22.455  -0.122  26.550  0.00  0.00    +0.173 C 
ATOM     11  C   UNL     1      23.046   0.229  25.200  0.00  0.00    +0.192 C 
ATOM     12  C   UNL     1      22.826  -1.574  26.742  0.00  0.00    +0.130 C 
ATOM     13  C   UNL     1      23.524   1.646  25.412  0.00  0.00    +0.235 C 
ATOM     14  C   UNL     1      24.158  -1.664  26.019  0.00  0.00    +0.185 C 
ATOM     15  C   UNL     1      23.999   1.612  26.846  0.00  0.00    +0.207 C 
ENDROOT
BRANCH  12   8
ATOM      4  O   UNL     1      20.057  -1.904  27.531  0.00  0.00    -0.272 OA
ATOM      8  N   UNL     1      21.845  -2.447  26.146  0.00  0.00    -0.305 N 
ATOM     16  C   UNL     1      20.535  -2.539  26.595  0.00  0.00    +0.251 C 
ATOM     37  H   UNL     1      22.118  -2.982  25.325  0.00  0.00    +0.149 HD
BRANCH  16  18
ATOM     18  C   UNL     1      19.730  -3.532  25.784  0.00  0.00    +0.324 C 
BRANCH  18   5
ATOM      5  O   UNL     1      18.346  -3.295  25.937  0.00  0.00    -0.483 OA
BRANCH   5  20
ATOM     20  C   UNL     1      17.671  -2.792  24.851  0.00  0.00    +0.121 A 
ATOM     25  C   UNL     1      18.228  -1.750  24.122  0.00  0.00    +0.045 A 
ATOM     26  C   UNL     1      16.443  -3.333  24.499  0.00  0.00    +0.045 A 
ATOM     28  C   UNL     1      17.544  -1.240  23.020  0.00  0.00    +0.004 A 
ATOM     29  C   UNL     1      15.757  -2.823  23.396  0.00  0.00    +0.004 A 
ATOM     30  C   UNL     1      16.308  -1.776  22.656  0.00  0.00    +0.000 A 
ENDBRANCH   5  20
ENDBRANCH  18   5
ENDBRANCH  16  18
ENDBRANCH  12   8
BRANCH  13   3
ATOM      3  O   UNL     1      24.546   2.034  24.523  0.00  0.00    -0.442 OA
BRANCH   3  17
ATOM      6  O   UNL     1      25.112   3.713  23.078  0.00  0.00    -0.226 OA
ATOM      9  N   UNL     1      22.878   3.151  23.493  0.00  0.00    -0.251 N 
ATOM     17  C   UNL     1      24.249   3.044  23.632  0.00  0.00    +0.405 C 
ATOM     38  H   UNL     1      22.320   2.501  24.042  0.00  0.00    +0.158 HD
BRANCH   9  19
ATOM     19  C   UNL     1      22.153   4.054  22.683  0.00  0.00    +0.037 A 
ATOM     21  C   UNL     1      21.958   5.353  23.123  0.00  0.00    +0.027 A 
ATOM     22  C   UNL     1      21.652   3.624  21.465  0.00  0.00    +0.027 A 
ATOM     23  C   UNL     1      21.243   6.246  22.326  0.00  0.00    +0.048 A 
ATOM     24  C   UNL     1      20.937   4.517  20.667  0.00  0.00    +0.048 A 
ATOM     27  C   UNL     1      20.733   5.828  21.097  0.00  0.00    +0.129 A 
BRANCH  27   7
ATOM      7  O   UNL     1      20.034   6.697  20.317  0.00  0.00    -0.456 OA
BRANCH   7  31
ATOM     31  C   UNL     1      18.653   6.584  20.305  0.00  0.00    +0.128 A 
ATOM     32  C   UNL     1      17.929   7.053  21.386  0.00  0.00    +0.046 A 
ATOM     33  C   UNL     1      18.035   6.003  19.213  0.00  0.00    +0.046 A 
ATOM     34  C   UNL     1      16.539   6.939  21.373  0.00  0.00    +0.004 A 
ATOM     35  C   UNL     1      16.645   5.888  19.200  0.00  0.00    +0.004 A 
ATOM     36  C   UNL     1      15.897   6.355  20.281  0.00  0.00    +0.000 A 
ENDBRANCH   7  31
ENDBRANCH  27   7
ENDBRANCH   9  19
ENDBRANCH   3  17
ENDBRANCH  13   3
TORSDOF 9
ENDMDL
MODEL 10
REMARK VINA RESULT:      -6.6     15.611     18.322
REMARK  Name = 11884022
REMARK  9 active torsions:
REMARK  status: ('A' for Active; 'I' for Inactive)
REMARK    1  A    between atoms: O_3  and  C_13
REMARK    2  A    between atoms: O_3  and  C_17
REMARK    3  A    between atoms: O_5  and  C_18
REMARK    4  A    between atoms: O_5  and  C_20
REMARK    5  A    between atoms: O_7  and  C_27
REMARK    6  A    between atoms: O_7  and  C_31
REMARK    7  A    between atoms: N_8  and  C_12
REMARK    8  A    between atoms: N_9  and  C_19
REMARK    9  A    between atoms: C_16  and  C_18
REMARK                            x       y       z     vdW  Elec       q    Type
REMARK                         _______ _______ _______ _____ _____    ______ ____
ROOT
ATOM      1  O   UNL     1      12.402   7.857   6.898  0.00  0.00    -0.368 OA
ATOM      2  O   UNL     1       9.517   8.706   7.499  0.00  0.00    -0.368 OA
ATOM     10  C   UNL     1      10.138   8.215   6.292  0.00  0.00    +0.173 C 
ATOM     11  C   UNL     1      11.535   8.800   6.247  0.00  0.00    +0.192 C 
ATOM     12  C   UNL     1      10.371   6.727   6.398  0.00  0.00    +0.130 C 
ATOM     13  C   UNL     1      11.384  10.069   7.052  0.00  0.00    +0.235 C 
ATOM     14  C   UNL     1      11.665   6.659   7.190  0.00  0.00    +0.185 C 
ATOM     15  C   UNL     1      10.398   9.654   8.121  0.00  0.00    +0.207 C 
ENDROOT
BRANCH  12   8
ATOM      4  O   UNL     1       9.808   3.983   5.651  0.00  0.00    -0.272 OA
ATOM      8  N   UNL     1      10.521   6.127   5.095  0.00  0.00    -0.305 N 
ATOM     16  C   UNL     1      10.225   4.797   4.831  0.00  0.00    +0.251 C 
ATOM     37  H   UNL     1      10.809   6.725   4.324  0.00  0.00    +0.149 HD
BRANCH  16  18
ATOM     18  C   UNL     1      10.474   4.442   3.380  0.00  0.00    +0.324 C 
BRANCH  18   5
ATOM      5  O   UNL     1      11.250   5.439   2.749  0.00  0.00    -0.483 OA
BRANCH   5  20
ATOM     20  C   UNL     1      12.470   5.059   2.244  0.00  0.00    +0.121 A 
ATOM     25  C   UNL     1      12.666   3.744   1.845  0.00  0.00    +0.045 A 
ATOM     26  C   UNL     1      13.489   5.996   2.141  0.00  0.00    +0.045 A 
ATOM     28  C   UNL     1      13.904   3.359   1.332  0.00  0.00    +0.004 A 
ATOM     29  C   UNL     1      14.728   5.611   1.628  0.00  0.00    +0.004 A 
ATOM     30  C   UNL     1      14.935   4.292   1.223  0.00  0.00    +0.000 A 
ENDBRANCH   5  20
ENDBRANCH  18   5
ENDBRANCH  16  18
ENDBRANCH  12   8
BRANCH  13   3
ATOM      3  O   UNL     1      12.596  10.535   7.599  0.00  0.00    -0.442 OA
BRANCH   3  17
ATOM      6  O   UNL     1      13.504  11.769   5.902  0.00  0.00    -0.226 OA
ATOM      9  N   UNL     1      14.671   9.999   6.894  0.00  0.00    -0.251 N 
ATOM     17  C   UNL     1      13.601  10.854   6.710  0.00  0.00    +0.405 C 
ATOM     38  H   UNL     1      14.562   9.295   7.622  0.00  0.00    +0.158 HD
BRANCH   9  19
ATOM     19  C   UNL     1      15.899   9.978   6.196  0.00  0.00    +0.037 A 
ATOM     21  C   UNL     1      16.890  10.883   6.540  0.00  0.00    +0.027 A 
ATOM     22  C   UNL     1      16.089   9.053   5.183  0.00  0.00    +0.027 A 
ATOM     23  C   UNL     1      18.103  10.863   5.853  0.00  0.00    +0.048 A 
ATOM     24  C   UNL     1      17.303   9.032   4.495  0.00  0.00    +0.048 A 
ATOM     27  C   UNL     1      18.310   9.938   4.831  0.00  0.00    +0.129 A 
BRANCH  27   7
ATOM      7  O   UNL     1      19.493   9.917   4.158  0.00  0.00    -0.456 OA
BRANCH   7  31
ATOM     31  C   UNL     1      20.247   8.756   4.218  0.00  0.00    +0.128 A 
ATOM     32  C   UNL     1      20.645   8.274   5.452  0.00  0.00    +0.046 A 
ATOM     33  C   UNL     1      20.583   8.110   3.042  0.00  0.00    +0.046 A 
ATOM     34  C   UNL     1      21.404   7.105   5.512  0.00  0.00    +0.004 A 
ATOM     35  C   UNL     1      21.342   6.941   3.101  0.00  0.00    +0.004 A 
ATOM     36  C   UNL     1      21.753   6.439   4.336  0.00  0.00    +0.000 A 
ENDBRANCH   7  31
ENDBRANCH  27   7
ENDBRANCH   9  19
ENDBRANCH   3  17
ENDBRANCH  13   3
TORSDOF 9
ENDMDL
