MODEL 1
REMARK VINA RESULT:      -6.1      0.000      0.000
REMARK  Name = 56775407
REMARK  8 active torsions:
REMARK  status: ('A' for Active; 'I' for Inactive)
REMARK    1  A    between atoms: O_4  and  C_19
REMARK    2  A    between atoms: N_5  and  C_7
REMARK    3  A    between atoms: N_5  and  C_12
REMARK    4  A    between atoms: C_7  and  C_10
REMARK    5  A    between atoms: C_10  and  C_11
REMARK    6  A    between atoms: C_12  and  C_14
REMARK    7  A    between atoms: C_15  and  C_16
REMARK    8  A    between atoms: C_16  and  C_19
REMARK                            x       y       z     vdW  Elec       q    Type
REMARK                         _______ _______ _______ _____ _____    ______ ____
ROOT
ATOM      2  O   UNL     1      12.601   8.425   3.888  0.00  0.00    -0.376 OA
ATOM      7  C   UNL     1      11.303   6.731   3.917  0.00  0.00    +0.072 C 
ATOM      8  C   UNL     1      12.196   7.477   4.902  0.00  0.00    +0.184 C 
ATOM      9  C   UNL     1      11.703   7.822   2.929  0.00  0.00    +0.184 C 
ENDROOT
BRANCH   7   5
ATOM      5  N   UNL     1      11.966   5.482   3.533  0.00  0.00    -0.302 NA
ATOM     23  H   UNL     1      12.360   4.949   4.308  0.00  0.00    +0.123 HD
BRANCH   5  12
ATOM     12  C   UNL     1      11.020   4.645   2.793  0.00  0.00    +0.120 C 
BRANCH  12  14
ATOM      1  F   UNL     1       9.539   4.827   0.394  0.00  0.00    -0.205 F 
ATOM     14  C   UNL     1      11.560   4.207   1.473  0.00  0.00    +0.002 A 
ATOM     17  C   UNL     1      10.779   4.322   0.324  0.00  0.00    +0.128 A 
ATOM     18  C   UNL     1      12.850   3.681   1.390  0.00  0.00    +0.008 A 
ATOM     20  C   UNL     1      11.287   3.913  -0.909  0.00  0.00    +0.038 A 
ATOM     21  C   UNL     1      13.358   3.270   0.158  0.00  0.00    +0.000 A 
ATOM     22  C   UNL     1      12.576   3.387  -0.992  0.00  0.00    +0.003 A 
ENDBRANCH  12  14
ENDBRANCH   5  12
ENDBRANCH   7   5
BRANCH   7  10
ATOM     10  C   UNL     1       9.854   6.546   4.245  0.00  0.00    +0.085 C 
BRANCH  10  11
ATOM      3  O   UNL     1       9.215   6.259   7.789  0.00  0.00    -0.359 OA
ATOM      6  N   UNL     1       9.265   6.979   6.603  0.00  0.00    -0.083 NA
ATOM     11  C   UNL     1       9.681   6.104   5.683  0.00  0.00    +0.086 A 
ATOM     13  C   UNL     1       9.909   4.828   6.226  0.00  0.00    +0.071 A 
ATOM     15  C   UNL     1       9.601   4.979   7.553  0.00  0.00    +0.140 A 
BRANCH  15  16
ATOM     16  C   UNL     1       9.607   4.071   8.707  0.00  0.00    +0.105 C 
BRANCH  16  19
ATOM     19  C   UNL     1       9.072   4.711  10.002  0.00  0.00    +0.163 C 
BRANCH  19   4
ATOM      4  O   UNL     1      10.019   4.522  11.046  0.00  0.00    -0.395 OA
ATOM     24  H   UNL     1       9.612   3.925  11.695  0.00  0.00    +0.209 HD
ENDBRANCH  19   4
ENDBRANCH  16  19
ENDBRANCH  15  16
ENDBRANCH  10  11
ENDBRANCH   7  10
TORSDOF 8
ENDMDL
MODEL 2
REMARK VINA RESULT:      -6.0      1.026      1.440
REMARK  Name = 56775407
REMARK  8 active torsions:
REMARK  status: ('A' for Active; 'I' for Inactive)
REMARK    1  A    between atoms: O_4  and  C_19
REMARK    2  A    between atoms: N_5  and  C_7
REMARK    3  A    between atoms: N_5  and  C_12
REMARK    4  A    between atoms: C_7  and  C_10
REMARK    5  A    between atoms: C_10  and  C_11
REMARK    6  A    between atoms: C_12  and  C_14
REMARK    7  A    between atoms: C_15  and  C_16
REMARK    8  A    between atoms: C_16  and  C_19
REMARK                            x       y       z     vdW  Elec       q    Type
REMARK                         _______ _______ _______ _____ _____    ______ ____
ROOT
ATOM      2  O   UNL     1      12.774   8.210   4.292  0.00  0.00    -0.376 OA
ATOM      7  C   UNL     1      11.449   6.568   3.969  0.00  0.00    +0.072 C 
ATOM      8  C   UNL     1      12.315   7.104   5.103  0.00  0.00    +0.184 C 
ATOM      9  C   UNL     1      11.903   7.810   3.209  0.00  0.00    +0.184 C 
ENDROOT
BRANCH   7   5
ATOM      5  N   UNL     1      12.107   5.395   3.388  0.00  0.00    -0.302 NA
ATOM     23  H   UNL     1      12.675   4.855   4.041  0.00  0.00    +0.123 HD
BRANCH   5  12
ATOM     12  C   UNL     1      11.093   4.526   2.787  0.00  0.00    +0.120 C 
BRANCH  12  14
ATOM      1  F   UNL     1      13.311   3.000   1.931  0.00  0.00    -0.205 F 
ATOM     14  C   UNL     1      11.372   4.239   1.349  0.00  0.00    +0.002 A 
ATOM     17  C   UNL     1      12.484   3.478   0.990  0.00  0.00    +0.128 A 
ATOM     18  C   UNL     1      10.517   4.733   0.364  0.00  0.00    +0.008 A 
ATOM     20  C   UNL     1      12.742   3.211  -0.354  0.00  0.00    +0.038 A 
ATOM     21  C   UNL     1      10.775   4.466  -0.981  0.00  0.00    +0.000 A 
ATOM     22  C   UNL     1      11.888   3.705  -1.340  0.00  0.00    +0.003 A 
ENDBRANCH  12  14
ENDBRANCH   5  12
ENDBRANCH   7   5
BRANCH   7  10
ATOM     10  C   UNL     1       9.985   6.359   4.208  0.00  0.00    +0.085 C 
BRANCH  10  11
ATOM      3  O   UNL     1       9.083   6.116   7.698  0.00  0.00    -0.359 OA
ATOM      6  N   UNL     1       9.176   6.807   6.497  0.00  0.00    -0.083 NA
ATOM     11  C   UNL     1       9.729   5.943   5.641  0.00  0.00    +0.086 A 
ATOM     13  C   UNL     1      10.007   4.702   6.241  0.00  0.00    +0.071 A 
ATOM     15  C   UNL     1       9.581   4.863   7.533  0.00  0.00    +0.140 A 
BRANCH  15  16
ATOM     16  C   UNL     1       9.561   3.989   8.713  0.00  0.00    +0.105 C 
BRANCH  16  19
ATOM     19  C   UNL     1       9.120   4.702  10.006  0.00  0.00    +0.163 C 
BRANCH  19   4
ATOM      4  O   UNL     1      10.164   4.620  10.967  0.00  0.00    -0.395 OA
ATOM     24  H   UNL     1      10.678   3.821  10.763  0.00  0.00    +0.209 HD
ENDBRANCH  19   4
ENDBRANCH  16  19
ENDBRANCH  15  16
ENDBRANCH  10  11
ENDBRANCH   7  10
TORSDOF 8
ENDMDL
MODEL 3
REMARK VINA RESULT:      -5.8      3.179      6.595
REMARK  Name = 56775407
REMARK  8 active torsions:
REMARK  status: ('A' for Active; 'I' for Inactive)
REMARK    1  A    between atoms: O_4  and  C_19
REMARK    2  A    between atoms: N_5  and  C_7
REMARK    3  A    between atoms: N_5  and  C_12
REMARK    4  A    between atoms: C_7  and  C_10
REMARK    5  A    between atoms: C_10  and  C_11
REMARK    6  A    between atoms: C_12  and  C_14
REMARK    7  A    between atoms: C_15  and  C_16
REMARK    8  A    between atoms: C_16  and  C_19
REMARK                            x       y       z     vdW  Elec       q    Type
REMARK                         _______ _______ _______ _____ _____    ______ ____
ROOT
ATOM      2  O   UNL     1      11.337   9.885   3.798  0.00  0.00    -0.376 OA
ATOM      7  C   UNL     1      10.598   7.882   3.791  0.00  0.00    +0.072 C 
ATOM      8  C   UNL     1      10.039   9.284   4.011  0.00  0.00    +0.184 C 
ATOM      9  C   UNL     1      11.911   8.595   3.486  0.00  0.00    +0.184 C 
ENDROOT
BRANCH   7   5
ATOM      5  N   UNL     1      10.715   7.214   5.090  0.00  0.00    -0.302 NA
ATOM     23  H   UNL     1      11.249   7.728   5.790  0.00  0.00    +0.123 HD
BRANCH   5  12
ATOM     12  C   UNL     1       9.374   6.932   5.606  0.00  0.00    +0.120 C 
BRANCH  12  14
ATOM      1  F   UNL     1       8.636   7.941   8.139  0.00  0.00    -0.205 F 
ATOM     14  C   UNL     1       9.407   6.105   6.848  0.00  0.00    +0.002 A 
ATOM     17  C   UNL     1       9.030   6.662   8.070  0.00  0.00    +0.128 A 
ATOM     18  C   UNL     1       9.816   4.772   6.785  0.00  0.00    +0.008 A 
ATOM     20  C   UNL     1       9.061   5.887   9.229  0.00  0.00    +0.038 A 
ATOM     21  C   UNL     1       9.848   3.997   7.945  0.00  0.00    +0.000 A 
ATOM     22  C   UNL     1       9.470   4.555   9.167  0.00  0.00    +0.003 A 
ENDBRANCH  12  14
ENDBRANCH   5  12
ENDBRANCH   7   5
BRANCH   7  10
ATOM     10  C   UNL     1       9.984   7.011   2.739  0.00  0.00    +0.085 C 
BRANCH  10  11
ATOM      3  O   UNL     1      11.247   3.630   2.903  0.00  0.00    -0.359 OA
ATOM      6  N   UNL     1      10.333   4.619   3.243  0.00  0.00    -0.083 NA
ATOM     11  C   UNL     1      10.753   5.713   2.601  0.00  0.00    +0.086 A 
ATOM     13  C   UNL     1      11.917   5.477   1.848  0.00  0.00    +0.071 A 
ATOM     15  C   UNL     1      12.185   4.152   2.072  0.00  0.00    +0.140 A 
BRANCH  15  16
ATOM     16  C   UNL     1      13.236   3.237   1.612  0.00  0.00    +0.105 C 
BRANCH  16  19
ATOM     19  C   UNL     1      14.631   3.885   1.528  0.00  0.00    +0.163 C 
BRANCH  19   4
ATOM      4  O   UNL     1      15.548   3.130   2.309  0.00  0.00    -0.395 OA
ATOM     24  H   UNL     1      16.246   3.740   2.599  0.00  0.00    +0.209 HD
ENDBRANCH  19   4
ENDBRANCH  16  19
ENDBRANCH  15  16
ENDBRANCH  10  11
ENDBRANCH   7  10
TORSDOF 8
ENDMDL
MODEL 4
REMARK VINA RESULT:      -5.8     13.665     16.707
REMARK  Name = 56775407
REMARK  8 active torsions:
REMARK  status: ('A' for Active; 'I' for Inactive)
REMARK    1  A    between atoms: O_4  and  C_19
REMARK    2  A    between atoms: N_5  and  C_7
REMARK    3  A    between atoms: N_5  and  C_12
REMARK    4  A    between atoms: C_7  and  C_10
REMARK    5  A    between atoms: C_10  and  C_11
REMARK    6  A    between atoms: C_12  and  C_14
REMARK    7  A    between atoms: C_15  and  C_16
REMARK    8  A    between atoms: C_16  and  C_19
REMARK                            x       y       z     vdW  Elec       q    Type
REMARK                         _______ _______ _______ _____ _____    ______ ____
ROOT
ATOM      2  O   UNL     1      10.452   8.431  19.346  0.00  0.00    -0.376 OA
ATOM      7  C   UNL     1      12.533   8.793  19.651  0.00  0.00    +0.072 C 
ATOM      8  C   UNL     1      11.578   8.662  18.469  0.00  0.00    +0.184 C 
ATOM      9  C   UNL     1      11.283   8.637  20.511  0.00  0.00    +0.184 C 
ENDROOT
BRANCH   7   5
ATOM      5  N   UNL     1      13.330   7.568  19.751  0.00  0.00    -0.302 NA
ATOM     23  H   UNL     1      13.842   7.319  18.905  0.00  0.00    +0.123 HD
BRANCH   5  12
ATOM     12  C   UNL     1      14.265   7.695  20.870  0.00  0.00    +0.120 C 
BRANCH  12  14
ATOM      1  F   UNL     1      16.589   8.764  22.069  0.00  0.00    -0.205 F 
ATOM     14  C   UNL     1      15.642   7.244  20.512  0.00  0.00    +0.002 A 
ATOM     17  C   UNL     1      16.750   7.812  21.140  0.00  0.00    +0.128 A 
ATOM     18  C   UNL     1      15.820   6.253  19.546  0.00  0.00    +0.008 A 
ATOM     20  C   UNL     1      18.036   7.388  20.805  0.00  0.00    +0.038 A 
ATOM     21  C   UNL     1      17.106   5.829  19.210  0.00  0.00    +0.000 A 
ATOM     22  C   UNL     1      18.214   6.397  19.839  0.00  0.00    +0.003 A 
ENDBRANCH  12  14
ENDBRANCH   5  12
ENDBRANCH   7   5
BRANCH   7  10
ATOM     10  C   UNL     1      13.356  10.037  19.786  0.00  0.00    +0.085 C 
BRANCH  10  11
ATOM      3  O   UNL     1      14.869  10.382  16.523  0.00  0.00    -0.359 OA
ATOM      6  N   UNL     1      14.569   9.657  17.669  0.00  0.00    -0.083 NA
ATOM     11  C   UNL     1      13.864  10.495  18.434  0.00  0.00    +0.086 A 
ATOM     13  C   UNL     1      13.691  11.752  17.829  0.00  0.00    +0.071 A 
ATOM     15  C   UNL     1      14.341  11.628  16.630  0.00  0.00    +0.140 A 
BRANCH  15  16
ATOM     16  C   UNL     1      14.566  12.535  15.497  0.00  0.00    +0.105 C 
BRANCH  16  19
ATOM     19  C   UNL     1      13.895  12.073  14.189  0.00  0.00    +0.163 C 
BRANCH  19   4
ATOM      4  O   UNL     1      12.895  11.108  14.490  0.00  0.00    -0.395 OA
ATOM     24  H   UNL     1      12.471  11.385  15.319  0.00  0.00    +0.209 HD
ENDBRANCH  19   4
ENDBRANCH  16  19
ENDBRANCH  15  16
ENDBRANCH  10  11
ENDBRANCH   7  10
TORSDOF 8
ENDMDL
MODEL 5
REMARK VINA RESULT:      -5.7     22.285     24.491
REMARK  Name = 56775407
REMARK  8 active torsions:
REMARK  status: ('A' for Active; 'I' for Inactive)
REMARK    1  A    between atoms: O_4  and  C_19
REMARK    2  A    between atoms: N_5  and  C_7
REMARK    3  A    between atoms: N_5  and  C_12
REMARK    4  A    between atoms: C_7  and  C_10
REMARK    5  A    between atoms: C_10  and  C_11
REMARK    6  A    between atoms: C_12  and  C_14
REMARK    7  A    between atoms: C_15  and  C_16
REMARK    8  A    between atoms: C_16  and  C_19
REMARK                            x       y       z     vdW  Elec       q    Type
REMARK                         _______ _______ _______ _____ _____    ______ ____
ROOT
ATOM      2  O   UNL     1      -2.269 -14.156  14.006  0.00  0.00    -0.376 OA
ATOM      7  C   UNL     1      -2.851 -12.119  14.265  0.00  0.00    +0.072 C 
ATOM      8  C   UNL     1      -3.337 -13.491  14.719  0.00  0.00    +0.184 C 
ATOM      9  C   UNL     1      -1.701 -12.884  13.619  0.00  0.00    +0.184 C 
ENDROOT
BRANCH   7   5
ATOM      5  N   UNL     1      -3.742 -11.629  13.211  0.00  0.00    -0.302 NA
ATOM     23  H   UNL     1      -4.697 -11.433  13.513  0.00  0.00    +0.123 HD
BRANCH   5  12
ATOM     12  C   UNL     1      -3.161 -10.425  12.613  0.00  0.00    +0.120 C 
BRANCH  12  14
ATOM      1  F   UNL     1      -1.931  -9.066  10.463  0.00  0.00    -0.205 F 
ATOM     14  C   UNL     1      -3.912  -9.971  11.407  0.00  0.00    +0.002 A 
ATOM     17  C   UNL     1      -3.248  -9.304  10.378  0.00  0.00    +0.128 A 
ATOM     18  C   UNL     1      -5.283 -10.214  11.309  0.00  0.00    +0.008 A 
ATOM     20  C   UNL     1      -3.952  -8.882   9.251  0.00  0.00    +0.038 A 
ATOM     21  C   UNL     1      -5.988  -9.791  10.183  0.00  0.00    +0.000 A 
ATOM     22  C   UNL     1      -5.322  -9.125   9.153  0.00  0.00    +0.003 A 
ENDBRANCH  12  14
ENDBRANCH   5  12
ENDBRANCH   7   5
BRANCH   7  10
ATOM     10  C   UNL     1      -2.541 -11.080  15.298  0.00  0.00    +0.085 C 
BRANCH  10  11
ATOM      3  O   UNL     1      -5.727 -10.143  16.723  0.00  0.00    -0.359 OA
ATOM      6  N   UNL     1      -4.827 -10.223  15.668  0.00  0.00    -0.083 NA
ATOM     11  C   UNL     1      -3.746 -10.820  16.178  0.00  0.00    +0.086 A 
ATOM     13  C   UNL     1      -3.904 -11.135  17.539  0.00  0.00    +0.071 A 
ATOM     15  C   UNL     1      -5.165 -10.689  17.832  0.00  0.00    +0.140 A 
BRANCH  15  16
ATOM     16  C   UNL     1      -5.985 -10.688  19.050  0.00  0.00    +0.105 C 
BRANCH  16  19
ATOM     19  C   UNL     1      -7.501 -10.700  18.779  0.00  0.00    +0.163 C 
BRANCH  19   4
ATOM      4  O   UNL     1      -8.198 -10.459  19.994  0.00  0.00    -0.395 OA
ATOM     24  H   UNL     1      -7.683  -9.803  20.493  0.00  0.00    +0.209 HD
ENDBRANCH  19   4
ENDBRANCH  16  19
ENDBRANCH  15  16
ENDBRANCH  10  11
ENDBRANCH   7  10
TORSDOF 8
ENDMDL
MODEL 6
REMARK VINA RESULT:      -5.6     22.428     25.094
REMARK  Name = 56775407
REMARK  8 active torsions:
REMARK  status: ('A' for Active; 'I' for Inactive)
REMARK    1  A    between atoms: O_4  and  C_19
REMARK    2  A    between atoms: N_5  and  C_7
REMARK    3  A    between atoms: N_5  and  C_12
REMARK    4  A    between atoms: C_7  and  C_10
REMARK    5  A    between atoms: C_10  and  C_11
REMARK    6  A    between atoms: C_12  and  C_14
REMARK    7  A    between atoms: C_15  and  C_16
REMARK    8  A    between atoms: C_16  and  C_19
REMARK                            x       y       z     vdW  Elec       q    Type
REMARK                         _______ _______ _______ _____ _____    ______ ____
ROOT
ATOM      2  O   UNL     1      -2.029 -13.884  13.150  0.00  0.00    -0.376 OA
ATOM      7  C   UNL     1      -2.381 -12.038  14.161  0.00  0.00    +0.072 C 
ATOM      8  C   UNL     1      -1.210 -12.986  13.933  0.00  0.00    +0.184 C 
ATOM      9  C   UNL     1      -3.155 -12.983  13.247  0.00  0.00    +0.184 C 
ENDROOT
BRANCH   7   5
ATOM      5  N   UNL     1      -2.865 -12.208  15.533  0.00  0.00    -0.302 NA
ATOM     23  H   UNL     1      -2.304 -12.835  16.111  0.00  0.00    +0.123 HD
BRANCH   5  12
ATOM     12  C   UNL     1      -2.952 -10.896  16.177  0.00  0.00    +0.120 C 
BRANCH  12  14
ATOM      1  F   UNL     1      -3.450 -11.795  18.808  0.00  0.00    -0.205 F 
ATOM     14  C   UNL     1      -4.257 -10.689  16.870  0.00  0.00    +0.002 A 
ATOM     17  C   UNL     1      -4.441 -11.157  18.170  0.00  0.00    +0.128 A 
ATOM     18  C   UNL     1      -5.295 -10.026  16.214  0.00  0.00    +0.008 A 
ATOM     20  C   UNL     1      -5.662 -10.962  18.816  0.00  0.00    +0.038 A 
ATOM     21  C   UNL     1      -6.516  -9.831  16.859  0.00  0.00    +0.000 A 
ATOM     22  C   UNL     1      -6.699 -10.299  18.160  0.00  0.00    +0.003 A 
ENDBRANCH  12  14
ENDBRANCH   5  12
ENDBRANCH   7   5
BRANCH   7  10
ATOM     10  C   UNL     1      -2.241 -10.600  13.765  0.00  0.00    +0.085 C 
BRANCH  10  11
ATOM      3  O   UNL     1      -4.845  -9.875  11.368  0.00  0.00    -0.359 OA
ATOM      6  N   UNL     1      -4.398 -10.138  12.656  0.00  0.00    -0.083 NA
ATOM     11  C   UNL     1      -3.077 -10.296  12.539  0.00  0.00    +0.086 A 
ATOM     13  C   UNL     1      -2.637 -10.148  11.212  0.00  0.00    +0.071 A 
ATOM     15  C   UNL     1      -3.788  -9.883  10.516  0.00  0.00    +0.140 A 
BRANCH  15  16
ATOM     16  C   UNL     1      -4.082  -9.622   9.102  0.00  0.00    +0.105 C 
BRANCH  16  19
ATOM     19  C   UNL     1      -5.516  -9.117   8.850  0.00  0.00    +0.163 C 
BRANCH  19   4
ATOM      4  O   UNL     1      -5.603  -7.746   9.214  0.00  0.00    -0.395 OA
ATOM     24  H   UNL     1      -6.289  -7.675   9.899  0.00  0.00    +0.209 HD
ENDBRANCH  19   4
ENDBRANCH  16  19
ENDBRANCH  15  16
ENDBRANCH  10  11
ENDBRANCH   7  10
TORSDOF 8
ENDMDL
MODEL 7
REMARK VINA RESULT:      -5.6     23.625     27.648
REMARK  Name = 56775407
REMARK  8 active torsions:
REMARK  status: ('A' for Active; 'I' for Inactive)
REMARK    1  A    between atoms: O_4  and  C_19
REMARK    2  A    between atoms: N_5  and  C_7
REMARK    3  A    between atoms: N_5  and  C_12
REMARK    4  A    between atoms: C_7  and  C_10
REMARK    5  A    between atoms: C_10  and  C_11
REMARK    6  A    between atoms: C_12  and  C_14
REMARK    7  A    between atoms: C_15  and  C_16
REMARK    8  A    between atoms: C_16  and  C_19
REMARK                            x       y       z     vdW  Elec       q    Type
REMARK                         _______ _______ _______ _____ _____    ______ ____
ROOT
ATOM      2  O   UNL     1     -12.948  13.271  18.389  0.00  0.00    -0.376 OA
ATOM      7  C   UNL     1     -11.807  11.470  18.307  0.00  0.00    +0.072 C 
ATOM      8  C   UNL     1     -12.787  12.219  17.411  0.00  0.00    +0.184 C 
ATOM      9  C   UNL     1     -11.956  12.662  19.246  0.00  0.00    +0.184 C 
ENDROOT
BRANCH   7   5
ATOM      5  N   UNL     1     -12.495  10.317  18.896  0.00  0.00    -0.302 NA
ATOM     23  H   UNL     1     -12.586   9.511  18.278  0.00  0.00    +0.123 HD
BRANCH   5  12
ATOM     12  C   UNL     1     -11.800   9.920  20.122  0.00  0.00    +0.120 C 
BRANCH  12  14
ATOM      1  F   UNL     1     -14.291   9.622  21.421  0.00  0.00    -0.205 F 
ATOM     14  C   UNL     1     -12.286   8.612  20.651  0.00  0.00    +0.002 A 
ATOM     17  C   UNL     1     -13.526   8.530  21.283  0.00  0.00    +0.128 A 
ATOM     18  C   UNL     1     -11.497   7.469  20.512  0.00  0.00    +0.008 A 
ATOM     20  C   UNL     1     -13.978   7.306  21.776  0.00  0.00    +0.038 A 
ATOM     21  C   UNL     1     -11.949   6.246  21.006  0.00  0.00    +0.000 A 
ATOM     22  C   UNL     1     -13.190   6.164  21.638  0.00  0.00    +0.003 A 
ENDBRANCH  12  14
ENDBRANCH   5  12
ENDBRANCH   7   5
BRANCH   7  10
ATOM     10  C   UNL     1     -10.449  11.130  17.775  0.00  0.00    +0.085 C 
BRANCH  10  11
ATOM      3  O   UNL     1     -10.481   8.030  15.919  0.00  0.00    -0.359 OA
ATOM      6  N   UNL     1     -10.323   8.762  17.089  0.00  0.00    -0.083 NA
ATOM     11  C   UNL     1     -10.538  10.032  16.736  0.00  0.00    +0.086 A 
ATOM     13  C   UNL     1     -10.831  10.163  15.367  0.00  0.00    +0.071 A 
ATOM     15  C   UNL     1     -10.784   8.876  14.900  0.00  0.00    +0.140 A 
BRANCH  15  16
ATOM     16  C   UNL     1     -10.986   8.266  13.580  0.00  0.00    +0.105 C 
BRANCH  16  19
ATOM     19  C   UNL     1      -9.907   7.232  13.202  0.00  0.00    +0.163 C 
BRANCH  19   4
ATOM      4  O   UNL     1      -9.225   7.670  12.034  0.00  0.00    -0.395 OA
ATOM     24  H   UNL     1      -8.992   6.876  11.525  0.00  0.00    +0.209 HD
ENDBRANCH  19   4
ENDBRANCH  16  19
ENDBRANCH  15  16
ENDBRANCH  10  11
ENDBRANCH   7  10
TORSDOF 8
ENDMDL
MODEL 8
REMARK VINA RESULT:      -5.2      3.707      7.665
REMARK  Name = 56775407
REMARK  8 active torsions:
REMARK  status: ('A' for Active; 'I' for Inactive)
REMARK    1  A    between atoms: O_4  and  C_19
REMARK    2  A    between atoms: N_5  and  C_7
REMARK    3  A    between atoms: N_5  and  C_12
REMARK    4  A    between atoms: C_7  and  C_10
REMARK    5  A    between atoms: C_10  and  C_11
REMARK    6  A    between atoms: C_12  and  C_14
REMARK    7  A    between atoms: C_15  and  C_16
REMARK    8  A    between atoms: C_16  and  C_19
REMARK                            x       y       z     vdW  Elec       q    Type
REMARK                         _______ _______ _______ _____ _____    ______ ____
ROOT
ATOM      2  O   UNL     1      14.509   6.631   1.054  0.00  0.00    -0.376 OA
ATOM      7  C   UNL     1      12.845   5.404   1.582  0.00  0.00    +0.072 C 
ATOM      8  C   UNL     1      13.290   6.236   0.385  0.00  0.00    +0.184 C 
ATOM      9  C   UNL     1      14.193   5.787   2.184  0.00  0.00    +0.184 C 
ENDROOT
BRANCH   7   5
ATOM      5  N   UNL     1      11.788   6.128   2.293  0.00  0.00    -0.302 NA
ATOM     23  H   UNL     1      11.103   6.586   1.692  0.00  0.00    +0.123 HD
BRANCH   5  12
ATOM     12  C   UNL     1      11.105   5.208   3.203  0.00  0.00    +0.120 C 
BRANCH  12  14
ATOM      1  F   UNL     1       9.207   4.324   5.100  0.00  0.00    -0.205 F 
ATOM     14  C   UNL     1      11.057   5.724   4.603  0.00  0.00    +0.002 A 
ATOM     17  C   UNL     1      10.095   5.248   5.492  0.00  0.00    +0.128 A 
ATOM     18  C   UNL     1      11.978   6.686   5.020  0.00  0.00    +0.008 A 
ATOM     20  C   UNL     1      10.054   5.731   6.799  0.00  0.00    +0.038 A 
ATOM     21  C   UNL     1      11.936   7.171   6.327  0.00  0.00    +0.000 A 
ATOM     22  C   UNL     1      10.974   6.693   7.217  0.00  0.00    +0.003 A 
ENDBRANCH  12  14
ENDBRANCH   5  12
ENDBRANCH   7   5
BRANCH   7  10
ATOM     10  C   UNL     1      12.526   3.954   1.382  0.00  0.00    +0.085 C 
BRANCH  10  11
ATOM      3  O   UNL     1      10.278   3.775  -1.441  0.00  0.00    -0.359 OA
ATOM      6  N   UNL     1      10.580   4.117  -0.130  0.00  0.00    -0.083 NA
ATOM     11  C   UNL     1      11.848   3.733   0.046  0.00  0.00    +0.086 A 
ATOM     13  C   UNL     1      12.391   3.145  -1.110  0.00  0.00    +0.071 A 
ATOM     15  C   UNL     1      11.364   3.196  -2.015  0.00  0.00    +0.140 A 
BRANCH  15  16
ATOM     16  C   UNL     1      11.219   2.768  -3.412  0.00  0.00    +0.105 C 
BRANCH  16  19
ATOM     19  C   UNL     1       9.822   3.040  -4.002  0.00  0.00    +0.163 C 
BRANCH  19   4
ATOM      4  O   UNL     1       8.934   2.002  -3.604  0.00  0.00    -0.395 OA
ATOM     24  H   UNL     1       9.467   1.332  -3.144  0.00  0.00    +0.209 HD
ENDBRANCH  19   4
ENDBRANCH  16  19
ENDBRANCH  15  16
ENDBRANCH  10  11
ENDBRANCH   7  10
TORSDOF 8
ENDMDL
MODEL 9
REMARK VINA RESULT:      -5.1     26.467     28.051
REMARK  Name = 56775407
REMARK  8 active torsions:
REMARK  status: ('A' for Active; 'I' for Inactive)
REMARK    1  A    between atoms: O_4  and  C_19
REMARK    2  A    between atoms: N_5  and  C_7
REMARK    3  A    between atoms: N_5  and  C_12
REMARK    4  A    between atoms: C_7  and  C_10
REMARK    5  A    between atoms: C_10  and  C_11
REMARK    6  A    between atoms: C_12  and  C_14
REMARK    7  A    between atoms: C_15  and  C_16
REMARK    8  A    between atoms: C_16  and  C_19
REMARK                            x       y       z     vdW  Elec       q    Type
REMARK                         _______ _______ _______ _____ _____    ______ ____
ROOT
ATOM      2  O   UNL     1     -10.809 -11.656  17.470  0.00  0.00    -0.376 OA
ATOM      7  C   UNL     1      -9.627 -10.047  16.715  0.00  0.00    +0.072 C 
ATOM      8  C   UNL     1      -9.522 -11.565  16.818  0.00  0.00    +0.184 C 
ATOM      9  C   UNL     1     -11.014 -10.233  17.321  0.00  0.00    +0.184 C 
ENDROOT
BRANCH   7   5
ATOM      5  N   UNL     1      -8.750  -9.446  17.723  0.00  0.00    -0.302 NA
ATOM     23  H   UNL     1      -8.687  -9.962  18.600  0.00  0.00    +0.123 HD
BRANCH   5  12
ATOM     12  C   UNL     1      -7.410  -9.280  17.155  0.00  0.00    +0.120 C 
BRANCH  12  14
ATOM      1  F   UNL     1      -4.960 -10.001  15.948  0.00  0.00    -0.205 F 
ATOM     14  C   UNL     1      -6.397 -10.142  17.831  0.00  0.00    +0.002 A 
ATOM     17  C   UNL     1      -5.205 -10.463  17.182  0.00  0.00    +0.128 A 
ATOM     18  C   UNL     1      -6.644 -10.627  19.116  0.00  0.00    +0.008 A 
ATOM     20  C   UNL     1      -4.260 -11.268  17.817  0.00  0.00    +0.038 A 
ATOM     21  C   UNL     1      -5.698 -11.433  19.751  0.00  0.00    +0.000 A 
ATOM     22  C   UNL     1      -4.506 -11.753  19.101  0.00  0.00    +0.003 A 
ENDBRANCH  12  14
ENDBRANCH   5  12
ENDBRANCH   7   5
BRANCH   7  10
ATOM     10  C   UNL     1      -9.503  -9.399  15.371  0.00  0.00    +0.085 C 
BRANCH  10  11
ATOM      3  O   UNL     1     -10.866  -6.079  15.794  0.00  0.00    -0.359 OA
ATOM      6  N   UNL     1      -9.941  -7.075  16.082  0.00  0.00    -0.083 NA
ATOM     11  C   UNL     1     -10.300  -8.112  15.320  0.00  0.00    +0.086 A 
ATOM     13  C   UNL     1     -11.435  -7.832  14.539  0.00  0.00    +0.071 A 
ATOM     15  C   UNL     1     -11.750  -6.541  14.874  0.00  0.00    +0.140 A 
BRANCH  15  16
ATOM     16  C   UNL     1     -12.805  -5.611  14.453  0.00  0.00    +0.105 C 
BRANCH  16  19
ATOM     19  C   UNL     1     -12.383  -4.673  13.305  0.00  0.00    +0.163 C 
BRANCH  19   4
ATOM      4  O   UNL     1     -12.326  -5.412  12.091  0.00  0.00    -0.395 OA
ATOM     24  H   UNL     1     -12.376  -6.353  12.328  0.00  0.00    +0.209 HD
ENDBRANCH  19   4
ENDBRANCH  16  19
ENDBRANCH  15  16
ENDBRANCH  10  11
ENDBRANCH   7  10
TORSDOF 8
ENDMDL
MODEL 10
REMARK VINA RESULT:      -5.1     26.032     28.905
REMARK  Name = 56775407
REMARK  8 active torsions:
REMARK  status: ('A' for Active; 'I' for Inactive)
REMARK    1  A    between atoms: O_4  and  C_19
REMARK    2  A    between atoms: N_5  and  C_7
REMARK    3  A    between atoms: N_5  and  C_12
REMARK    4  A    between atoms: C_7  and  C_10
REMARK    5  A    between atoms: C_10  and  C_11
REMARK    6  A    between atoms: C_12  and  C_14
REMARK    7  A    between atoms: C_15  and  C_16
REMARK    8  A    between atoms: C_16  and  C_19
REMARK                            x       y       z     vdW  Elec       q    Type
REMARK                         _______ _______ _______ _____ _____    ______ ____
ROOT
ATOM      2  O   UNL     1     -10.616  -6.650  15.560  0.00  0.00    -0.376 OA
ATOM      7  C   UNL     1     -10.003  -8.566  16.272  0.00  0.00    +0.072 C 
ATOM      8  C   UNL     1     -10.535  -7.267  16.865  0.00  0.00    +0.184 C 
ATOM      9  C   UNL     1     -10.205  -7.882  14.924  0.00  0.00    +0.184 C 
ENDROOT
BRANCH   7   5
ATOM      5  N   UNL     1      -8.566  -8.654  16.544  0.00  0.00    -0.302 NA
ATOM     23  H   UNL     1      -8.300  -8.460  17.510  0.00  0.00    +0.123 HD
BRANCH   5  12
ATOM     12  C   UNL     1      -8.087  -9.984  16.162  0.00  0.00    +0.120 C 
BRANCH  12  14
ATOM      1  F   UNL     1      -5.517  -9.502  15.092  0.00  0.00    -0.205 F 
ATOM     14  C   UNL     1      -6.829 -10.360  16.873  0.00  0.00    +0.002 A 
ATOM     17  C   UNL     1      -5.590 -10.095  16.292  0.00  0.00    +0.128 A 
ATOM     18  C   UNL     1      -6.896 -10.977  18.123  0.00  0.00    +0.008 A 
ATOM     20  C   UNL     1      -4.417 -10.446  16.959  0.00  0.00    +0.038 A 
ATOM     21  C   UNL     1      -5.723 -11.330  18.790  0.00  0.00    +0.000 A 
ATOM     22  C   UNL     1      -4.483 -11.064  18.208  0.00  0.00    +0.003 A 
ENDBRANCH  12  14
ENDBRANCH   5  12
ENDBRANCH   7   5
BRANCH   7  10
ATOM     10  C   UNL     1     -10.730  -9.845  16.552  0.00  0.00    +0.085 C 
BRANCH  10  11
ATOM      3  O   UNL     1     -10.994 -10.053  20.149  0.00  0.00    -0.359 OA
ATOM      6  N   UNL     1     -10.262 -10.031  18.969  0.00  0.00    -0.083 NA
ATOM     11  C   UNL     1     -11.173  -9.906  17.999  0.00  0.00    +0.086 A 
ATOM     13  C   UNL     1     -12.484  -9.846  18.502  0.00  0.00    +0.071 A 
ATOM     15  C   UNL     1     -12.316  -9.942  19.859  0.00  0.00    +0.140 A 
BRANCH  15  16
ATOM     16  C   UNL     1     -13.241  -9.949  20.999  0.00  0.00    +0.105 C 
BRANCH  16  19
ATOM     19  C   UNL     1     -13.602 -11.361  21.497  0.00  0.00    +0.163 C 
BRANCH  19   4
ATOM      4  O   UNL     1     -12.414 -12.132  21.625  0.00  0.00    -0.395 OA
ATOM     24  H   UNL     1     -11.972 -12.121  20.760  0.00  0.00    +0.209 HD
ENDBRANCH  19   4
ENDBRANCH  16  19
ENDBRANCH  15  16
ENDBRANCH  10  11
ENDBRANCH   7  10
TORSDOF 8
ENDMDL
