MODEL 1
REMARK VINA RESULT:      -6.9      0.000      0.000
REMARK  Name = 40777161
REMARK  10 active torsions:
REMARK  status: ('A' for Active; 'I' for Inactive)
REMARK    1  A    between atoms: N_6  and  C_16
REMARK    2  A    between atoms: C_10  and  C_17
REMARK    3  A    between atoms: C_11  and  C_16
REMARK    4  A    between atoms: C_19  and  C_21
REMARK    5  A    between atoms: C_20  and  C_23
REMARK    6  A    between atoms: C_21  and  C_24
REMARK    7  A    between atoms: C_21  and  C_25
REMARK    8  A    between atoms: C_21  and  C_26
REMARK    9  A    between atoms: C_22  and  C_27
REMARK   10  A    between atoms: C_32  and  C_33
REMARK                            x       y       z     vdW  Elec       q    Type
REMARK                         _______ _______ _______ _____ _____    ______ ____
ROOT
ATOM      5  N   UNL     1       9.953   7.127   7.721  0.00  0.00    -0.297 NA
ATOM      9  C   UNL     1       9.849   5.216   5.954  0.00  0.00    +0.002 C 
ATOM     10  C   UNL     1      11.149   6.049   5.779  0.00  0.00    +0.055 C 
ATOM     11  C   UNL     1       8.632   7.137   7.037  0.00  0.00    +0.074 C 
ATOM     12  C   UNL     1       8.626   6.151   5.849  0.00  0.00    +0.024 C 
ATOM     13  C   UNL     1       9.870   4.656   7.392  0.00  0.00    +0.019 C 
ATOM     14  C   UNL     1      11.042   7.279   6.725  0.00  0.00    +0.094 C 
ATOM     15  C   UNL     1      10.111   5.808   8.382  0.00  0.00    +0.085 C 
ENDROOT
BRANCH  10  17
ATOM      7  N   UNL     1      11.975   7.713   4.188  0.00  0.00    -0.237 NA
ATOM      8  N   UNL     1      12.327   7.200   1.860  0.00  0.00    -0.232 NA
ATOM     17  C   UNL     1      11.567   6.440   4.369  0.00  0.00    +0.050 A 
ATOM     18  C   UNL     1      11.512   5.502   3.359  0.00  0.00    +0.052 A 
ATOM     20  C   UNL     1      11.908   5.943   2.112  0.00  0.00    +0.075 A 
ATOM     22  C   UNL     1      12.336   8.021   2.928  0.00  0.00    +0.127 A 
ATOM     27  C   UNL     1      12.791   9.421   2.688  0.00  0.00    +0.088 C 
BRANCH  20  23
ATOM     23  C   UNL     1      11.896   5.060   0.970  0.00  0.00    +0.000 A 
ATOM     28  C   UNL     1      10.867   5.146   0.033  0.00  0.00    +0.010 A 
ATOM     29  C   UNL     1      12.915   4.122   0.803  0.00  0.00    +0.010 A 
ATOM     30  C   UNL     1      10.856   4.293  -1.071  0.00  0.00    +0.013 A 
ATOM     31  C   UNL     1      12.904   3.269  -0.301  0.00  0.00    +0.013 A 
ATOM     32  C   UNL     1      11.874   3.355  -1.238  0.00  0.00    +0.055 A 
BRANCH  32  33
ATOM      1  F   UNL     1      10.672   2.432  -3.088  0.00  0.00    -0.166 F 
ATOM      2  F   UNL     1      12.103   1.143  -2.079  0.00  0.00    -0.166 F 
ATOM      3  F   UNL     1      12.800   2.754  -3.360  0.00  0.00    -0.166 F 
ATOM     33  C   UNL     1      11.862   2.443  -2.418  0.00  0.00    +0.417 C 
ENDBRANCH  32  33
ENDBRANCH  20  23
ENDBRANCH  10  17
BRANCH  11  16
ATOM     16  C   UNL     1       8.207   8.545   6.613  0.00  0.00    +0.123 C 
BRANCH  16   6
ATOM      4  O   UNL     1       9.711  10.102   4.760  0.00  0.00    -0.275 OA
ATOM      6  N   UNL     1       8.001   8.611   5.199  0.00  0.00    -0.313 N 
ATOM     19  C   UNL     1       8.784   9.400   4.356  0.00  0.00    +0.218 C 
ATOM     34  H   UNL     1       7.251   8.052   4.807  0.00  0.00    +0.149 HD
BRANCH  19  21
ATOM     21  C   UNL     1       8.399   9.325   2.864  0.00  0.00    +0.039 C 
ATOM     24  C   UNL     1       8.774   7.950   2.290  0.00  0.00    +0.020 C 
ATOM     25  C   UNL     1       6.878   9.518   2.719  0.00  0.00    +0.020 C 
ATOM     26  C   UNL     1       9.111  10.438   2.079  0.00  0.00    +0.020 C 
ENDBRANCH  19  21
ENDBRANCH  16   6
ENDBRANCH  11  16
TORSDOF 6
ENDMDL
MODEL 2
REMARK VINA RESULT:      -6.8     23.961     26.649
REMARK  Name = 40777161
REMARK  10 active torsions:
REMARK  status: ('A' for Active; 'I' for Inactive)
REMARK    1  A    between atoms: N_6  and  C_16
REMARK    2  A    between atoms: C_10  and  C_17
REMARK    3  A    between atoms: C_11  and  C_16
REMARK    4  A    between atoms: C_19  and  C_21
REMARK    5  A    between atoms: C_20  and  C_23
REMARK    6  A    between atoms: C_21  and  C_24
REMARK    7  A    between atoms: C_21  and  C_25
REMARK    8  A    between atoms: C_21  and  C_26
REMARK    9  A    between atoms: C_22  and  C_27
REMARK   10  A    between atoms: C_32  and  C_33
REMARK                            x       y       z     vdW  Elec       q    Type
REMARK                         _______ _______ _______ _____ _____    ______ ____
ROOT
ATOM      5  N   UNL     1      -7.596 -11.478  17.789  0.00  0.00    -0.297 NA
ATOM      9  C   UNL     1      -5.090 -11.564  18.497  0.00  0.00    +0.002 C 
ATOM     10  C   UNL     1      -5.297 -10.537  17.349  0.00  0.00    +0.055 C 
ATOM     11  C   UNL     1      -7.126 -12.888  17.827  0.00  0.00    +0.074 C 
ATOM     12  C   UNL     1      -5.598 -12.948  18.041  0.00  0.00    +0.024 C 
ATOM     13  C   UNL     1      -5.994 -11.113  19.665  0.00  0.00    +0.019 C 
ATOM     14  C   UNL     1      -6.762 -10.689  16.849  0.00  0.00    +0.094 C 
ATOM     15  C   UNL     1      -7.427 -10.908  19.148  0.00  0.00    +0.085 C 
ENDROOT
BRANCH  10  17
ATOM      7  N   UNL     1      -2.989 -10.522  16.542  0.00  0.00    -0.237 NA
ATOM      8  N   UNL     1      -2.449 -10.510  14.194  0.00  0.00    -0.232 NA
ATOM     17  C   UNL     1      -4.294 -10.529  16.205  0.00  0.00    +0.050 A 
ATOM     18  C   UNL     1      -4.749 -10.527  14.902  0.00  0.00    +0.052 A 
ATOM     20  C   UNL     1      -3.771 -10.517  13.928  0.00  0.00    +0.075 A 
ATOM     22  C   UNL     1      -2.132 -10.513  15.503  0.00  0.00    +0.127 A 
ATOM     27  C   UNL     1      -0.678 -10.503  15.837  0.00  0.00    +0.088 C 
BRANCH  20  23
ATOM     23  C   UNL     1      -4.115 -10.513  12.526  0.00  0.00    +0.000 A 
ATOM     28  C   UNL     1      -3.130 -10.745  11.566  0.00  0.00    +0.010 A 
ATOM     29  C   UNL     1      -5.432 -10.278  12.132  0.00  0.00    +0.010 A 
ATOM     30  C   UNL     1      -3.463 -10.742  10.211  0.00  0.00    +0.013 A 
ATOM     31  C   UNL     1      -5.764 -10.274  10.776  0.00  0.00    +0.013 A 
ATOM     32  C   UNL     1      -4.780 -10.507   9.817  0.00  0.00    +0.055 A 
BRANCH  32  33
ATOM      1  F   UNL     1      -4.515 -11.486   7.650  0.00  0.00    -0.166 F 
ATOM      2  F   UNL     1      -4.802  -9.332   7.750  0.00  0.00    -0.166 F 
ATOM      3  F   UNL     1      -6.469 -10.675   8.131  0.00  0.00    -0.166 F 
ATOM     33  C   UNL     1      -5.135 -10.502   8.368  0.00  0.00    +0.417 C 
ENDBRANCH  32  33
ENDBRANCH  20  23
ENDBRANCH  10  17
BRANCH  11  16
ATOM     16  C   UNL     1      -7.561 -13.681  16.592  0.00  0.00    +0.123 C 
BRANCH  16   6
ATOM      4  O   UNL     1      -6.918 -13.139  13.868  0.00  0.00    -0.275 OA
ATOM      6  N   UNL     1      -6.424 -14.173  15.875  0.00  0.00    -0.313 N 
ATOM     19  C   UNL     1      -6.178 -13.861  14.539  0.00  0.00    +0.218 C 
ATOM     34  H   UNL     1      -5.776 -14.772  16.376  0.00  0.00    +0.149 HD
BRANCH  19  21
ATOM     21  C   UNL     1      -4.895 -14.490  13.956  0.00  0.00    +0.039 C 
ATOM     24  C   UNL     1      -3.673 -14.052  14.776  0.00  0.00    +0.020 C 
ATOM     25  C   UNL     1      -5.005 -16.024  14.021  0.00  0.00    +0.020 C 
ATOM     26  C   UNL     1      -4.725 -14.073  12.487  0.00  0.00    +0.020 C 
ENDBRANCH  19  21
ENDBRANCH  16   6
ENDBRANCH  11  16
TORSDOF 6
ENDMDL
MODEL 3
REMARK VINA RESULT:      -6.8     33.962     37.435
REMARK  Name = 40777161
REMARK  10 active torsions:
REMARK  status: ('A' for Active; 'I' for Inactive)
REMARK    1  A    between atoms: N_6  and  C_16
REMARK    2  A    between atoms: C_10  and  C_17
REMARK    3  A    between atoms: C_11  and  C_16
REMARK    4  A    between atoms: C_19  and  C_21
REMARK    5  A    between atoms: C_20  and  C_23
REMARK    6  A    between atoms: C_21  and  C_24
REMARK    7  A    between atoms: C_21  and  C_25
REMARK    8  A    between atoms: C_21  and  C_26
REMARK    9  A    between atoms: C_22  and  C_27
REMARK   10  A    between atoms: C_32  and  C_33
REMARK                            x       y       z     vdW  Elec       q    Type
REMARK                         _______ _______ _______ _____ _____    ______ ____
ROOT
ATOM      5  N   UNL     1     -18.603   2.885  26.285  0.00  0.00    -0.297 NA
ATOM      9  C   UNL     1     -16.919   0.898  26.197  0.00  0.00    +0.002 C 
ATOM     10  C   UNL     1     -17.285   1.237  27.668  0.00  0.00    +0.055 C 
ATOM     11  C   UNL     1     -17.450   3.233  25.412  0.00  0.00    +0.074 C 
ATOM     12  C   UNL     1     -16.347   2.157  25.511  0.00  0.00    +0.024 C 
ATOM     13  C   UNL     1     -18.241   0.553  25.478  0.00  0.00    +0.019 C 
ATOM     14  C   UNL     1     -18.124   2.547  27.648  0.00  0.00    +0.094 C 
ATOM     15  C   UNL     1     -19.257   1.683  25.713  0.00  0.00    +0.085 C 
ENDROOT
BRANCH  10  17
ATOM      7  N   UNL     1     -15.344   0.216  28.750  0.00  0.00    -0.237 NA
ATOM      8  N   UNL     1     -14.131   1.317  30.517  0.00  0.00    -0.232 NA
ATOM     17  C   UNL     1     -16.162   1.287  28.694  0.00  0.00    +0.050 A 
ATOM     18  C   UNL     1     -16.031   2.395  29.506  0.00  0.00    +0.052 A 
ATOM     20  C   UNL     1     -14.987   2.354  30.408  0.00  0.00    +0.075 A 
ATOM     22  C   UNL     1     -14.364   0.296  29.670  0.00  0.00    +0.127 A 
ATOM     27  C   UNL     1     -13.439  -0.870  29.763  0.00  0.00    +0.088 C 
BRANCH  20  23
ATOM     23  C   UNL     1     -14.741   3.450  31.315  0.00  0.00    +0.000 A 
ATOM     28  C   UNL     1     -14.052   3.228  32.506  0.00  0.00    +0.010 A 
ATOM     29  C   UNL     1     -15.194   4.731  30.999  0.00  0.00    +0.010 A 
ATOM     30  C   UNL     1     -13.814   4.288  33.382  0.00  0.00    +0.013 A 
ATOM     31  C   UNL     1     -14.956   5.791  31.875  0.00  0.00    +0.013 A 
ATOM     32  C   UNL     1     -14.266   5.568  33.066  0.00  0.00    +0.055 A 
BRANCH  32  33
ATOM      1  F   UNL     1     -13.835   6.309  35.300  0.00  0.00    -0.166 F 
ATOM      2  F   UNL     1     -15.039   7.600  34.030  0.00  0.00    -0.166 F 
ATOM      3  F   UNL     1     -12.899   7.428  33.695  0.00  0.00    -0.166 F 
ATOM     33  C   UNL     1     -14.013   6.701  34.004  0.00  0.00    +0.417 C 
ENDBRANCH  32  33
ENDBRANCH  20  23
ENDBRANCH  10  17
BRANCH  11  16
ATOM     16  C   UNL     1     -16.907   4.636  25.696  0.00  0.00    +0.123 C 
BRANCH  16   6
ATOM      4  O   UNL     1     -17.398   6.001  23.244  0.00  0.00    -0.275 OA
ATOM      6  N   UNL     1     -15.926   5.009  24.724  0.00  0.00    -0.313 N 
ATOM     19  C   UNL     1     -16.248   5.679  23.544  0.00  0.00    +0.218 C 
ATOM     34  H   UNL     1     -14.959   4.771  24.916  0.00  0.00    +0.149 HD
BRANCH  19  21
ATOM     21  C   UNL     1     -15.042   5.993  22.633  0.00  0.00    +0.039 C 
ATOM     24  C   UNL     1     -15.405   5.723  21.165  0.00  0.00    +0.020 C 
ATOM     25  C   UNL     1     -14.664   7.478  22.780  0.00  0.00    +0.020 C 
ATOM     26  C   UNL     1     -13.834   5.137  23.045  0.00  0.00    +0.020 C 
ENDBRANCH  19  21
ENDBRANCH  16   6
ENDBRANCH  11  16
TORSDOF 6
ENDMDL
MODEL 4
REMARK VINA RESULT:      -6.6     16.440     19.083
REMARK  Name = 40777161
REMARK  10 active torsions:
REMARK  status: ('A' for Active; 'I' for Inactive)
REMARK    1  A    between atoms: N_6  and  C_16
REMARK    2  A    between atoms: C_10  and  C_17
REMARK    3  A    between atoms: C_11  and  C_16
REMARK    4  A    between atoms: C_19  and  C_21
REMARK    5  A    between atoms: C_20  and  C_23
REMARK    6  A    between atoms: C_21  and  C_24
REMARK    7  A    between atoms: C_21  and  C_25
REMARK    8  A    between atoms: C_21  and  C_26
REMARK    9  A    between atoms: C_22  and  C_27
REMARK   10  A    between atoms: C_32  and  C_33
REMARK                            x       y       z     vdW  Elec       q    Type
REMARK                         _______ _______ _______ _____ _____    ______ ____
ROOT
ATOM      5  N   UNL     1      12.907  11.820  23.532  0.00  0.00    -0.297 NA
ATOM      9  C   UNL     1      11.342  10.626  21.825  0.00  0.00    +0.002 C 
ATOM     10  C   UNL     1      12.506   9.687  22.245  0.00  0.00    +0.055 C 
ATOM     11  C   UNL     1      12.677  12.697  22.354  0.00  0.00    +0.074 C 
ATOM     12  C   UNL     1      11.925  11.932  21.243  0.00  0.00    +0.024 C 
ATOM     13  C   UNL     1      10.587  11.005  23.117  0.00  0.00    +0.019 C 
ATOM     14  C   UNL     1      13.497  10.529  23.097  0.00  0.00    +0.094 C 
ATOM     15  C   UNL     1      11.590  11.539  24.153  0.00  0.00    +0.085 C 
ENDROOT
BRANCH  10  17
ATOM      7  N   UNL     1      12.510   8.641  20.035  0.00  0.00    -0.237 NA
ATOM      8  N   UNL     1      14.426   7.458  19.177  0.00  0.00    -0.232 NA
ATOM     17  C   UNL     1      13.212   8.888  21.159  0.00  0.00    +0.050 A 
ATOM     18  C   UNL     1      14.507   8.460  21.364  0.00  0.00    +0.052 A 
ATOM     20  C   UNL     1      15.069   7.741  20.328  0.00  0.00    +0.075 A 
ATOM     22  C   UNL     1      13.167   7.931  19.098  0.00  0.00    +0.127 A 
ATOM     27  C   UNL     1      12.422   7.635  17.840  0.00  0.00    +0.088 C 
BRANCH  20  23
ATOM     23  C   UNL     1      16.419   7.235  20.417  0.00  0.00    +0.000 A 
ATOM     28  C   UNL     1      17.306   7.777  21.345  0.00  0.00    +0.010 A 
ATOM     29  C   UNL     1      16.833   6.203  19.575  0.00  0.00    +0.010 A 
ATOM     30  C   UNL     1      18.610   7.287  21.432  0.00  0.00    +0.013 A 
ATOM     31  C   UNL     1      18.137   5.713  19.662  0.00  0.00    +0.013 A 
ATOM     32  C   UNL     1      19.024   6.255  20.590  0.00  0.00    +0.055 A 
BRANCH  32  33
ATOM      1  F   UNL     1      21.346   6.539  20.087  0.00  0.00    -0.166 F 
ATOM      2  F   UNL     1      20.560   4.511  20.091  0.00  0.00    -0.166 F 
ATOM      3  F   UNL     1      20.858   5.570  21.965  0.00  0.00    -0.166 F 
ATOM     33  C   UNL     1      20.418   5.732  20.683  0.00  0.00    +0.417 C 
ENDBRANCH  32  33
ENDBRANCH  20  23
ENDBRANCH  10  17
BRANCH  11  16
ATOM     16  C   UNL     1      13.971  13.329  21.837  0.00  0.00    +0.123 C 
BRANCH  16   6
ATOM      4  O   UNL     1      15.859  11.656  20.512  0.00  0.00    -0.275 OA
ATOM      6  N   UNL     1      14.097  13.148  20.423  0.00  0.00    -0.313 N 
ATOM     19  C   UNL     1      15.051  12.307  19.850  0.00  0.00    +0.218 C 
ATOM     34  H   UNL     1      13.456  13.659  19.825  0.00  0.00    +0.149 HD
BRANCH  19  21
ATOM     21  C   UNL     1      15.015  12.251  18.308  0.00  0.00    +0.039 C 
ATOM     24  C   UNL     1      14.607  10.846  17.840  0.00  0.00    +0.020 C 
ATOM     25  C   UNL     1      13.980  13.263  17.784  0.00  0.00    +0.020 C 
ATOM     26  C   UNL     1      16.393  12.620  17.736  0.00  0.00    +0.020 C 
ENDBRANCH  19  21
ENDBRANCH  16   6
ENDBRANCH  11  16
TORSDOF 6
ENDMDL
MODEL 5
REMARK VINA RESULT:      -6.6     26.227     29.018
REMARK  Name = 40777161
REMARK  10 active torsions:
REMARK  status: ('A' for Active; 'I' for Inactive)
REMARK    1  A    between atoms: N_6  and  C_16
REMARK    2  A    between atoms: C_10  and  C_17
REMARK    3  A    between atoms: C_11  and  C_16
REMARK    4  A    between atoms: C_19  and  C_21
REMARK    5  A    between atoms: C_20  and  C_23
REMARK    6  A    between atoms: C_21  and  C_24
REMARK    7  A    between atoms: C_21  and  C_25
REMARK    8  A    between atoms: C_21  and  C_26
REMARK    9  A    between atoms: C_22  and  C_27
REMARK   10  A    between atoms: C_32  and  C_33
REMARK                            x       y       z     vdW  Elec       q    Type
REMARK                         _______ _______ _______ _____ _____    ______ ____
ROOT
ATOM      5  N   UNL     1     -11.537  -6.901  14.451  0.00  0.00    -0.297 NA
ATOM      9  C   UNL     1     -12.619  -8.158  16.460  0.00  0.00    +0.002 C 
ATOM     10  C   UNL     1     -11.157  -7.753  16.795  0.00  0.00    +0.055 C 
ATOM     11  C   UNL     1     -12.165  -8.165  13.982  0.00  0.00    +0.074 C 
ATOM     12  C   UNL     1     -12.628  -9.021  15.180  0.00  0.00    +0.024 C 
ATOM     13  C   UNL     1     -13.378  -6.854  16.133  0.00  0.00    +0.019 C 
ATOM     14  C   UNL     1     -10.520  -7.195  15.491  0.00  0.00    +0.094 C 
ATOM     15  C   UNL     1     -12.598  -6.068  15.066  0.00  0.00    +0.085 C 
ENDROOT
BRANCH  10  17
ATOM      7  N   UNL     1     -10.827  -9.509  18.466  0.00  0.00    -0.237 NA
ATOM      8  N   UNL     1      -8.716 -10.636  18.745  0.00  0.00    -0.232 NA
ATOM     17  C   UNL     1     -10.266  -8.780  17.479  0.00  0.00    +0.050 A 
ATOM     18  C   UNL     1      -8.954  -8.919  17.075  0.00  0.00    +0.052 A 
ATOM     20  C   UNL     1      -8.219  -9.872  17.751  0.00  0.00    +0.075 A 
ATOM     22  C   UNL     1     -10.008 -10.405  19.048  0.00  0.00    +0.127 A 
ATOM     27  C   UNL     1     -10.592 -11.229  20.145  0.00  0.00    +0.088 C 
BRANCH  20  23
ATOM     23  C   UNL     1      -6.834 -10.116  17.424  0.00  0.00    +0.000 A 
ATOM     28  C   UNL     1      -6.324  -9.698  16.195  0.00  0.00    +0.010 A 
ATOM     29  C   UNL     1      -6.006 -10.767  18.338  0.00  0.00    +0.010 A 
ATOM     30  C   UNL     1      -4.985  -9.933  15.880  0.00  0.00    +0.013 A 
ATOM     31  C   UNL     1      -4.667 -11.001  18.023  0.00  0.00    +0.013 A 
ATOM     32  C   UNL     1      -4.157 -10.584  16.794  0.00  0.00    +0.055 A 
BRANCH  32  33
ATOM      1  F   UNL     1      -2.102  -9.762  15.886  0.00  0.00    -0.166 F 
ATOM      2  F   UNL     1      -2.568 -11.863  15.573  0.00  0.00    -0.166 F 
ATOM      3  F   UNL     1      -1.958 -11.160  17.538  0.00  0.00    -0.166 F 
ATOM     33  C   UNL     1      -2.726 -10.835  16.457  0.00  0.00    +0.417 C 
ENDBRANCH  32  33
ENDBRANCH  20  23
ENDBRANCH  10  17
BRANCH  11  16
ATOM     16  C   UNL     1     -11.255  -8.951  13.035  0.00  0.00    +0.123 C 
BRANCH  16   6
ATOM      4  O   UNL     1      -8.653  -9.939  13.649  0.00  0.00    -0.275 OA
ATOM      6  N   UNL     1     -10.943 -10.237  13.580  0.00  0.00    -0.313 N 
ATOM     19  C   UNL     1      -9.639 -10.648  13.854  0.00  0.00    +0.218 C 
ATOM     34  H   UNL     1     -11.716 -10.866  13.772  0.00  0.00    +0.149 HD
BRANCH  19  21
ATOM     21  C   UNL     1      -9.522 -12.070  14.442  0.00  0.00    +0.039 C 
ATOM     24  C   UNL     1     -10.304 -12.162  15.760  0.00  0.00    +0.020 C 
ATOM     25  C   UNL     1     -10.116 -13.084  13.447  0.00  0.00    +0.020 C 
ATOM     26  C   UNL     1      -8.045 -12.422  14.676  0.00  0.00    +0.020 C 
ENDBRANCH  19  21
ENDBRANCH  16   6
ENDBRANCH  11  16
TORSDOF 6
ENDMDL
MODEL 6
REMARK VINA RESULT:      -6.5     25.006     28.118
REMARK  Name = 40777161
REMARK  10 active torsions:
REMARK  status: ('A' for Active; 'I' for Inactive)
REMARK    1  A    between atoms: N_6  and  C_16
REMARK    2  A    between atoms: C_10  and  C_17
REMARK    3  A    between atoms: C_11  and  C_16
REMARK    4  A    between atoms: C_19  and  C_21
REMARK    5  A    between atoms: C_20  and  C_23
REMARK    6  A    between atoms: C_21  and  C_24
REMARK    7  A    between atoms: C_21  and  C_25
REMARK    8  A    between atoms: C_21  and  C_26
REMARK    9  A    between atoms: C_22  and  C_27
REMARK   10  A    between atoms: C_32  and  C_33
REMARK                            x       y       z     vdW  Elec       q    Type
REMARK                         _______ _______ _______ _____ _____    ______ ____
ROOT
ATOM      5  N   UNL     1      -2.522 -10.583  13.401  0.00  0.00    -0.297 NA
ATOM      9  C   UNL     1      -3.770 -12.860  13.185  0.00  0.00    +0.002 C 
ATOM     10  C   UNL     1      -4.775 -11.678  13.104  0.00  0.00    +0.055 C 
ATOM     11  C   UNL     1      -2.106 -11.497  14.498  0.00  0.00    +0.074 C 
ATOM     12  C   UNL     1      -2.982 -12.768  14.510  0.00  0.00    +0.024 C 
ATOM     13  C   UNL     1      -2.754 -12.660  12.040  0.00  0.00    +0.019 C 
ATOM     14  C   UNL     1      -3.991 -10.378  13.440  0.00  0.00    +0.094 C 
ATOM     15  C   UNL     1      -2.181 -11.235  12.114  0.00  0.00    +0.085 C 
ENDROOT
BRANCH  10  17
ATOM      7  N   UNL     1      -6.421 -13.016  14.321  0.00  0.00    -0.237 NA
ATOM      8  N   UNL     1      -8.401 -12.045  15.293  0.00  0.00    -0.232 NA
ATOM     17  C   UNL     1      -6.076 -11.788  13.886  0.00  0.00    +0.050 A 
ATOM     18  C   UNL     1      -6.831 -10.654  14.111  0.00  0.00    +0.052 A 
ATOM     20  C   UNL     1      -7.995 -10.846  14.827  0.00  0.00    +0.075 A 
ATOM     22  C   UNL     1      -7.578 -13.073  15.008  0.00  0.00    +0.127 A 
ATOM     27  C   UNL     1      -7.995 -14.416  15.503  0.00  0.00    +0.088 C 
BRANCH  20  23
ATOM     23  C   UNL     1      -8.875  -9.741  15.129  0.00  0.00    +0.000 A 
ATOM     28  C   UNL     1      -9.862  -9.368  14.218  0.00  0.00    +0.010 A 
ATOM     29  C   UNL     1      -8.738  -9.050  16.333  0.00  0.00    +0.010 A 
ATOM     30  C   UNL     1     -10.713  -8.300  14.511  0.00  0.00    +0.013 A 
ATOM     31  C   UNL     1      -9.589  -7.983  16.625  0.00  0.00    +0.013 A 
ATOM     32  C   UNL     1     -10.576  -7.609  15.714  0.00  0.00    +0.055 A 
BRANCH  32  33
ATOM      1  F   UNL     1     -12.768  -6.849  16.297  0.00  0.00    -0.166 F 
ATOM      2  F   UNL     1     -11.577  -5.575  14.999  0.00  0.00    -0.166 F 
ATOM      3  F   UNL     1     -11.093  -5.738  17.111  0.00  0.00    -0.166 F 
ATOM     33  C   UNL     1     -11.484  -6.468  16.026  0.00  0.00    +0.417 C 
ENDBRANCH  32  33
ENDBRANCH  20  23
ENDBRANCH  10  17
BRANCH  11  16
ATOM     16  C   UNL     1      -2.091 -10.801  15.861  0.00  0.00    +0.123 C 
BRANCH  16   6
ATOM      4  O   UNL     1      -4.628  -9.881  16.776  0.00  0.00    -0.275 OA
ATOM      6  N   UNL     1      -2.953 -11.472  16.785  0.00  0.00    -0.313 N 
ATOM     19  C   UNL     1      -4.185 -10.954  17.184  0.00  0.00    +0.218 C 
ATOM     34  H   UNL     1      -2.642 -12.364  17.156  0.00  0.00    +0.149 HD
BRANCH  19  21
ATOM     21  C   UNL     1      -4.961 -11.837  18.184  0.00  0.00    +0.039 C 
ATOM     24  C   UNL     1      -4.264 -11.823  19.553  0.00  0.00    +0.020 C 
ATOM     25  C   UNL     1      -6.387 -11.283  18.355  0.00  0.00    +0.020 C 
ATOM     26  C   UNL     1      -5.055 -13.276  17.653  0.00  0.00    +0.020 C 
ENDBRANCH  19  21
ENDBRANCH  16   6
ENDBRANCH  11  16
TORSDOF 6
ENDMDL
MODEL 7
REMARK VINA RESULT:      -6.5      2.326      4.184
REMARK  Name = 40777161
REMARK  10 active torsions:
REMARK  status: ('A' for Active; 'I' for Inactive)
REMARK    1  A    between atoms: N_6  and  C_16
REMARK    2  A    between atoms: C_10  and  C_17
REMARK    3  A    between atoms: C_11  and  C_16
REMARK    4  A    between atoms: C_19  and  C_21
REMARK    5  A    between atoms: C_20  and  C_23
REMARK    6  A    between atoms: C_21  and  C_24
REMARK    7  A    between atoms: C_21  and  C_25
REMARK    8  A    between atoms: C_21  and  C_26
REMARK    9  A    between atoms: C_22  and  C_27
REMARK   10  A    between atoms: C_32  and  C_33
REMARK                            x       y       z     vdW  Elec       q    Type
REMARK                         _______ _______ _______ _____ _____    ______ ____
ROOT
ATOM      5  N   UNL     1      11.349  11.580   6.684  0.00  0.00    -0.297 NA
ATOM      9  C   UNL     1       9.435  10.218   7.810  0.00  0.00    +0.002 C 
ATOM     10  C   UNL     1      10.733   9.367   7.727  0.00  0.00    +0.055 C 
ATOM     11  C   UNL     1      10.117  11.650   5.853  0.00  0.00    +0.074 C 
ATOM     12  C   UNL     1       9.040  10.685   6.393  0.00  0.00    +0.024 C 
ATOM     13  C   UNL     1       9.784  11.483   8.624  0.00  0.00    +0.019 C 
ATOM     14  C   UNL     1      11.756  10.166   6.870  0.00  0.00    +0.094 C 
ATOM     15  C   UNL     1      11.030  12.149   8.016  0.00  0.00    +0.085 C 
ENDROOT
BRANCH  10  17
ATOM      7  N   UNL     1      10.114   7.045   8.180  0.00  0.00    -0.237 NA
ATOM      8  N   UNL     1      10.378   5.301   6.538  0.00  0.00    -0.232 NA
ATOM     17  C   UNL     1      10.613   7.917   7.281  0.00  0.00    +0.050 A 
ATOM     18  C   UNL     1      11.011   7.562   6.008  0.00  0.00    +0.052 A 
ATOM     20  C   UNL     1      10.869   6.227   5.689  0.00  0.00    +0.075 A 
ATOM     22  C   UNL     1      10.025   5.772   7.750  0.00  0.00    +0.127 A 
ATOM     27  C   UNL     1       9.480   4.777   8.718  0.00  0.00    +0.088 C 
BRANCH  20  23
ATOM     23  C   UNL     1      11.249   5.726   4.389  0.00  0.00    +0.000 A 
ATOM     28  C   UNL     1      10.621   4.596   3.866  0.00  0.00    +0.010 A 
ATOM     29  C   UNL     1      12.244   6.373   3.657  0.00  0.00    +0.010 A 
ATOM     30  C   UNL     1      10.988   4.113   2.610  0.00  0.00    +0.013 A 
ATOM     31  C   UNL     1      12.611   5.889   2.400  0.00  0.00    +0.013 A 
ATOM     32  C   UNL     1      11.983   4.760   1.877  0.00  0.00    +0.055 A 
BRANCH  32  33
ATOM      1  F   UNL     1      11.350   4.228  -0.367  0.00  0.00    -0.166 F 
ATOM      2  F   UNL     1      12.841   2.960   0.582  0.00  0.00    -0.166 F 
ATOM      3  F   UNL     1      13.366   4.969  -0.063  0.00  0.00    -0.166 F 
ATOM     33  C   UNL     1      12.376   4.243   0.535  0.00  0.00    +0.417 C 
ENDBRANCH  32  33
ENDBRANCH  20  23
ENDBRANCH  10  17
BRANCH  11  16
ATOM     16  C   UNL     1      10.402  11.414   4.368  0.00  0.00    +0.123 C 
BRANCH  16   6
ATOM      4  O   UNL     1      11.084   9.370   2.503  0.00  0.00    -0.275 OA
ATOM      6  N   UNL     1       9.516  10.428   3.829  0.00  0.00    -0.313 N 
ATOM     19  C   UNL     1       9.928   9.457   2.918  0.00  0.00    +0.218 C 
ATOM     34  H   UNL     1       8.549  10.449   4.136  0.00  0.00    +0.149 HD
BRANCH  19  21
ATOM     21  C   UNL     1       8.817   8.487   2.464  0.00  0.00    +0.039 C 
ATOM     24  C   UNL     1       9.393   7.433   1.507  0.00  0.00    +0.020 C 
ATOM     25  C   UNL     1       8.236   7.766   3.695  0.00  0.00    +0.020 C 
ATOM     26  C   UNL     1       7.687   9.267   1.775  0.00  0.00    +0.020 C 
ENDBRANCH  19  21
ENDBRANCH  16   6
ENDBRANCH  11  16
TORSDOF 6
ENDMDL
MODEL 8
REMARK VINA RESULT:      -6.5     17.958     20.247
REMARK  Name = 40777161
REMARK  10 active torsions:
REMARK  status: ('A' for Active; 'I' for Inactive)
REMARK    1  A    between atoms: N_6  and  C_16
REMARK    2  A    between atoms: C_10  and  C_17
REMARK    3  A    between atoms: C_11  and  C_16
REMARK    4  A    between atoms: C_19  and  C_21
REMARK    5  A    between atoms: C_20  and  C_23
REMARK    6  A    between atoms: C_21  and  C_24
REMARK    7  A    between atoms: C_21  and  C_25
REMARK    8  A    between atoms: C_21  and  C_26
REMARK    9  A    between atoms: C_22  and  C_27
REMARK   10  A    between atoms: C_32  and  C_33
REMARK                            x       y       z     vdW  Elec       q    Type
REMARK                         _______ _______ _______ _____ _____    ______ ____
ROOT
ATOM      5  N   UNL     1      11.068   8.274  21.875  0.00  0.00    -0.297 NA
ATOM      9  C   UNL     1      12.440   9.537  20.055  0.00  0.00    +0.002 C 
ATOM     10  C   UNL     1      13.307   8.435  20.723  0.00  0.00    +0.055 C 
ATOM     11  C   UNL     1      10.949   9.743  22.076  0.00  0.00    +0.074 C 
ATOM     12  C   UNL     1      11.916  10.502  21.141  0.00  0.00    +0.024 C 
ATOM     13  C   UNL     1      11.211   8.828  19.447  0.00  0.00    +0.019 C 
ATOM     14  C   UNL     1      12.495   7.869  21.923  0.00  0.00    +0.094 C 
ATOM     15  C   UNL     1      10.543   7.958  20.525  0.00  0.00    +0.085 C 
ENDROOT
BRANCH  10  17
ATOM      7  N   UNL     1      14.953  10.021  21.595  0.00  0.00    -0.237 NA
ATOM      8  N   UNL     1      17.287   9.462  21.812  0.00  0.00    -0.232 NA
ATOM     17  C   UNL     1      14.739   8.782  21.108  0.00  0.00    +0.050 A 
ATOM     18  C   UNL     1      15.734   7.840  20.945  0.00  0.00    +0.052 A 
ATOM     20  C   UNL     1      17.001   8.241  21.317  0.00  0.00    +0.075 A 
ATOM     22  C   UNL     1      16.231  10.291  21.922  0.00  0.00    +0.127 A 
ATOM     27  C   UNL     1      16.507  11.654  22.463  0.00  0.00    +0.088 C 
BRANCH  20  23
ATOM     23  C   UNL     1      18.131   7.349  21.196  0.00  0.00    +0.000 A 
ATOM     28  C   UNL     1      19.254   7.533  22.001  0.00  0.00    +0.010 A 
ATOM     29  C   UNL     1      18.097   6.303  20.274  0.00  0.00    +0.010 A 
ATOM     30  C   UNL     1      20.345   6.671  21.884  0.00  0.00    +0.013 A 
ATOM     31  C   UNL     1      19.188   5.441  20.157  0.00  0.00    +0.013 A 
ATOM     32  C   UNL     1      20.311   5.626  20.962  0.00  0.00    +0.055 A 
BRANCH  32  33
ATOM      1  F   UNL     1      21.129   3.386  20.764  0.00  0.00    -0.166 F 
ATOM      2  F   UNL     1      22.336   4.798  21.894  0.00  0.00    -0.166 F 
ATOM      3  F   UNL     1      22.239   4.934  19.727  0.00  0.00    -0.166 F 
ATOM     33  C   UNL     1      21.478   4.705  20.837  0.00  0.00    +0.417 C 
ENDBRANCH  32  33
ENDBRANCH  20  23
ENDBRANCH  10  17
BRANCH  11  16
ATOM     16  C   UNL     1      11.136  10.147  23.540  0.00  0.00    +0.123 C 
BRANCH  16   6
ATOM      4  O   UNL     1      12.801  12.226  24.554  0.00  0.00    -0.275 OA
ATOM      6  N   UNL     1      10.758  11.512  23.744  0.00  0.00    -0.313 N 
ATOM     19  C   UNL     1      11.635  12.474  24.246  0.00  0.00    +0.218 C 
ATOM     34  H   UNL     1       9.808  11.777  23.506  0.00  0.00    +0.149 HD
BRANCH  19  21
ATOM     21  C   UNL     1      11.030  13.886  24.385  0.00  0.00    +0.039 C 
ATOM     24  C   UNL     1      12.074  14.948  24.009  0.00  0.00    +0.020 C 
ATOM     25  C   UNL     1       9.828  14.022  23.433  0.00  0.00    +0.020 C 
ATOM     26  C   UNL     1      10.542  14.110  25.825  0.00  0.00    +0.020 C 
ENDBRANCH  19  21
ENDBRANCH  16   6
ENDBRANCH  11  16
TORSDOF 6
ENDMDL
MODEL 9
REMARK VINA RESULT:      -6.5      2.970      5.333
REMARK  Name = 40777161
REMARK  10 active torsions:
REMARK  status: ('A' for Active; 'I' for Inactive)
REMARK    1  A    between atoms: N_6  and  C_16
REMARK    2  A    between atoms: C_10  and  C_17
REMARK    3  A    between atoms: C_11  and  C_16
REMARK    4  A    between atoms: C_19  and  C_21
REMARK    5  A    between atoms: C_20  and  C_23
REMARK    6  A    between atoms: C_21  and  C_24
REMARK    7  A    between atoms: C_21  and  C_25
REMARK    8  A    between atoms: C_21  and  C_26
REMARK    9  A    between atoms: C_22  and  C_27
REMARK   10  A    between atoms: C_32  and  C_33
REMARK                            x       y       z     vdW  Elec       q    Type
REMARK                         _______ _______ _______ _____ _____    ______ ____
ROOT
ATOM      5  N   UNL     1      10.236  11.438   8.300  0.00  0.00    -0.297 NA
ATOM      9  C   UNL     1       9.508  10.421   6.015  0.00  0.00    +0.002 C 
ATOM     10  C   UNL     1       9.220   9.424   7.171  0.00  0.00    +0.055 C 
ATOM     11  C   UNL     1      11.339  11.566   7.312  0.00  0.00    +0.074 C 
ATOM     12  C   UNL     1      11.007  10.789   6.020  0.00  0.00    +0.024 C 
ATOM     13  C   UNL     1       8.724  11.712   6.336  0.00  0.00    +0.019 C 
ATOM     14  C   UNL     1       9.861  10.011   8.460  0.00  0.00    +0.094 C 
ATOM     15  C   UNL     1       9.061  12.168   7.765  0.00  0.00    +0.085 C 
ENDROOT
BRANCH  10  17
ATOM      7  N   UNL     1       9.378   7.131   8.006  0.00  0.00    -0.237 NA
ATOM      8  N   UNL     1      10.212   5.323   6.648  0.00  0.00    -0.232 NA
ATOM     17  C   UNL     1       9.581   7.960   6.963  0.00  0.00    +0.050 A 
ATOM     18  C   UNL     1      10.089   7.551   5.746  0.00  0.00    +0.052 A 
ATOM     20  C   UNL     1      10.389   6.208   5.646  0.00  0.00    +0.075 A 
ATOM     22  C   UNL     1       9.710   5.844   7.784  0.00  0.00    +0.127 A 
ATOM     27  C   UNL     1       9.502   4.897   8.917  0.00  0.00    +0.088 C 
BRANCH  20  23
ATOM     23  C   UNL     1      10.928   5.653   4.426  0.00  0.00    +0.000 A 
ATOM     28  C   UNL     1      11.799   6.408   3.643  0.00  0.00    +0.010 A 
ATOM     29  C   UNL     1      10.578   4.362   4.034  0.00  0.00    +0.010 A 
ATOM     30  C   UNL     1      12.321   5.872   2.465  0.00  0.00    +0.013 A 
ATOM     31  C   UNL     1      11.099   3.825   2.855  0.00  0.00    +0.013 A 
ATOM     32  C   UNL     1      11.970   4.580   2.072  0.00  0.00    +0.055 A 
BRANCH  32  33
ATOM      1  F   UNL     1      13.408   4.836   0.177  0.00  0.00    -0.166 F 
ATOM      2  F   UNL     1      11.560   3.726  -0.108  0.00  0.00    -0.166 F 
ATOM      3  F   UNL     1      13.208   2.838   0.997  0.00  0.00    -0.166 F 
ATOM     33  C   UNL     1      12.527   4.007   0.812  0.00  0.00    +0.417 C 
ENDBRANCH  32  33
ENDBRANCH  20  23
ENDBRANCH  10  17
BRANCH  11  16
ATOM     16  C   UNL     1      12.694  11.154   7.894  0.00  0.00    +0.123 C 
BRANCH  16   6
ATOM      4  O   UNL     1      15.177  10.931   6.514  0.00  0.00    -0.275 OA
ATOM      6  N   UNL     1      13.197   9.986   7.237  0.00  0.00    -0.313 N 
ATOM     19  C   UNL     1      14.427   9.957   6.582  0.00  0.00    +0.218 C 
ATOM     34  H   UNL     1      12.622   9.150   7.260  0.00  0.00    +0.149 HD
BRANCH  19  21
ATOM     21  C   UNL     1      14.784   8.599   5.942  0.00  0.00    +0.039 C 
ATOM     24  C   UNL     1      13.914   7.486   6.546  0.00  0.00    +0.020 C 
ATOM     25  C   UNL     1      14.517   8.662   4.427  0.00  0.00    +0.020 C 
ATOM     26  C   UNL     1      16.272   8.287   6.165  0.00  0.00    +0.020 C 
ENDBRANCH  19  21
ENDBRANCH  16   6
ENDBRANCH  11  16
TORSDOF 6
ENDMDL
MODEL 10
REMARK VINA RESULT:      -6.4     25.233     28.041
REMARK  Name = 40777161
REMARK  10 active torsions:
REMARK  status: ('A' for Active; 'I' for Inactive)
REMARK    1  A    between atoms: N_6  and  C_16
REMARK    2  A    between atoms: C_10  and  C_17
REMARK    3  A    between atoms: C_11  and  C_16
REMARK    4  A    between atoms: C_19  and  C_21
REMARK    5  A    between atoms: C_20  and  C_23
REMARK    6  A    between atoms: C_21  and  C_24
REMARK    7  A    between atoms: C_21  and  C_25
REMARK    8  A    between atoms: C_21  and  C_26
REMARK    9  A    between atoms: C_22  and  C_27
REMARK   10  A    between atoms: C_32  and  C_33
REMARK                            x       y       z     vdW  Elec       q    Type
REMARK                         _______ _______ _______ _____ _____    ______ ____
ROOT
ATOM      5  N   UNL     1     -10.377 -10.200  17.502  0.00  0.00    -0.297 NA
ATOM      9  C   UNL     1      -8.848 -11.382  19.249  0.00  0.00    +0.002 C 
ATOM     10  C   UNL     1      -8.045 -10.314  18.457  0.00  0.00    +0.055 C 
ATOM     11  C   UNL     1     -10.511 -11.676  17.380  0.00  0.00    +0.074 C 
ATOM     12  C   UNL     1      -9.465 -12.394  18.259  0.00  0.00    +0.024 C 
ATOM     13  C   UNL     1     -10.020 -10.643  19.930  0.00  0.00    +0.019 C 
ATOM     14  C   UNL     1      -8.961  -9.801  17.310  0.00  0.00    +0.094 C 
ATOM     15  C   UNL     1     -10.782  -9.821  18.877  0.00  0.00    +0.085 C 
ENDROOT
BRANCH  10  17
ATOM      7  N   UNL     1      -5.810 -11.215  18.872  0.00  0.00    -0.237 NA
ATOM      8  N   UNL     1      -4.141 -11.360  17.139  0.00  0.00    -0.232 NA
ATOM     17  C   UNL     1      -6.653 -10.682  17.965  0.00  0.00    +0.050 A 
ATOM     18  C   UNL     1      -6.318 -10.460  16.644  0.00  0.00    +0.052 A 
ATOM     20  C   UNL     1      -5.035 -10.822  16.285  0.00  0.00    +0.075 A 
ATOM     22  C   UNL     1      -4.588 -11.527  18.399  0.00  0.00    +0.127 A 
ATOM     27  C   UNL     1      -3.626 -12.117  19.374  0.00  0.00    +0.088 C 
BRANCH  20  23
ATOM     23  C   UNL     1      -4.560 -10.640  14.934  0.00  0.00    +0.000 A 
ATOM     28  C   UNL     1      -3.233 -10.926  14.617  0.00  0.00    +0.010 A 
ATOM     29  C   UNL     1      -5.429 -10.179  13.945  0.00  0.00    +0.010 A 
ATOM     30  C   UNL     1      -2.774 -10.751  13.311  0.00  0.00    +0.013 A 
ATOM     31  C   UNL     1      -4.971 -10.004  12.639  0.00  0.00    +0.013 A 
ATOM     32  C   UNL     1      -3.643 -10.291  12.323  0.00  0.00    +0.055 A 
BRANCH  32  33
ATOM      1  F   UNL     1      -3.082 -11.264  10.211  0.00  0.00    -0.166 F 
ATOM      2  F   UNL     1      -1.898  -9.567  10.879  0.00  0.00    -0.166 F 
ATOM      3  F   UNL     1      -3.935  -9.270  10.179  0.00  0.00    -0.166 F 
ATOM     33  C   UNL     1      -3.152 -10.103  10.927  0.00  0.00    +0.417 C 
ENDBRANCH  32  33
ENDBRANCH  20  23
ENDBRANCH  10  17
BRANCH  11  16
ATOM     16  C   UNL     1     -10.454 -12.148  15.924  0.00  0.00    +0.123 C 
BRANCH  16   6
ATOM      4  O   UNL     1      -8.353 -11.937  14.011  0.00  0.00    -0.275 OA
ATOM      6  N   UNL     1      -9.386 -13.080  15.733  0.00  0.00    -0.313 N 
ATOM     19  C   UNL     1      -8.391 -12.905  14.771  0.00  0.00    +0.218 C 
ATOM     34  H   UNL     1      -9.363 -13.898  16.332  0.00  0.00    +0.149 HD
BRANCH  19  21
ATOM     21  C   UNL     1      -7.329 -14.024  14.732  0.00  0.00    +0.039 C 
ATOM     24  C   UNL     1      -7.989 -15.366  14.383  0.00  0.00    +0.020 C 
ATOM     25  C   UNL     1      -6.283 -13.696  13.651  0.00  0.00    +0.020 C 
ATOM     26  C   UNL     1      -6.617 -14.121  16.090  0.00  0.00    +0.020 C 
ENDBRANCH  19  21
ENDBRANCH  16   6
ENDBRANCH  11  16
TORSDOF 6
ENDMDL
