MODEL 1
REMARK VINA RESULT:      -7.6      0.000      0.000
REMARK  Name = 75367021
REMARK  8 active torsions:
REMARK  status: ('A' for Active; 'I' for Inactive)
REMARK    1  A    between atoms: O_3  and  C_12
REMARK    2  A    between atoms: N_7  and  C_16
REMARK    3  A    between atoms: N_8  and  C_19
REMARK    4  A    between atoms: C_10  and  C_15
REMARK    5  A    between atoms: C_11  and  C_16
REMARK    6  A    between atoms: C_15  and  C_17
REMARK    7  A    between atoms: C_19  and  C_20
REMARK    8  A    between atoms: C_25  and  C_26
REMARK                            x       y       z     vdW  Elec       q    Type
REMARK                         _______ _______ _______ _____ _____    ______ ____
ROOT
ATOM      2  O   UNL     1      13.326   8.921  19.457  0.00  0.00    -0.369 OA
ATOM     10  C   UNL     1      13.809   7.608  19.753  0.00  0.00    +0.125 C 
ATOM     11  C   UNL     1      12.357   9.436  20.379  0.00  0.00    +0.164 C 
ATOM     12  C   UNL     1      11.160   8.487  20.519  0.00  0.00    +0.145 C 
ATOM     13  C   UNL     1      12.657   6.604  19.786  0.00  0.00    +0.034 C 
ATOM     14  C   UNL     1      11.588   7.045  20.781  0.00  0.00    +0.036 C 
ENDROOT
BRANCH  12   3
ATOM      3  O   UNL     1      10.412   8.504  19.301  0.00  0.00    -0.389 OA
ATOM     32  H   UNL     1      11.029   8.715  18.579  0.00  0.00    +0.210 HD
ENDBRANCH  12   3
BRANCH  10  15
ATOM     15  C   UNL     1      14.821   7.238  18.675  0.00  0.00    +0.090 C 
BRANCH  15  17
ATOM      4  O   UNL     1      17.909   5.583  19.515  0.00  0.00    -0.358 OA
ATOM      9  N   UNL     1      16.762   5.730  18.744  0.00  0.00    -0.083 NA
ATOM     17  C   UNL     1      16.125   6.780  19.268  0.00  0.00    +0.086 A 
ATOM     18  C   UNL     1      16.816   7.331  20.362  0.00  0.00    +0.072 A 
ATOM     20  C   UNL     1      17.930   6.543  20.475  0.00  0.00    +0.151 A 
BRANCH  20  19
ATOM     19  C   UNL     1      19.081   6.534  21.385  0.00  0.00    +0.161 C 
BRANCH  19   8
ATOM      5  O   UNL     1      23.211   6.459  20.643  0.00  0.00    -0.377 OA
ATOM      8  N   UNL     1      20.365   6.485  20.689  0.00  0.00    -0.291 NA
ATOM     21  C   UNL     1      21.129   5.295  21.086  0.00  0.00    +0.113 C 
ATOM     22  C   UNL     1      21.151   7.699  20.956  0.00  0.00    +0.113 C 
ATOM     23  C   UNL     1      22.470   5.271  20.358  0.00  0.00    +0.175 C 
ATOM     24  C   UNL     1      22.490   7.619  20.230  0.00  0.00    +0.175 C 
ENDBRANCH  19   8
ENDBRANCH  20  19
ENDBRANCH  15  17
ENDBRANCH  10  15
BRANCH  11  16
ATOM     16  C   UNL     1      13.002   9.785  21.718  0.00  0.00    +0.138 C 
BRANCH  16   7
ATOM      6  O   UNL     1      10.878  10.024  23.635  0.00  0.00    -0.270 OA
ATOM      7  N   UNL     1      12.462  10.999  22.248  0.00  0.00    -0.309 N 
ATOM     25  C   UNL     1      11.426  11.023  23.179  0.00  0.00    +0.244 C 
ATOM     33  H   UNL     1      12.899  11.863  21.943  0.00  0.00    +0.149 HD
BRANCH  25  26
ATOM      1  F   UNL     1      10.414  14.247  26.676  0.00  0.00    -0.205 F 
ATOM     26  C   UNL     1      10.959  12.367  23.611  0.00  0.00    +0.039 A 
ATOM     27  C   UNL     1      10.905  12.682  24.968  0.00  0.00    +0.051 A 
ATOM     28  C   UNL     1      10.576  13.311  22.659  0.00  0.00    +0.013 A 
ATOM     29  C   UNL     1      10.465  13.943  25.373  0.00  0.00    +0.124 A 
ATOM     30  C   UNL     1      10.137  14.571  23.064  0.00  0.00    +0.004 A 
ATOM     31  C   UNL     1      10.082  14.888  24.421  0.00  0.00    +0.038 A 
ENDBRANCH  25  26
ENDBRANCH  16   7
ENDBRANCH  11  16
TORSDOF 8
ENDMDL
MODEL 2
REMARK VINA RESULT:      -7.3     28.389     31.655
REMARK  Name = 75367021
REMARK  8 active torsions:
REMARK  status: ('A' for Active; 'I' for Inactive)
REMARK    1  A    between atoms: O_3  and  C_12
REMARK    2  A    between atoms: N_7  and  C_16
REMARK    3  A    between atoms: N_8  and  C_19
REMARK    4  A    between atoms: C_10  and  C_15
REMARK    5  A    between atoms: C_11  and  C_16
REMARK    6  A    between atoms: C_15  and  C_17
REMARK    7  A    between atoms: C_19  and  C_20
REMARK    8  A    between atoms: C_25  and  C_26
REMARK                            x       y       z     vdW  Elec       q    Type
REMARK                         _______ _______ _______ _____ _____    ______ ____
ROOT
ATOM      2  O   UNL     1     -16.125   2.012  25.099  0.00  0.00    -0.369 OA
ATOM     10  C   UNL     1     -17.311   2.074  25.896  0.00  0.00    +0.125 C 
ATOM     11  C   UNL     1     -16.042   2.989  24.054  0.00  0.00    +0.164 C 
ATOM     12  C   UNL     1     -17.265   2.925  23.130  0.00  0.00    +0.145 C 
ATOM     13  C   UNL     1     -18.555   1.895  25.027  0.00  0.00    +0.034 C 
ATOM     14  C   UNL     1     -18.580   2.929  23.905  0.00  0.00    +0.036 C 
ENDROOT
BRANCH  12   3
ATOM      3  O   UNL     1     -17.209   1.713  22.374  0.00  0.00    -0.389 OA
ATOM     32  H   UNL     1     -16.325   1.658  21.971  0.00  0.00    +0.210 HD
ENDBRANCH  12   3
BRANCH  10  15
ATOM     15  C   UNL     1     -17.216   0.970  26.943  0.00  0.00    +0.090 C 
BRANCH  15  17
ATOM      4  O   UNL     1     -15.067   1.094  29.832  0.00  0.00    -0.358 OA
ATOM      9  N   UNL     1     -15.894   0.419  28.942  0.00  0.00    -0.083 NA
ATOM     17  C   UNL     1     -16.294   1.348  28.070  0.00  0.00    +0.086 A 
ATOM     18  C   UNL     1     -15.759   2.616  28.358  0.00  0.00    +0.072 A 
ATOM     20  C   UNL     1     -14.995   2.402  29.474  0.00  0.00    +0.151 A 
BRANCH  20  19
ATOM     19  C   UNL     1     -14.157   3.266  30.314  0.00  0.00    +0.161 C 
BRANCH  19   8
ATOM      5  O   UNL     1     -14.914   5.122  34.001  0.00  0.00    -0.377 OA
ATOM      8  N   UNL     1     -14.797   3.641  31.573  0.00  0.00    -0.291 NA
ATOM     21  C   UNL     1     -15.125   5.073  31.584  0.00  0.00    +0.113 C 
ATOM     22  C   UNL     1     -13.933   3.314  32.716  0.00  0.00    +0.113 C 
ATOM     23  C   UNL     1     -15.780   5.445  32.912  0.00  0.00    +0.175 C 
ATOM     24  C   UNL     1     -14.616   3.726  34.016  0.00  0.00    +0.175 C 
ENDBRANCH  19   8
ENDBRANCH  20  19
ENDBRANCH  15  17
ENDBRANCH  10  15
BRANCH  11  16
ATOM     16  C   UNL     1     -15.797   4.385  24.624  0.00  0.00    +0.138 C 
BRANCH  16   7
ATOM      6  O   UNL     1     -16.320   6.445  22.693  0.00  0.00    -0.270 OA
ATOM      7  N   UNL     1     -14.827   5.094  23.847  0.00  0.00    -0.309 N 
ATOM     25  C   UNL     1     -15.170   6.083  22.928  0.00  0.00    +0.244 C 
ATOM     33  H   UNL     1     -13.852   4.872  24.023  0.00  0.00    +0.149 HD
BRANCH  25  26
ATOM      1  F   UNL     1     -12.946   9.998  21.091  0.00  0.00    -0.205 F 
ATOM     26  C   UNL     1     -14.047   6.707  22.181  0.00  0.00    +0.039 A 
ATOM     27  C   UNL     1     -14.024   8.088  21.983  0.00  0.00    +0.051 A 
ATOM     28  C   UNL     1     -13.018   5.912  21.678  0.00  0.00    +0.013 A 
ATOM     29  C   UNL     1     -12.970   8.673  21.281  0.00  0.00    +0.124 A 
ATOM     30  C   UNL     1     -11.964   6.498  20.976  0.00  0.00    +0.004 A 
ATOM     31  C   UNL     1     -11.940   7.878  20.777  0.00  0.00    +0.038 A 
ENDBRANCH  25  26
ENDBRANCH  16   7
ENDBRANCH  11  16
TORSDOF 8
ENDMDL
MODEL 3
REMARK VINA RESULT:      -7.3      3.788      9.077
REMARK  Name = 75367021
REMARK  8 active torsions:
REMARK  status: ('A' for Active; 'I' for Inactive)
REMARK    1  A    between atoms: O_3  and  C_12
REMARK    2  A    between atoms: N_7  and  C_16
REMARK    3  A    between atoms: N_8  and  C_19
REMARK    4  A    between atoms: C_10  and  C_15
REMARK    5  A    between atoms: C_11  and  C_16
REMARK    6  A    between atoms: C_15  and  C_17
REMARK    7  A    between atoms: C_19  and  C_20
REMARK    8  A    between atoms: C_25  and  C_26
REMARK                            x       y       z     vdW  Elec       q    Type
REMARK                         _______ _______ _______ _____ _____    ______ ____
ROOT
ATOM      2  O   UNL     1      12.688   7.916  21.615  0.00  0.00    -0.369 OA
ATOM     10  C   UNL     1      11.774   8.977  21.324  0.00  0.00    +0.125 C 
ATOM     11  C   UNL     1      13.528   7.519  20.524  0.00  0.00    +0.164 C 
ATOM     12  C   UNL     1      12.700   7.135  19.292  0.00  0.00    +0.145 C 
ATOM     13  C   UNL     1      10.846   8.588  20.174  0.00  0.00    +0.034 C 
ATOM     14  C   UNL     1      11.654   8.191  18.942  0.00  0.00    +0.036 C 
ENDROOT
BRANCH  12   3
ATOM      3  O   UNL     1      12.010   5.913  19.562  0.00  0.00    -0.389 OA
ATOM     32  H   UNL     1      11.079   6.133  19.739  0.00  0.00    +0.210 HD
ENDBRANCH  12   3
BRANCH  10  15
ATOM     15  C   UNL     1      10.978   9.256  22.594  0.00  0.00    +0.090 C 
BRANCH  15  17
ATOM      4  O   UNL     1      11.332  12.259  24.553  0.00  0.00    -0.358 OA
ATOM      9  N   UNL     1      10.617  11.148  24.123  0.00  0.00    -0.083 NA
ATOM     17  C   UNL     1      11.430  10.523  23.267  0.00  0.00    +0.086 A 
ATOM     18  C   UNL     1      12.659  11.189  23.118  0.00  0.00    +0.072 A 
ATOM     20  C   UNL     1      12.547  12.272  23.948  0.00  0.00    +0.151 A 
BRANCH  20  19
ATOM     19  C   UNL     1      13.438  13.386  24.291  0.00  0.00    +0.161 C 
BRANCH  19   8
ATOM      5  O   UNL     1      14.627  11.970  28.059  0.00  0.00    -0.377 OA
ATOM      8  N   UNL     1      14.231  13.140  25.494  0.00  0.00    -0.291 NA
ATOM     21  C   UNL     1      14.508  11.705  25.650  0.00  0.00    +0.113 C 
ATOM     22  C   UNL     1      13.542  13.651  26.687  0.00  0.00    +0.113 C 
ATOM     23  C   UNL     1      15.325  11.470  26.918  0.00  0.00    +0.175 C 
ATOM     24  C   UNL     1      14.382  13.371  27.930  0.00  0.00    +0.175 C 
ENDBRANCH  19   8
ENDBRANCH  20  19
ENDBRANCH  15  17
ENDBRANCH  10  15
BRANCH  11  16
ATOM     16  C   UNL     1      14.583   8.583  20.227  0.00  0.00    +0.138 C 
BRANCH  16   7
ATOM      6  O   UNL     1      16.218   6.577  18.982  0.00  0.00    -0.270 OA
ATOM      7  N   UNL     1      15.880   8.153  20.651  0.00  0.00    -0.309 N 
ATOM     25  C   UNL     1      16.607   7.169  19.986  0.00  0.00    +0.244 C 
ATOM     33  H   UNL     1      16.278   8.632  21.453  0.00  0.00    +0.149 HD
BRANCH  25  26
ATOM      1  F   UNL     1      20.604   4.401  20.087  0.00  0.00    -0.205 F 
ATOM     26  C   UNL     1      17.927   6.817  20.569  0.00  0.00    +0.039 A 
ATOM     27  C   UNL     1      18.660   5.752  20.043  0.00  0.00    +0.051 A 
ATOM     28  C   UNL     1      18.433   7.549  21.642  0.00  0.00    +0.013 A 
ATOM     29  C   UNL     1      19.899   5.421  20.592  0.00  0.00    +0.124 A 
ATOM     30  C   UNL     1      19.673   7.218  22.190  0.00  0.00    +0.004 A 
ATOM     31  C   UNL     1      20.406   6.154  21.665  0.00  0.00    +0.038 A 
ENDBRANCH  25  26
ENDBRANCH  16   7
ENDBRANCH  11  16
TORSDOF 8
ENDMDL
MODEL 4
REMARK VINA RESULT:      -7.1     26.589     30.588
REMARK  Name = 75367021
REMARK  8 active torsions:
REMARK  status: ('A' for Active; 'I' for Inactive)
REMARK    1  A    between atoms: O_3  and  C_12
REMARK    2  A    between atoms: N_7  and  C_16
REMARK    3  A    between atoms: N_8  and  C_19
REMARK    4  A    between atoms: C_10  and  C_15
REMARK    5  A    between atoms: C_11  and  C_16
REMARK    6  A    between atoms: C_15  and  C_17
REMARK    7  A    between atoms: C_19  and  C_20
REMARK    8  A    between atoms: C_25  and  C_26
REMARK                            x       y       z     vdW  Elec       q    Type
REMARK                         _______ _______ _______ _____ _____    ______ ____
ROOT
ATOM      2  O   UNL     1     -15.364   4.351  21.999  0.00  0.00    -0.369 OA
ATOM     10  C   UNL     1     -16.400   4.472  22.979  0.00  0.00    +0.125 C 
ATOM     11  C   UNL     1     -15.249   5.456  21.094  0.00  0.00    +0.164 C 
ATOM     12  C   UNL     1     -16.577   5.733  20.379  0.00  0.00    +0.145 C 
ATOM     13  C   UNL     1     -17.762   4.631  22.305  0.00  0.00    +0.034 C 
ATOM     14  C   UNL     1     -17.753   5.821  21.349  0.00  0.00    +0.036 C 
ENDROOT
BRANCH  12   3
ATOM      3  O   UNL     1     -16.843   4.662  19.469  0.00  0.00    -0.389 OA
ATOM     32  H   UNL     1     -16.044   4.526  18.933  0.00  0.00    +0.210 HD
ENDBRANCH  12   3
BRANCH  10  15
ATOM     15  C   UNL     1     -16.364   3.216  23.840  0.00  0.00    +0.090 C 
BRANCH  15  17
ATOM      4  O   UNL     1     -16.764   4.743  27.079  0.00  0.00    -0.358 OA
ATOM      9  N   UNL     1     -16.723   4.795  25.691  0.00  0.00    -0.083 NA
ATOM     17  C   UNL     1     -16.476   3.541  25.305  0.00  0.00    +0.086 A 
ATOM     18  C   UNL     1     -16.351   2.662  26.396  0.00  0.00    +0.072 A 
ATOM     20  C   UNL     1     -16.541   3.468  27.486  0.00  0.00    +0.151 A 
BRANCH  20  19
ATOM     19  C   UNL     1     -16.550   3.232  28.935  0.00  0.00    +0.161 C 
BRANCH  19   8
ATOM      5  O   UNL     1     -13.535   1.788  31.472  0.00  0.00    -0.377 OA
ATOM      8  N   UNL     1     -15.234   2.885  29.470  0.00  0.00    -0.291 NA
ATOM     21  C   UNL     1     -15.119   1.434  29.669  0.00  0.00    +0.113 C 
ATOM     22  C   UNL     1     -14.985   3.587  30.737  0.00  0.00    +0.113 C 
ATOM     23  C   UNL     1     -13.744   1.097  30.239  0.00  0.00    +0.175 C 
ATOM     24  C   UNL     1     -13.613   3.201  31.282  0.00  0.00    +0.175 C 
ENDBRANCH  19   8
ENDBRANCH  20  19
ENDBRANCH  15  17
ENDBRANCH  10  15
BRANCH  11  16
ATOM     16  C   UNL     1     -14.682   6.687  21.798  0.00  0.00    +0.138 C 
BRANCH  16   7
ATOM      6  O   UNL     1     -11.924   6.097  21.260  0.00  0.00    -0.270 OA
ATOM      7  N   UNL     1     -13.805   7.415  20.932  0.00  0.00    -0.309 N 
ATOM     25  C   UNL     1     -12.474   7.058  20.729  0.00  0.00    +0.244 C 
ATOM     33  H   UNL     1     -14.210   8.198  20.429  0.00  0.00    +0.149 HD
BRANCH  25  26
ATOM      1  F   UNL     1     -10.198   7.838  16.503  0.00  0.00    -0.205 F 
ATOM     26  C   UNL     1     -11.689   7.932  19.820  0.00  0.00    +0.039 A 
ATOM     27  C   UNL     1     -11.305   7.465  18.563  0.00  0.00    +0.051 A 
ATOM     28  C   UNL     1     -11.335   9.219  20.225  0.00  0.00    +0.013 A 
ATOM     29  C   UNL     1     -10.566   8.285  17.710  0.00  0.00    +0.124 A 
ATOM     30  C   UNL     1     -10.597  10.039  19.371  0.00  0.00    +0.004 A 
ATOM     31  C   UNL     1     -10.212   9.573  18.114  0.00  0.00    +0.038 A 
ENDBRANCH  25  26
ENDBRANCH  16   7
ENDBRANCH  11  16
TORSDOF 8
ENDMDL
MODEL 5
REMARK VINA RESULT:      -6.9      3.678      9.775
REMARK  Name = 75367021
REMARK  8 active torsions:
REMARK  status: ('A' for Active; 'I' for Inactive)
REMARK    1  A    between atoms: O_3  and  C_12
REMARK    2  A    between atoms: N_7  and  C_16
REMARK    3  A    between atoms: N_8  and  C_19
REMARK    4  A    between atoms: C_10  and  C_15
REMARK    5  A    between atoms: C_11  and  C_16
REMARK    6  A    between atoms: C_15  and  C_17
REMARK    7  A    between atoms: C_19  and  C_20
REMARK    8  A    between atoms: C_25  and  C_26
REMARK                            x       y       z     vdW  Elec       q    Type
REMARK                         _______ _______ _______ _____ _____    ______ ____
ROOT
ATOM      2  O   UNL     1      12.782   7.829  21.744  0.00  0.00    -0.369 OA
ATOM     10  C   UNL     1      11.868   8.896  21.475  0.00  0.00    +0.125 C 
ATOM     11  C   UNL     1      13.592   7.425  20.634  0.00  0.00    +0.164 C 
ATOM     12  C   UNL     1      12.731   7.045  19.423  0.00  0.00    +0.145 C 
ATOM     13  C   UNL     1      10.910   8.512  20.348  0.00  0.00    +0.034 C 
ATOM     14  C   UNL     1      11.685   8.108  19.097  0.00  0.00    +0.036 C 
ENDROOT
BRANCH  12   3
ATOM      3  O   UNL     1      12.039   5.828  19.712  0.00  0.00    -0.389 OA
ATOM     32  H   UNL     1      12.665   5.232  20.158  0.00  0.00    +0.210 HD
ENDBRANCH  12   3
BRANCH  10  15
ATOM     15  C   UNL     1      11.106   9.182  22.763  0.00  0.00    +0.090 C 
BRANCH  15  17
ATOM      4  O   UNL     1      10.928  12.410  24.353  0.00  0.00    -0.358 OA
ATOM      9  N   UNL     1      10.541  11.082  24.218  0.00  0.00    -0.083 NA
ATOM     17  C   UNL     1      11.264  10.613  23.198  0.00  0.00    +0.086 A 
ATOM     18  C   UNL     1      12.116  11.591  22.654  0.00  0.00    +0.072 A 
ATOM     20  C   UNL     1      11.867  12.701  23.416  0.00  0.00    +0.151 A 
BRANCH  20  19
ATOM     19  C   UNL     1      12.390  14.072  23.416  0.00  0.00    +0.161 C 
BRANCH  19   8
ATOM      5  O   UNL     1      10.752  15.205  19.722  0.00  0.00    -0.377 OA
ATOM      8  N   UNL     1      11.867  14.888  22.321  0.00  0.00    -0.291 NA
ATOM     21  C   UNL     1      10.466  14.544  22.038  0.00  0.00    +0.113 C 
ATOM     22  C   UNL     1      12.681  14.718  21.109  0.00  0.00    +0.113 C 
ATOM     23  C   UNL     1       9.946  15.398  20.885  0.00  0.00    +0.175 C 
ATOM     24  C   UNL     1      12.109  15.568  19.979  0.00  0.00    +0.175 C 
ENDBRANCH  19   8
ENDBRANCH  20  19
ENDBRANCH  15  17
ENDBRANCH  10  15
BRANCH  11  16
ATOM     16  C   UNL     1      14.647   8.481  20.309  0.00  0.00    +0.138 C 
BRANCH  16   7
ATOM      6  O   UNL     1      16.298   6.524  19.009  0.00  0.00    -0.270 OA
ATOM      7  N   UNL     1      15.948   8.051  20.722  0.00  0.00    -0.309 N 
ATOM     25  C   UNL     1      16.682   7.091  20.028  0.00  0.00    +0.244 C 
ATOM     33  H   UNL     1      16.343   8.510  21.535  0.00  0.00    +0.149 HD
BRANCH  25  26
ATOM      1  F   UNL     1      20.677   4.318  20.088  0.00  0.00    -0.205 F 
ATOM     26  C   UNL     1      18.007   6.734  20.601  0.00  0.00    +0.039 A 
ATOM     27  C   UNL     1      18.735   5.672  20.064  0.00  0.00    +0.051 A 
ATOM     28  C   UNL     1      18.520   7.461  21.674  0.00  0.00    +0.013 A 
ATOM     29  C   UNL     1      19.977   5.336  20.603  0.00  0.00    +0.124 A 
ATOM     30  C   UNL     1      19.763   7.125  22.212  0.00  0.00    +0.004 A 
ATOM     31  C   UNL     1      20.492   6.063  21.677  0.00  0.00    +0.038 A 
ENDBRANCH  25  26
ENDBRANCH  16   7
ENDBRANCH  11  16
TORSDOF 8
ENDMDL
MODEL 6
REMARK VINA RESULT:      -6.9     19.538     22.664
REMARK  Name = 75367021
REMARK  8 active torsions:
REMARK  status: ('A' for Active; 'I' for Inactive)
REMARK    1  A    between atoms: O_3  and  C_12
REMARK    2  A    between atoms: N_7  and  C_16
REMARK    3  A    between atoms: N_8  and  C_19
REMARK    4  A    between atoms: C_10  and  C_15
REMARK    5  A    between atoms: C_11  and  C_16
REMARK    6  A    between atoms: C_15  and  C_17
REMARK    7  A    between atoms: C_19  and  C_20
REMARK    8  A    between atoms: C_25  and  C_26
REMARK                            x       y       z     vdW  Elec       q    Type
REMARK                         _______ _______ _______ _____ _____    ______ ____
ROOT
ATOM      2  O   UNL     1      12.754   2.816   0.501  0.00  0.00    -0.369 OA
ATOM     10  C   UNL     1      12.933   3.508  -0.738  0.00  0.00    +0.125 C 
ATOM     11  C   UNL     1      13.025   3.591   1.676  0.00  0.00    +0.164 C 
ATOM     12  C   UNL     1      14.438   4.185   1.640  0.00  0.00    +0.145 C 
ATOM     13  C   UNL     1      14.368   4.016  -0.868  0.00  0.00    +0.034 C 
ATOM     14  C   UNL     1      14.737   4.897   0.323  0.00  0.00    +0.036 C 
ENDROOT
BRANCH  12   3
ATOM      3  O   UNL     1      15.387   3.127   1.788  0.00  0.00    -0.389 OA
ATOM     32  H   UNL     1      15.813   3.232   2.656  0.00  0.00    +0.210 HD
ENDBRANCH  12   3
BRANCH  10  15
ATOM     15  C   UNL     1      12.599   2.531  -1.859  0.00  0.00    +0.090 C 
BRANCH  15  17
ATOM      4  O   UNL     1       9.300   2.585  -3.307  0.00  0.00    -0.358 OA
ATOM      9  N   UNL     1      10.349   1.943  -2.659  0.00  0.00    -0.083 NA
ATOM     17  C   UNL     1      11.297   2.875  -2.529  0.00  0.00    +0.086 A 
ATOM     18  C   UNL     1      10.906   4.112  -3.072  0.00  0.00    +0.072 A 
ATOM     20  C   UNL     1       9.644   3.876  -3.547  0.00  0.00    +0.151 A 
BRANCH  20  19
ATOM     19  C   UNL     1       8.643   4.705  -4.230  0.00  0.00    +0.161 C 
BRANCH  19   8
ATOM      5  O   UNL     1       7.417   8.654  -3.514  0.00  0.00    -0.377 OA
ATOM      8  N   UNL     1       8.408   5.986  -3.567  0.00  0.00    -0.291 NA
ATOM     21  C   UNL     1       6.969   6.270  -3.478  0.00  0.00    +0.113 C 
ATOM     22  C   UNL     1       9.091   7.075  -4.280  0.00  0.00    +0.113 C 
ATOM     23  C   UNL     1       6.747   7.617  -2.795  0.00  0.00    +0.175 C 
ATOM     24  C   UNL     1       8.821   8.402  -3.578  0.00  0.00    +0.175 C 
ENDBRANCH  19   8
ENDBRANCH  20  19
ENDBRANCH  15  17
ENDBRANCH  10  15
BRANCH  11  16
ATOM     16  C   UNL     1      11.940   4.643   1.903  0.00  0.00    +0.138 C 
BRANCH  16   7
ATOM      6  O   UNL     1       9.863   6.236   3.083  0.00  0.00    -0.270 OA
ATOM      7  N   UNL     1      11.713   4.852   3.301  0.00  0.00    -0.309 N 
ATOM     25  C   UNL     1      10.677   5.645   3.788  0.00  0.00    +0.244 C 
ATOM     33  H   UNL     1      12.327   4.358   3.941  0.00  0.00    +0.149 HD
BRANCH  25  26
ATOM      1  F   UNL     1       9.460   3.889   8.157  0.00  0.00    -0.205 F 
ATOM     26  C   UNL     1      10.592   5.784   5.265  0.00  0.00    +0.039 A 
ATOM     27  C   UNL     1      10.055   4.750   6.033  0.00  0.00    +0.051 A 
ATOM     28  C   UNL     1      11.048   6.948   5.883  0.00  0.00    +0.013 A 
ATOM     29  C   UNL     1       9.974   4.881   7.419  0.00  0.00    +0.124 A 
ATOM     30  C   UNL     1      10.968   7.078   7.270  0.00  0.00    +0.004 A 
ATOM     31  C   UNL     1      10.431   6.045   8.038  0.00  0.00    +0.038 A 
ENDBRANCH  25  26
ENDBRANCH  16   7
ENDBRANCH  11  16
TORSDOF 8
ENDMDL
MODEL 7
REMARK VINA RESULT:      -6.8     27.418     31.631
REMARK  Name = 75367021
REMARK  8 active torsions:
REMARK  status: ('A' for Active; 'I' for Inactive)
REMARK    1  A    between atoms: O_3  and  C_12
REMARK    2  A    between atoms: N_7  and  C_16
REMARK    3  A    between atoms: N_8  and  C_19
REMARK    4  A    between atoms: C_10  and  C_15
REMARK    5  A    between atoms: C_11  and  C_16
REMARK    6  A    between atoms: C_15  and  C_17
REMARK    7  A    between atoms: C_19  and  C_20
REMARK    8  A    between atoms: C_25  and  C_26
REMARK                            x       y       z     vdW  Elec       q    Type
REMARK                         _______ _______ _______ _____ _____    ______ ____
ROOT
ATOM      2  O   UNL     1      -8.422  -8.716  17.523  0.00  0.00    -0.369 OA
ATOM     10  C   UNL     1      -9.813  -8.862  17.225  0.00  0.00    +0.125 C 
ATOM     11  C   UNL     1      -7.690  -9.944  17.627  0.00  0.00    +0.164 C 
ATOM     12  C   UNL     1      -8.322 -10.886  18.659  0.00  0.00    +0.145 C 
ATOM     13  C   UNL     1     -10.510  -9.699  18.296  0.00  0.00    +0.034 C 
ATOM     14  C   UNL     1      -9.825 -11.055  18.448  0.00  0.00    +0.036 C 
ENDROOT
BRANCH  12   3
ATOM      3  O   UNL     1      -8.124 -10.340  19.965  0.00  0.00    -0.389 OA
ATOM     32  H   UNL     1      -7.195 -10.488  20.209  0.00  0.00    +0.210 HD
ENDBRANCH  12   3
BRANCH  10  15
ATOM     15  C   UNL     1     -10.415  -7.463  17.153  0.00  0.00    +0.090 C 
BRANCH  15  17
ATOM      4  O   UNL     1     -12.381  -7.792  14.152  0.00  0.00    -0.358 OA
ATOM      9  N   UNL     1     -11.340  -8.176  14.989  0.00  0.00    -0.083 NA
ATOM     17  C   UNL     1     -11.406  -7.339  16.028  0.00  0.00    +0.086 A 
ATOM     18  C   UNL     1     -12.457  -6.414  15.902  0.00  0.00    +0.072 A 
ATOM     20  C   UNL     1     -13.039  -6.742  14.707  0.00  0.00    +0.151 A 
BRANCH  20  19
ATOM     19  C   UNL     1     -14.176  -6.206  13.949  0.00  0.00    +0.161 C 
BRANCH  19   8
ATOM      5  O   UNL     1     -13.569  -3.071  11.227  0.00  0.00    -0.377 OA
ATOM      8  N   UNL     1     -13.925  -4.876  13.398  0.00  0.00    -0.291 NA
ATOM     21  C   UNL     1     -15.058  -4.431  12.575  0.00  0.00    +0.113 C 
ATOM     22  C   UNL     1     -12.690  -4.865  12.601  0.00  0.00    +0.113 C 
ATOM     23  C   UNL     1     -14.770  -3.046  12.000  0.00  0.00    +0.175 C 
ATOM     24  C   UNL     1     -12.457  -3.471  12.027  0.00  0.00    +0.175 C 
ENDBRANCH  19   8
ENDBRANCH  20  19
ENDBRANCH  15  17
ENDBRANCH  10  15
BRANCH  11  16
ATOM     16  C   UNL     1      -7.508 -10.594  16.257  0.00  0.00    +0.138 C 
BRANCH  16   7
ATOM      6  O   UNL     1      -5.225 -12.280  16.693  0.00  0.00    -0.270 OA
ATOM      7  N   UNL     1      -6.183 -10.383  15.760  0.00  0.00    -0.309 N 
ATOM     25  C   UNL     1      -5.129 -11.256  16.022  0.00  0.00    +0.244 C 
ATOM     33  H   UNL     1      -6.044  -9.575  15.162  0.00  0.00    +0.149 HD
BRANCH  25  26
ATOM      1  F   UNL     1      -2.257 -10.290  12.218  0.00  0.00    -0.205 F 
ATOM     26  C   UNL     1      -3.807 -10.882  15.455  0.00  0.00    +0.039 A 
ATOM     27  C   UNL     1      -3.650 -10.759  14.075  0.00  0.00    +0.051 A 
ATOM     28  C   UNL     1      -2.724 -10.654  16.304  0.00  0.00    +0.013 A 
ATOM     29  C   UNL     1      -2.409 -10.409  13.543  0.00  0.00    +0.124 A 
ATOM     30  C   UNL     1      -1.483 -10.303  15.772  0.00  0.00    +0.004 A 
ATOM     31  C   UNL     1      -1.325 -10.181  14.392  0.00  0.00    +0.038 A 
ENDBRANCH  25  26
ENDBRANCH  16   7
ENDBRANCH  11  16
TORSDOF 8
ENDMDL
MODEL 8
REMARK VINA RESULT:      -6.6     28.021     29.680
REMARK  Name = 75367021
REMARK  8 active torsions:
REMARK  status: ('A' for Active; 'I' for Inactive)
REMARK    1  A    between atoms: O_3  and  C_12
REMARK    2  A    between atoms: N_7  and  C_16
REMARK    3  A    between atoms: N_8  and  C_19
REMARK    4  A    between atoms: C_10  and  C_15
REMARK    5  A    between atoms: C_11  and  C_16
REMARK    6  A    between atoms: C_15  and  C_17
REMARK    7  A    between atoms: C_19  and  C_20
REMARK    8  A    between atoms: C_25  and  C_26
REMARK                            x       y       z     vdW  Elec       q    Type
REMARK                         _______ _______ _______ _____ _____    ______ ____
ROOT
ATOM      2  O   UNL     1      -6.637 -11.535  16.843  0.00  0.00    -0.369 OA
ATOM     10  C   UNL     1      -5.300 -11.389  17.330  0.00  0.00    +0.125 C 
ATOM     11  C   UNL     1      -7.601 -10.656  17.436  0.00  0.00    +0.164 C 
ATOM     12  C   UNL     1      -7.613 -10.790  18.964  0.00  0.00    +0.145 C 
ATOM     13  C   UNL     1      -5.246 -11.632  18.837  0.00  0.00    +0.034 C 
ATOM     14  C   UNL     1      -6.212 -10.702  19.566  0.00  0.00    +0.036 C 
ENDROOT
BRANCH  12   3
ATOM      3  O   UNL     1      -8.157 -12.065  19.312  0.00  0.00    -0.389 OA
ATOM     32  H   UNL     1      -8.476 -12.008  20.229  0.00  0.00    +0.210 HD
ENDBRANCH  12   3
BRANCH  10  15
ATOM     15  C   UNL     1      -4.430 -12.396  16.586  0.00  0.00    +0.090 C 
BRANCH  15  17
ATOM      4  O   UNL     1      -2.228 -10.365  14.584  0.00  0.00    -0.358 OA
ATOM      9  N   UNL     1      -2.804 -10.728  15.795  0.00  0.00    -0.083 NA
ATOM     17  C   UNL     1      -3.625 -11.740  15.498  0.00  0.00    +0.086 A 
ATOM     18  C   UNL     1      -3.609 -12.054  14.128  0.00  0.00    +0.072 A 
ATOM     20  C   UNL     1      -2.714 -11.163  13.599  0.00  0.00    +0.151 A 
BRANCH  20  19
ATOM     19  C   UNL     1      -2.207 -10.915  12.244  0.00  0.00    +0.161 C 
BRANCH  19   8
ATOM      5  O   UNL     1      -4.245 -10.191   8.647  0.00  0.00    -0.377 OA
ATOM      8  N   UNL     1      -3.258 -10.562  11.291  0.00  0.00    -0.291 NA
ATOM     21  C   UNL     1      -3.578 -11.704  10.423  0.00  0.00    +0.113 C 
ATOM     22  C   UNL     1      -2.856  -9.408  10.475  0.00  0.00    +0.113 C 
ATOM     23  C   UNL     1      -4.667 -11.310   9.428  0.00  0.00    +0.175 C 
ATOM     24  C   UNL     1      -3.962  -9.067   9.481  0.00  0.00    +0.175 C 
ENDBRANCH  19   8
ENDBRANCH  20  19
ENDBRANCH  15  17
ENDBRANCH  10  15
BRANCH  11  16
ATOM     16  C   UNL     1      -7.398  -9.218  16.964  0.00  0.00    +0.138 C 
BRANCH  16   7
ATOM      6  O   UNL     1      -9.759  -7.725  17.628  0.00  0.00    -0.270 OA
ATOM      7  N   UNL     1      -8.439  -8.821  16.066  0.00  0.00    -0.309 N 
ATOM     25  C   UNL     1      -9.556  -8.095  16.475  0.00  0.00    +0.244 C 
ATOM     33  H   UNL     1      -8.312  -9.060  15.088  0.00  0.00    +0.149 HD
BRANCH  25  26
ATOM      1  F   UNL     1     -12.882  -5.132  14.524  0.00  0.00    -0.205 F 
ATOM     26  C   UNL     1     -10.560  -7.783  15.425  0.00  0.00    +0.039 A 
ATOM     27  C   UNL     1     -11.264  -6.580  15.469  0.00  0.00    +0.051 A 
ATOM     28  C   UNL     1     -10.800  -8.695  14.398  0.00  0.00    +0.013 A 
ATOM     29  C   UNL     1     -12.207  -6.288  14.484  0.00  0.00    +0.124 A 
ATOM     30  C   UNL     1     -11.744  -8.403  13.413  0.00  0.00    +0.004 A 
ATOM     31  C   UNL     1     -12.448  -7.200  13.455  0.00  0.00    +0.038 A 
ENDBRANCH  25  26
ENDBRANCH  16   7
ENDBRANCH  11  16
TORSDOF 8
ENDMDL
MODEL 9
REMARK VINA RESULT:      -6.5     28.643     31.325
REMARK  Name = 75367021
REMARK  8 active torsions:
REMARK  status: ('A' for Active; 'I' for Inactive)
REMARK    1  A    between atoms: O_3  and  C_12
REMARK    2  A    between atoms: N_7  and  C_16
REMARK    3  A    between atoms: N_8  and  C_19
REMARK    4  A    between atoms: C_10  and  C_15
REMARK    5  A    between atoms: C_11  and  C_16
REMARK    6  A    between atoms: C_15  and  C_17
REMARK    7  A    between atoms: C_19  and  C_20
REMARK    8  A    between atoms: C_25  and  C_26
REMARK                            x       y       z     vdW  Elec       q    Type
REMARK                         _______ _______ _______ _____ _____    ______ ____
ROOT
ATOM      2  O   UNL     1      -7.382  -9.062  16.828  0.00  0.00    -0.369 OA
ATOM     10  C   UNL     1      -8.738  -9.375  17.156  0.00  0.00    +0.125 C 
ATOM     11  C   UNL     1      -6.556 -10.188  16.506  0.00  0.00    +0.164 C 
ATOM     12  C   UNL     1      -6.566 -11.228  17.633  0.00  0.00    +0.145 C 
ATOM     13  C   UNL     1      -8.798 -10.321  18.354  0.00  0.00    +0.034 C 
ATOM     14  C   UNL     1      -7.981 -11.581  18.086  0.00  0.00    +0.036 C 
ENDROOT
BRANCH  12   3
ATOM      3  O   UNL     1      -5.869 -10.693  18.761  0.00  0.00    -0.389 OA
ATOM     32  H   UNL     1      -5.050 -10.283  18.433  0.00  0.00    +0.210 HD
ENDBRANCH  12   3
BRANCH  10  15
ATOM     15  C   UNL     1      -9.450  -8.063  17.462  0.00  0.00    +0.090 C 
BRANCH  15  17
ATOM      4  O   UNL     1     -11.544  -7.863  14.537  0.00  0.00    -0.358 OA
ATOM      9  N   UNL     1     -10.629  -8.518  15.352  0.00  0.00    -0.083 NA
ATOM     17  C   UNL     1     -10.406  -7.678  16.366  0.00  0.00    +0.086 A 
ATOM     18  C   UNL     1     -11.145  -6.488  16.245  0.00  0.00    +0.072 A 
ATOM     20  C   UNL     1     -11.844  -6.655  15.080  0.00  0.00    +0.151 A 
BRANCH  20  19
ATOM     19  C   UNL     1     -12.804  -5.825  14.342  0.00  0.00    +0.161 C 
BRANCH  19   8
ATOM      5  O   UNL     1     -12.613  -4.234  10.464  0.00  0.00    -0.377 OA
ATOM      8  N   UNL     1     -12.283  -5.340  13.065  0.00  0.00    -0.291 NA
ATOM     21  C   UNL     1     -12.622  -3.923  12.869  0.00  0.00    +0.113 C 
ATOM     22  C   UNL     1     -12.807  -6.140  11.949  0.00  0.00    +0.113 C 
ATOM     23  C   UNL     1     -12.080  -3.442  11.526  0.00  0.00    +0.175 C 
ATOM     24  C   UNL     1     -12.261  -5.608  10.629  0.00  0.00    +0.175 C 
ENDBRANCH  19   8
ENDBRANCH  20  19
ENDBRANCH  15  17
ENDBRANCH  10  15
BRANCH  11  16
ATOM     16  C   UNL     1      -6.933 -10.776  15.148  0.00  0.00    +0.138 C 
BRANCH  16   7
ATOM      6  O   UNL     1      -7.249  -9.456  12.618  0.00  0.00    -0.270 OA
ATOM      7  N   UNL     1      -5.909 -10.529  14.179  0.00  0.00    -0.309 N 
ATOM     25  C   UNL     1      -6.152  -9.878  12.971  0.00  0.00    +0.244 C 
ATOM     33  H   UNL     1      -4.969 -10.817  14.428  0.00  0.00    +0.149 HD
BRANCH  25  26
ATOM      1  F   UNL     1      -1.526 -10.810  11.795  0.00  0.00    -0.205 F 
ATOM     26  C   UNL     1      -4.987  -9.722  12.061  0.00  0.00    +0.039 A 
ATOM     27  C   UNL     1      -3.779 -10.352  12.362  0.00  0.00    +0.051 A 
ATOM     28  C   UNL     1      -5.102  -8.946  10.909  0.00  0.00    +0.013 A 
ATOM     29  C   UNL     1      -2.686 -10.205  11.508  0.00  0.00    +0.124 A 
ATOM     30  C   UNL     1      -4.008  -8.799  10.056  0.00  0.00    +0.004 A 
ATOM     31  C   UNL     1      -2.800  -9.428  10.355  0.00  0.00    +0.038 A 
ENDBRANCH  25  26
ENDBRANCH  16   7
ENDBRANCH  11  16
TORSDOF 8
ENDMDL
MODEL 10
REMARK VINA RESULT:      -6.5     16.195     19.187
REMARK  Name = 75367021
REMARK  8 active torsions:
REMARK  status: ('A' for Active; 'I' for Inactive)
REMARK    1  A    between atoms: O_3  and  C_12
REMARK    2  A    between atoms: N_7  and  C_16
REMARK    3  A    between atoms: N_8  and  C_19
REMARK    4  A    between atoms: C_10  and  C_15
REMARK    5  A    between atoms: C_11  and  C_16
REMARK    6  A    between atoms: C_15  and  C_17
REMARK    7  A    between atoms: C_19  and  C_20
REMARK    8  A    between atoms: C_25  and  C_26
REMARK                            x       y       z     vdW  Elec       q    Type
REMARK                         _______ _______ _______ _____ _____    ______ ____
ROOT
ATOM      2  O   UNL     1      12.984   5.913   0.770  0.00  0.00    -0.369 OA
ATOM     10  C   UNL     1      13.719   5.634   1.964  0.00  0.00    +0.125 C 
ATOM     11  C   UNL     1      12.237   4.809   0.242  0.00  0.00    +0.164 C 
ATOM     12  C   UNL     1      13.136   3.592  -0.002  0.00  0.00    +0.145 C 
ATOM     13  C   UNL     1      14.716   4.500   1.731  0.00  0.00    +0.034 C 
ATOM     14  C   UNL     1      14.003   3.256   1.209  0.00  0.00    +0.036 C 
ENDROOT
BRANCH  12   3
ATOM      3  O   UNL     1      14.011   3.876  -1.097  0.00  0.00    -0.389 OA
ATOM     32  H   UNL     1      13.475   4.270  -1.807  0.00  0.00    +0.210 HD
ENDBRANCH  12   3
BRANCH  10  15
ATOM     15  C   UNL     1      14.438   6.915   2.368  0.00  0.00    +0.090 C 
BRANCH  15  17
ATOM      4  O   UNL     1      14.516   7.688   5.887  0.00  0.00    -0.358 OA
ATOM      9  N   UNL     1      15.123   7.297   4.700  0.00  0.00    -0.083 NA
ATOM     17  C   UNL     1      14.142   7.295   3.793  0.00  0.00    +0.086 A 
ATOM     18  C   UNL     1      12.905   7.673   4.346  0.00  0.00    +0.072 A 
ATOM     20  C   UNL     1      13.196   7.910   5.663  0.00  0.00    +0.151 A 
BRANCH  20  19
ATOM     19  C   UNL     1      12.398   8.335   6.820  0.00  0.00    +0.161 C 
BRANCH  19   8
ATOM      5  O   UNL     1       9.121   6.302   8.477  0.00  0.00    -0.377 OA
ATOM      8  N   UNL     1      11.137   7.606   6.948  0.00  0.00    -0.291 NA
ATOM     21  C   UNL     1      10.177   8.366   7.761  0.00  0.00    +0.113 C 
ATOM     22  C   UNL     1      11.358   6.280   7.540  0.00  0.00    +0.113 C 
ATOM     23  C   UNL     1       8.874   7.582   7.893  0.00  0.00    +0.175 C 
ATOM     24  C   UNL     1      10.029   5.544   7.675  0.00  0.00    +0.175 C 
ENDBRANCH  19   8
ENDBRANCH  20  19
ENDBRANCH  15  17
ENDBRANCH  10  15
BRANCH  11  16
ATOM     16  C   UNL     1      11.029   4.492   1.122  0.00  0.00    +0.138 C 
BRANCH  16   7
ATOM      6  O   UNL     1      10.246   5.409   3.728  0.00  0.00    -0.270 OA
ATOM      7  N   UNL     1      10.287   5.679   1.423  0.00  0.00    -0.309 N 
ATOM     25  C   UNL     1       9.949   6.049   2.723  0.00  0.00    +0.244 C 
ATOM     33  H   UNL     1      10.045   6.276   0.639  0.00  0.00    +0.149 HD
BRANCH  25  26
ATOM      1  F   UNL     1       7.357   9.147   5.432  0.00  0.00    -0.205 F 
ATOM     26  C   UNL     1       9.153   7.296   2.866  0.00  0.00    +0.039 A 
ATOM     27  C   UNL     1       8.618   7.643   4.107  0.00  0.00    +0.051 A 
ATOM     28  C   UNL     1       8.941   8.119   1.760  0.00  0.00    +0.013 A 
ATOM     29  C   UNL     1       7.870   8.813   4.241  0.00  0.00    +0.124 A 
ATOM     30  C   UNL     1       8.194   9.289   1.895  0.00  0.00    +0.004 A 
ATOM     31  C   UNL     1       7.658   9.637   3.135  0.00  0.00    +0.038 A 
ENDBRANCH  25  26
ENDBRANCH  16   7
ENDBRANCH  11  16
TORSDOF 8
ENDMDL
