MODEL 1
REMARK VINA RESULT:      -6.5      0.000      0.000
REMARK  Name = 45784193
REMARK  6 active torsions:
REMARK  status: ('A' for Active; 'I' for Inactive)
REMARK    1  A    between atoms: O_2  and  C_14
REMARK    2  A    between atoms: O_2  and  C_24
REMARK    3  A    between atoms: N_3  and  C_9
REMARK    4  A    between atoms: C_5  and  C_10
REMARK    5  A    between atoms: C_9  and  C_11
REMARK    6  A    between atoms: C_18  and  C_23
REMARK                            x       y       z     vdW  Elec       q    Type
REMARK                         _______ _______ _______ _____ _____    ______ ____
ROOT
ATOM      3  N   UNL     1      -4.381 -10.547  14.810  0.00  0.00    -0.297 NA
ATOM      5  C   UNL     1      -5.730  -9.591  16.473  0.00  0.00    +0.090 C 
ATOM      6  C   UNL     1      -4.593 -10.394  17.131  0.00  0.00    +0.029 C 
ATOM      7  C   UNL     1      -5.750 -10.069  15.016  0.00  0.00    +0.097 C 
ATOM      8  C   UNL     1      -4.056 -11.293  16.025  0.00  0.00    +0.085 C 
ENDROOT
BRANCH   5  10
ATOM      1  O   UNL     1      -7.152 -10.652  18.145  0.00  0.00    -0.439 OA
ATOM      4  N   UNL     1      -8.177  -9.047  16.916  0.00  0.00    -0.213 NA
ATOM     10  C   UNL     1      -7.073  -9.720  17.155  0.00  0.00    +0.201 A 
ATOM     12  C   UNL     1      -9.069  -9.573  17.821  0.00  0.00    +0.110 A 
ATOM     13  C   UNL     1      -8.445 -10.556  18.574  0.00  0.00    +0.155 A 
ATOM     16  C   UNL     1     -10.418  -9.280  18.072  0.00  0.00    +0.035 A 
ATOM     17  C   UNL     1      -9.058 -11.291  19.580  0.00  0.00    +0.049 A 
ATOM     18  C   UNL     1     -11.072 -10.002  19.081  0.00  0.00    -0.048 A 
ATOM     21  C   UNL     1     -10.403 -10.987  19.819  0.00  0.00    +0.007 A 
ATOM     23  C   UNL     1     -12.508  -9.714  19.372  0.00  0.00    +0.044 C 
ENDBRANCH   5  10
BRANCH   3   9
ATOM      9  C   UNL     1      -4.250 -11.359  13.609  0.00  0.00    +0.123 C 
BRANCH   9  11
ATOM     11  C   UNL     1      -3.620 -10.591  12.479  0.00  0.00    +0.008 A 
ATOM     14  C   UNL     1      -4.405 -10.034  11.469  0.00  0.00    +0.124 A 
ATOM     15  C   UNL     1      -2.233 -10.438  12.448  0.00  0.00    +0.008 A 
ATOM     19  C   UNL     1      -3.804  -9.325  10.428  0.00  0.00    +0.046 A 
ATOM     20  C   UNL     1      -1.633  -9.729  11.407  0.00  0.00    +0.001 A 
ATOM     22  C   UNL     1      -2.418  -9.172  10.397  0.00  0.00    +0.004 A 
BRANCH  14   2
ATOM      2  O   UNL     1      -5.760 -10.174  11.484  0.00  0.00    -0.495 OA
ATOM     24  C   UNL     1      -6.534  -8.977  11.549  0.00  0.00    +0.277 C 
ENDBRANCH  14   2
ENDBRANCH   9  11
ENDBRANCH   3   9
TORSDOF 4
ENDMDL
MODEL 2
REMARK VINA RESULT:      -6.4      1.176      1.933
REMARK  Name = 45784193
REMARK  6 active torsions:
REMARK  status: ('A' for Active; 'I' for Inactive)
REMARK    1  A    between atoms: O_2  and  C_14
REMARK    2  A    between atoms: O_2  and  C_24
REMARK    3  A    between atoms: N_3  and  C_9
REMARK    4  A    between atoms: C_5  and  C_10
REMARK    5  A    between atoms: C_9  and  C_11
REMARK    6  A    between atoms: C_18  and  C_23
REMARK                            x       y       z     vdW  Elec       q    Type
REMARK                         _______ _______ _______ _____ _____    ______ ____
ROOT
ATOM      3  N   UNL     1      -4.700 -10.516  14.938  0.00  0.00    -0.297 NA
ATOM      5  C   UNL     1      -6.076  -9.563  16.581  0.00  0.00    +0.090 C 
ATOM      6  C   UNL     1      -4.955 -10.374  17.256  0.00  0.00    +0.029 C 
ATOM      7  C   UNL     1      -6.070 -10.033  15.121  0.00  0.00    +0.097 C 
ATOM      8  C   UNL     1      -4.401 -11.270  16.156  0.00  0.00    +0.085 C 
ENDROOT
BRANCH   5  10
ATOM      1  O   UNL     1      -7.520 -10.585  18.258  0.00  0.00    -0.439 OA
ATOM      4  N   UNL     1      -8.541  -9.045  16.947  0.00  0.00    -0.213 NA
ATOM     10  C   UNL     1      -7.433  -9.689  17.236  0.00  0.00    +0.201 A 
ATOM     12  C   UNL     1      -9.445  -9.552  17.850  0.00  0.00    +0.110 A 
ATOM     13  C   UNL     1      -8.824 -10.495  18.653  0.00  0.00    +0.155 A 
ATOM     16  C   UNL     1     -10.804  -9.273  18.059  0.00  0.00    +0.035 A 
ATOM     17  C   UNL     1      -9.448 -11.203  19.673  0.00  0.00    +0.049 A 
ATOM     18  C   UNL     1     -11.470  -9.968  19.079  0.00  0.00    -0.048 A 
ATOM     21  C   UNL     1     -10.803 -10.913  19.869  0.00  0.00    +0.007 A 
ATOM     23  C   UNL     1     -12.917  -9.693  19.327  0.00  0.00    +0.044 C 
ENDBRANCH   5  10
BRANCH   3   9
ATOM      9  C   UNL     1      -4.549 -11.322  13.736  0.00  0.00    +0.123 C 
BRANCH   9  11
ATOM     11  C   UNL     1      -3.727 -10.620  12.689  0.00  0.00    +0.008 A 
ATOM     14  C   UNL     1      -2.350 -10.468  12.847  0.00  0.00    +0.124 A 
ATOM     15  C   UNL     1      -4.358 -10.117  11.551  0.00  0.00    +0.008 A 
ATOM     19  C   UNL     1      -1.603  -9.814  11.867  0.00  0.00    +0.046 A 
ATOM     20  C   UNL     1      -3.611  -9.463  10.571  0.00  0.00    +0.001 A 
ATOM     22  C   UNL     1      -2.234  -9.311  10.728  0.00  0.00    +0.004 A 
BRANCH  14   2
ATOM      2  O   UNL     1      -1.718 -10.952  13.953  0.00  0.00    -0.495 OA
ATOM     24  C   UNL     1      -1.203  -9.993  14.876  0.00  0.00    +0.277 C 
ENDBRANCH  14   2
ENDBRANCH   9  11
ENDBRANCH   3   9
TORSDOF 4
ENDMDL
MODEL 3
REMARK VINA RESULT:      -6.4     24.445     26.946
REMARK  Name = 45784193
REMARK  6 active torsions:
REMARK  status: ('A' for Active; 'I' for Inactive)
REMARK    1  A    between atoms: O_2  and  C_14
REMARK    2  A    between atoms: O_2  and  C_24
REMARK    3  A    between atoms: N_3  and  C_9
REMARK    4  A    between atoms: C_5  and  C_10
REMARK    5  A    between atoms: C_9  and  C_11
REMARK    6  A    between atoms: C_18  and  C_23
REMARK                            x       y       z     vdW  Elec       q    Type
REMARK                         _______ _______ _______ _____ _____    ______ ____
ROOT
ATOM      3  N   UNL     1       2.539   4.722  -5.438  0.00  0.00    -0.297 NA
ATOM      5  C   UNL     1       1.975   2.452  -5.602  0.00  0.00    +0.090 C 
ATOM      6  C   UNL     1       2.927   2.829  -6.750  0.00  0.00    +0.029 C 
ATOM      7  C   UNL     1       1.472   3.795  -5.057  0.00  0.00    +0.097 C 
ATOM      8  C   UNL     1       2.889   4.350  -6.809  0.00  0.00    +0.085 C 
ENDROOT
BRANCH   5  10
ATOM      1  O   UNL     1      -0.013   1.981  -6.933  0.00  0.00    -0.439 OA
ATOM      4  N   UNL     1       0.604   0.307  -5.534  0.00  0.00    -0.213 NA
ATOM     10  C   UNL     1       0.853   1.515  -5.989  0.00  0.00    +0.201 A 
ATOM     12  C   UNL     1      -0.522  -0.066  -6.229  0.00  0.00    +0.110 A 
ATOM     13  C   UNL     1      -0.902   0.956  -7.085  0.00  0.00    +0.155 A 
ATOM     16  C   UNL     1      -1.283  -1.244  -6.198  0.00  0.00    +0.035 A 
ATOM     17  C   UNL     1      -1.999   0.909  -7.937  0.00  0.00    +0.049 A 
ATOM     18  C   UNL     1      -2.399  -1.329  -7.043  0.00  0.00    -0.048 A 
ATOM     21  C   UNL     1      -2.748  -0.272  -7.894  0.00  0.00    +0.007 A 
ATOM     23  C   UNL     1      -3.231  -2.569  -7.034  0.00  0.00    +0.044 C 
ENDBRANCH   5  10
BRANCH   3   9
ATOM      9  C   UNL     1       2.131   6.115  -5.328  0.00  0.00    +0.123 C 
BRANCH   9  11
ATOM     11  C   UNL     1       3.128   6.931  -4.549  0.00  0.00    +0.008 A 
ATOM     14  C   UNL     1       3.133   8.323  -4.635  0.00  0.00    +0.124 A 
ATOM     15  C   UNL     1       4.054   6.279  -3.734  0.00  0.00    +0.008 A 
ATOM     19  C   UNL     1       4.064   9.064  -3.906  0.00  0.00    +0.046 A 
ATOM     20  C   UNL     1       4.985   7.020  -3.005  0.00  0.00    +0.001 A 
ATOM     22  C   UNL     1       4.990   8.412  -3.091  0.00  0.00    +0.004 A 
BRANCH  14   2
ATOM      2  O   UNL     1       2.236   8.975  -5.427  0.00  0.00    -0.495 OA
ATOM     24  C   UNL     1       1.201   9.704  -4.769  0.00  0.00    +0.277 C 
ENDBRANCH  14   2
ENDBRANCH   9  11
ENDBRANCH   3   9
TORSDOF 4
ENDMDL
MODEL 4
REMARK VINA RESULT:      -6.3     27.819     29.920
REMARK  Name = 45784193
REMARK  6 active torsions:
REMARK  status: ('A' for Active; 'I' for Inactive)
REMARK    1  A    between atoms: O_2  and  C_14
REMARK    2  A    between atoms: O_2  and  C_24
REMARK    3  A    between atoms: N_3  and  C_9
REMARK    4  A    between atoms: C_5  and  C_10
REMARK    5  A    between atoms: C_9  and  C_11
REMARK    6  A    between atoms: C_18  and  C_23
REMARK                            x       y       z     vdW  Elec       q    Type
REMARK                         _______ _______ _______ _____ _____    ______ ____
ROOT
ATOM      3  N   UNL     1      18.029   6.261  20.653  0.00  0.00    -0.297 NA
ATOM      5  C   UNL     1      15.776   6.554  21.230  0.00  0.00    +0.090 C 
ATOM      6  C   UNL     1      15.881   6.173  19.742  0.00  0.00    +0.029 C 
ATOM      7  C   UNL     1      17.197   6.974  21.624  0.00  0.00    +0.097 C 
ATOM      8  C   UNL     1      17.337   6.421  19.374  0.00  0.00    +0.085 C 
ENDROOT
BRANCH   5  10
ATOM      1  O   UNL     1      13.446   7.187  21.571  0.00  0.00    -0.439 OA
ATOM      4  N   UNL     1      14.927   8.889  21.790  0.00  0.00    -0.213 NA
ATOM     10  C   UNL     1      14.741   7.611  21.542  0.00  0.00    +0.201 A 
ATOM     12  C   UNL     1      13.653   9.358  22.002  0.00  0.00    +0.110 A 
ATOM     13  C   UNL     1      12.745   8.320  21.869  0.00  0.00    +0.155 A 
ATOM     16  C   UNL     1      13.177  10.641  22.311  0.00  0.00    +0.035 A 
ATOM     17  C   UNL     1      11.369   8.446  22.020  0.00  0.00    +0.049 A 
ATOM     18  C   UNL     1      11.793  10.809  22.471  0.00  0.00    -0.048 A 
ATOM     21  C   UNL     1      10.910   9.731  22.328  0.00  0.00    +0.007 A 
ATOM     23  C   UNL     1      11.254  12.162  22.800  0.00  0.00    +0.044 C 
ENDBRANCH   5  10
BRANCH   3   9
ATOM      9  C   UNL     1      19.394   6.767  20.612  0.00  0.00    +0.123 C 
BRANCH   9  11
ATOM     11  C   UNL     1      20.377   5.771  21.166  0.00  0.00    +0.008 A 
ATOM     14  C   UNL     1      21.117   6.061  22.312  0.00  0.00    +0.124 A 
ATOM     15  C   UNL     1      20.546   4.547  20.518  0.00  0.00    +0.008 A 
ATOM     19  C   UNL     1      22.025   5.127  22.812  0.00  0.00    +0.046 A 
ATOM     20  C   UNL     1      21.454   3.612  21.018  0.00  0.00    +0.001 A 
ATOM     22  C   UNL     1      22.193   3.902  22.164  0.00  0.00    +0.004 A 
BRANCH  14   2
ATOM      2  O   UNL     1      20.966   7.252  22.956  0.00  0.00    -0.495 OA
ATOM     24  C   UNL     1      20.463   7.208  24.290  0.00  0.00    +0.277 C 
ENDBRANCH  14   2
ENDBRANCH   9  11
ENDBRANCH   3   9
TORSDOF 4
ENDMDL
MODEL 5
REMARK VINA RESULT:      -6.3     23.572     27.270
REMARK  Name = 45784193
REMARK  6 active torsions:
REMARK  status: ('A' for Active; 'I' for Inactive)
REMARK    1  A    between atoms: O_2  and  C_14
REMARK    2  A    between atoms: O_2  and  C_24
REMARK    3  A    between atoms: N_3  and  C_9
REMARK    4  A    between atoms: C_5  and  C_10
REMARK    5  A    between atoms: C_9  and  C_11
REMARK    6  A    between atoms: C_18  and  C_23
REMARK                            x       y       z     vdW  Elec       q    Type
REMARK                         _______ _______ _______ _____ _____    ______ ____
ROOT
ATOM      3  N   UNL     1      10.636   5.717   4.382  0.00  0.00    -0.297 NA
ATOM      5  C   UNL     1      11.731   4.770   2.538  0.00  0.00    +0.090 C 
ATOM      6  C   UNL     1      12.330   6.156   2.835  0.00  0.00    +0.029 C 
ATOM      7  C   UNL     1      10.407   4.744   3.312  0.00  0.00    +0.097 C 
ATOM      8  C   UNL     1      11.308   6.842   3.731  0.00  0.00    +0.085 C 
ENDROOT
BRANCH   5  10
ATOM      1  O   UNL     1      12.400   3.506   0.563  0.00  0.00    -0.439 OA
ATOM      4  N   UNL     1      10.710   4.975   0.214  0.00  0.00    -0.213 NA
ATOM     10  C   UNL     1      11.562   4.454   1.069  0.00  0.00    +0.201 A 
ATOM     12  C   UNL     1      11.001   4.323  -0.960  0.00  0.00    +0.110 A 
ATOM     13  C   UNL     1      12.035   3.424  -0.750  0.00  0.00    +0.155 A 
ATOM     16  C   UNL     1      10.445   4.430  -2.243  0.00  0.00    +0.035 A 
ATOM     17  C   UNL     1      12.578   2.599  -1.728  0.00  0.00    +0.049 A 
ATOM     18  C   UNL     1      10.967   3.614  -3.257  0.00  0.00    -0.048 A 
ATOM     21  C   UNL     1      12.012   2.717  -3.002  0.00  0.00    +0.007 A 
ATOM     23  C   UNL     1      10.396   3.703  -4.634  0.00  0.00    +0.044 C 
ENDBRANCH   5  10
BRANCH   3   9
ATOM      9  C   UNL     1       9.403   6.115   5.045  0.00  0.00    +0.123 C 
BRANCH   9  11
ATOM     11  C   UNL     1       9.424   5.785   6.513  0.00  0.00    +0.008 A 
ATOM     14  C   UNL     1       9.049   6.735   7.463  0.00  0.00    +0.124 A 
ATOM     15  C   UNL     1       9.824   4.512   6.920  0.00  0.00    +0.008 A 
ATOM     19  C   UNL     1       9.074   6.412   8.820  0.00  0.00    +0.046 A 
ATOM     20  C   UNL     1       9.849   4.190   8.277  0.00  0.00    +0.001 A 
ATOM     22  C   UNL     1       9.474   5.139   9.228  0.00  0.00    +0.004 A 
BRANCH  14   2
ATOM      2  O   UNL     1       8.656   7.983   7.083  0.00  0.00    -0.495 OA
ATOM     24  C   UNL     1       9.311   9.086   7.706  0.00  0.00    +0.277 C 
ENDBRANCH  14   2
ENDBRANCH   9  11
ENDBRANCH   3   9
TORSDOF 4
ENDMDL
MODEL 6
REMARK VINA RESULT:      -6.1     18.281     19.472
REMARK  Name = 45784193
REMARK  6 active torsions:
REMARK  status: ('A' for Active; 'I' for Inactive)
REMARK    1  A    between atoms: O_2  and  C_14
REMARK    2  A    between atoms: O_2  and  C_24
REMARK    3  A    between atoms: N_3  and  C_9
REMARK    4  A    between atoms: C_5  and  C_10
REMARK    5  A    between atoms: C_9  and  C_11
REMARK    6  A    between atoms: C_18  and  C_23
REMARK                            x       y       z     vdW  Elec       q    Type
REMARK                         _______ _______ _______ _____ _____    ______ ____
ROOT
ATOM      3  N   UNL     1     -13.548   7.087  20.933  0.00  0.00    -0.297 NA
ATOM      5  C   UNL     1     -14.956   5.328  21.583  0.00  0.00    +0.090 C 
ATOM      6  C   UNL     1     -15.805   6.558  21.216  0.00  0.00    +0.029 C 
ATOM      7  C   UNL     1     -13.534   5.875  21.756  0.00  0.00    +0.097 C 
ATOM      8  C   UNL     1     -14.830   7.727  21.229  0.00  0.00    +0.085 C 
ENDROOT
BRANCH   5  10
ATOM      1  O   UNL     1     -16.312   3.541  22.536  0.00  0.00    -0.439 OA
ATOM      4  N   UNL     1     -15.134   4.742  24.054  0.00  0.00    -0.213 NA
ATOM     10  C   UNL     1     -15.442   4.558  22.790  0.00  0.00    +0.201 A 
ATOM     12  C   UNL     1     -15.858   3.768  24.701  0.00  0.00    +0.110 A 
ATOM     13  C   UNL     1     -16.580   3.032  23.775  0.00  0.00    +0.155 A 
ATOM     16  C   UNL     1     -15.962   3.439  26.060  0.00  0.00    +0.035 A 
ATOM     17  C   UNL     1     -17.417   1.968  24.088  0.00  0.00    +0.049 A 
ATOM     18  C   UNL     1     -16.799   2.371  26.416  0.00  0.00    -0.048 A 
ATOM     21  C   UNL     1     -17.511   1.652  25.448  0.00  0.00    +0.007 A 
ATOM     23  C   UNL     1     -16.932   1.994  27.855  0.00  0.00    +0.044 C 
ENDBRANCH   5  10
BRANCH   3   9
ATOM      9  C   UNL     1     -12.416   7.959  21.209  0.00  0.00    +0.123 C 
BRANCH   9  11
ATOM     11  C   UNL     1     -11.671   8.324  19.953  0.00  0.00    +0.008 A 
ATOM     14  C   UNL     1     -11.189   9.618  19.759  0.00  0.00    +0.124 A 
ATOM     15  C   UNL     1     -11.464   7.349  18.976  0.00  0.00    +0.008 A 
ATOM     19  C   UNL     1     -10.501   9.939  18.589  0.00  0.00    +0.046 A 
ATOM     20  C   UNL     1     -10.776   7.670  17.806  0.00  0.00    +0.001 A 
ATOM     22  C   UNL     1     -10.294   8.965  17.612  0.00  0.00    +0.004 A 
BRANCH  14   2
ATOM      2  O   UNL     1     -11.383  10.582  20.703  0.00  0.00    -0.495 OA
ATOM     24  C   UNL     1     -12.363  11.580  20.418  0.00  0.00    +0.277 C 
ENDBRANCH  14   2
ENDBRANCH   9  11
ENDBRANCH   3   9
TORSDOF 4
ENDMDL
MODEL 7
REMARK VINA RESULT:      -6.1     17.954     20.655
REMARK  Name = 45784193
REMARK  6 active torsions:
REMARK  status: ('A' for Active; 'I' for Inactive)
REMARK    1  A    between atoms: O_2  and  C_14
REMARK    2  A    between atoms: O_2  and  C_24
REMARK    3  A    between atoms: N_3  and  C_9
REMARK    4  A    between atoms: C_5  and  C_10
REMARK    5  A    between atoms: C_9  and  C_11
REMARK    6  A    between atoms: C_18  and  C_23
REMARK                            x       y       z     vdW  Elec       q    Type
REMARK                         _______ _______ _______ _____ _____    ______ ____
ROOT
ATOM      3  N   UNL     1     -15.912   4.492  24.043  0.00  0.00    -0.297 NA
ATOM      5  C   UNL     1     -14.828   6.303  23.022  0.00  0.00    +0.090 C 
ATOM      6  C   UNL     1     -16.351   6.504  22.943  0.00  0.00    +0.029 C 
ATOM      7  C   UNL     1     -14.650   4.821  23.377  0.00  0.00    +0.097 C 
ATOM      8  C   UNL     1     -16.945   5.132  23.229  0.00  0.00    +0.085 C 
ENDROOT
BRANCH   5  10
ATOM      1  O   UNL     1     -14.807   7.290  20.793  0.00  0.00    -0.439 OA
ATOM      4  N   UNL     1     -12.787   6.566  21.522  0.00  0.00    -0.213 NA
ATOM     10  C   UNL     1     -14.069   6.706  21.778  0.00  0.00    +0.201 A 
ATOM     12  C   UNL     1     -12.656   7.100  20.262  0.00  0.00    +0.110 A 
ATOM     13  C   UNL     1     -13.891   7.544  19.813  0.00  0.00    +0.155 A 
ATOM     16  C   UNL     1     -11.538   7.249  19.429  0.00  0.00    +0.035 A 
ATOM     17  C   UNL     1     -14.117   8.139  18.578  0.00  0.00    +0.049 A 
ATOM     18  C   UNL     1     -11.726   7.845  18.174  0.00  0.00    -0.048 A 
ATOM     21  C   UNL     1     -12.992   8.280  17.759  0.00  0.00    +0.007 A 
ATOM     23  C   UNL     1     -10.556   8.019  17.263  0.00  0.00    +0.044 C 
ENDBRANCH   5  10
BRANCH   3   9
ATOM      9  C   UNL     1     -16.115   3.056  24.169  0.00  0.00    +0.123 C 
BRANCH   9  11
ATOM     11  C   UNL     1     -16.360   2.647  25.596  0.00  0.00    +0.008 A 
ATOM     14  C   UNL     1     -16.717   1.337  25.912  0.00  0.00    +0.124 A 
ATOM     15  C   UNL     1     -16.225   3.597  26.610  0.00  0.00    +0.008 A 
ATOM     19  C   UNL     1     -16.940   0.975  27.242  0.00  0.00    +0.046 A 
ATOM     20  C   UNL     1     -16.449   3.236  27.939  0.00  0.00    +0.001 A 
ATOM     22  C   UNL     1     -16.806   1.925  28.255  0.00  0.00    +0.004 A 
BRANCH  14   2
ATOM      2  O   UNL     1     -16.853   0.397  24.935  0.00  0.00    -0.495 OA
ATOM     24  C   UNL     1     -18.181   0.090  24.513  0.00  0.00    +0.277 C 
ENDBRANCH  14   2
ENDBRANCH   9  11
ENDBRANCH   3   9
TORSDOF 4
ENDMDL
MODEL 8
REMARK VINA RESULT:      -6.0      4.268      6.828
REMARK  Name = 45784193
REMARK  6 active torsions:
REMARK  status: ('A' for Active; 'I' for Inactive)
REMARK    1  A    between atoms: O_2  and  C_14
REMARK    2  A    between atoms: O_2  and  C_24
REMARK    3  A    between atoms: N_3  and  C_9
REMARK    4  A    between atoms: C_5  and  C_10
REMARK    5  A    between atoms: C_9  and  C_11
REMARK    6  A    between atoms: C_18  and  C_23
REMARK                            x       y       z     vdW  Elec       q    Type
REMARK                         _______ _______ _______ _____ _____    ______ ____
ROOT
ATOM      3  N   UNL     1      -9.131  -9.685  17.280  0.00  0.00    -0.297 NA
ATOM      5  C   UNL     1     -10.445  -7.754  17.076  0.00  0.00    +0.090 C 
ATOM      6  C   UNL     1     -11.218  -8.820  17.873  0.00  0.00    +0.029 C 
ATOM      7  C   UNL     1      -9.302  -8.524  16.404  0.00  0.00    +0.097 C 
ATOM      8  C   UNL     1     -10.492 -10.128  17.588  0.00  0.00    +0.085 C 
ENDROOT
BRANCH   5  10
ATOM      1  O   UNL     1     -12.606  -7.285  16.048  0.00  0.00    -0.439 OA
ATOM      4  N   UNL     1     -10.899  -6.009  15.278  0.00  0.00    -0.213 NA
ATOM     10  C   UNL     1     -11.282  -6.965  16.094  0.00  0.00    +0.201 A 
ATOM     12  C   UNL     1     -12.060  -5.660  14.632  0.00  0.00    +0.110 A 
ATOM     13  C   UNL     1     -13.107  -6.440  15.100  0.00  0.00    +0.155 A 
ATOM     16  C   UNL     1     -12.319  -4.701  13.641  0.00  0.00    +0.035 A 
ATOM     17  C   UNL     1     -14.422  -6.348  14.661  0.00  0.00    +0.049 A 
ATOM     18  C   UNL     1     -13.635  -4.579  13.171  0.00  0.00    -0.048 A 
ATOM     21  C   UNL     1     -14.664  -5.387  13.673  0.00  0.00    +0.007 A 
ATOM     23  C   UNL     1     -13.944  -3.567  12.117  0.00  0.00    +0.044 C 
ENDBRANCH   5  10
BRANCH   3   9
ATOM      9  C   UNL     1      -8.333 -10.735  16.663  0.00  0.00    +0.123 C 
BRANCH   9  11
ATOM     11  C   UNL     1      -7.034 -10.952  17.391  0.00  0.00    +0.008 A 
ATOM     14  C   UNL     1      -5.822 -10.571  16.817  0.00  0.00    +0.124 A 
ATOM     15  C   UNL     1      -7.051 -11.542  18.655  0.00  0.00    +0.008 A 
ATOM     19  C   UNL     1      -4.626 -10.779  17.505  0.00  0.00    +0.046 A 
ATOM     20  C   UNL     1      -5.856 -11.751  19.344  0.00  0.00    +0.001 A 
ATOM     22  C   UNL     1      -4.644 -11.370  18.769  0.00  0.00    +0.004 A 
BRANCH  14   2
ATOM      2  O   UNL     1      -5.787  -9.994  15.582  0.00  0.00    -0.495 OA
ATOM     24  C   UNL     1      -4.800 -10.475  14.671  0.00  0.00    +0.277 C 
ENDBRANCH  14   2
ENDBRANCH   9  11
ENDBRANCH   3   9
TORSDOF 4
ENDMDL
MODEL 9
REMARK VINA RESULT:      -6.0     23.219     26.776
REMARK  Name = 45784193
REMARK  6 active torsions:
REMARK  status: ('A' for Active; 'I' for Inactive)
REMARK    1  A    between atoms: O_2  and  C_14
REMARK    2  A    between atoms: O_2  and  C_24
REMARK    3  A    between atoms: N_3  and  C_9
REMARK    4  A    between atoms: C_5  and  C_10
REMARK    5  A    between atoms: C_9  and  C_11
REMARK    6  A    between atoms: C_18  and  C_23
REMARK                            x       y       z     vdW  Elec       q    Type
REMARK                         _______ _______ _______ _____ _____    ______ ____
ROOT
ATOM      3  N   UNL     1      11.778   5.396   1.001  0.00  0.00    -0.297 NA
ATOM      5  C   UNL     1      10.194   5.775   2.687  0.00  0.00    +0.090 C 
ATOM      6  C   UNL     1      10.741   7.122   2.184  0.00  0.00    +0.029 C 
ATOM      7  C   UNL     1      11.189   4.731   2.166  0.00  0.00    +0.097 C 
ATOM      8  C   UNL     1      12.020   6.772   1.435  0.00  0.00    +0.085 C 
ENDROOT
BRANCH   5  10
ATOM      1  O   UNL     1       9.454   6.803   4.770  0.00  0.00    -0.439 OA
ATOM      4  N   UNL     1      10.245   4.691   4.991  0.00  0.00    -0.213 NA
ATOM     10  C   UNL     1       9.984   5.694   4.182  0.00  0.00    +0.201 A 
ATOM     12  C   UNL     1       9.860   5.168   6.221  0.00  0.00    +0.110 A 
ATOM     13  C   UNL     1       9.376   6.460   6.090  0.00  0.00    +0.155 A 
ATOM     16  C   UNL     1       9.885   4.579   7.494  0.00  0.00    +0.035 A 
ATOM     17  C   UNL     1       8.901   7.239   7.138  0.00  0.00    +0.049 A 
ATOM     18  C   UNL     1       9.414   5.334   8.578  0.00  0.00    -0.048 A 
ATOM     21  C   UNL     1       8.932   6.637   8.401  0.00  0.00    +0.007 A 
ATOM     23  C   UNL     1       9.427   4.735   9.946  0.00  0.00    +0.044 C 
ENDBRANCH   5  10
BRANCH   3   9
ATOM      9  C   UNL     1      12.993   4.738   0.541  0.00  0.00    +0.123 C 
BRANCH   9  11
ATOM     11  C   UNL     1      12.836   4.182  -0.848  0.00  0.00    +0.008 A 
ATOM     14  C   UNL     1      13.072   4.980  -1.968  0.00  0.00    +0.124 A 
ATOM     15  C   UNL     1      12.450   2.851  -1.010  0.00  0.00    +0.008 A 
ATOM     19  C   UNL     1      12.923   4.448  -3.249  0.00  0.00    +0.046 A 
ATOM     20  C   UNL     1      12.300   2.319  -2.292  0.00  0.00    +0.001 A 
ATOM     22  C   UNL     1      12.536   3.117  -3.411  0.00  0.00    +0.004 A 
BRANCH  14   2
ATOM      2  O   UNL     1      13.449   6.282  -1.827  0.00  0.00    -0.495 OA
ATOM     24  C   UNL     1      12.955   7.207  -2.795  0.00  0.00    +0.277 C 
ENDBRANCH  14   2
ENDBRANCH   9  11
ENDBRANCH   3   9
TORSDOF 4
ENDMDL
MODEL 10
REMARK VINA RESULT:      -5.9     21.750     24.702
REMARK  Name = 45784193
REMARK  6 active torsions:
REMARK  status: ('A' for Active; 'I' for Inactive)
REMARK    1  A    between atoms: O_2  and  C_14
REMARK    2  A    between atoms: O_2  and  C_24
REMARK    3  A    between atoms: N_3  and  C_9
REMARK    4  A    between atoms: C_5  and  C_10
REMARK    5  A    between atoms: C_9  and  C_11
REMARK    6  A    between atoms: C_18  and  C_23
REMARK                            x       y       z     vdW  Elec       q    Type
REMARK                         _______ _______ _______ _____ _____    ______ ____
ROOT
ATOM      3  N   UNL     1       7.546  -6.852  33.646  0.00  0.00    -0.297 NA
ATOM      5  C   UNL     1       9.849  -6.471  33.870  0.00  0.00    +0.090 C 
ATOM      6  C   UNL     1       9.071  -5.274  34.446  0.00  0.00    +0.029 C 
ATOM      7  C   UNL     1       8.818  -7.237  33.032  0.00  0.00    +0.097 C 
ATOM      8  C   UNL     1       7.663  -5.413  33.883  0.00  0.00    +0.085 C 
ENDROOT
BRANCH   5  10
ATOM      1  O   UNL     1      11.349  -6.868  31.990  0.00  0.00    -0.439 OA
ATOM      4  N   UNL     1      11.954  -5.144  33.331  0.00  0.00    -0.213 NA
ATOM     10  C   UNL     1      11.090  -6.105  33.089  0.00  0.00    +0.201 A 
ATOM     12  C   UNL     1      12.867  -5.276  32.312  0.00  0.00    +0.110 A 
ATOM     13  C   UNL     1      12.499  -6.330  31.489  0.00  0.00    +0.155 A 
ATOM     16  C   UNL     1      14.028  -4.551  32.007  0.00  0.00    +0.035 A 
ATOM     17  C   UNL     1      13.202  -6.737  30.362  0.00  0.00    +0.049 A 
ATOM     18  C   UNL     1      14.765  -4.932  30.876  0.00  0.00    -0.048 A 
ATOM     21  C   UNL     1      14.357  -6.004  30.071  0.00  0.00    +0.007 A 
ATOM     23  C   UNL     1      16.006  -4.180  30.524  0.00  0.00    +0.044 C 
ENDBRANCH   5  10
BRANCH   3   9
ATOM      9  C   UNL     1       6.402  -7.185  32.811  0.00  0.00    +0.123 C 
BRANCH   9  11
ATOM     11  C   UNL     1       6.542  -8.546  32.184  0.00  0.00    +0.008 A 
ATOM     14  C   UNL     1       6.455  -9.701  32.960  0.00  0.00    +0.124 A 
ATOM     15  C   UNL     1       6.763  -8.644  30.810  0.00  0.00    +0.008 A 
ATOM     19  C   UNL     1       6.588 -10.956  32.363  0.00  0.00    +0.046 A 
ATOM     20  C   UNL     1       6.896  -9.898  30.213  0.00  0.00    +0.001 A 
ATOM     22  C   UNL     1       6.808 -11.054  30.989  0.00  0.00    +0.004 A 
BRANCH  14   2
ATOM      2  O   UNL     1       6.240  -9.624  34.304  0.00  0.00    -0.495 OA
ATOM     24  C   UNL     1       5.123 -10.342  34.824  0.00  0.00    +0.277 C 
ENDBRANCH  14   2
ENDBRANCH   9  11
ENDBRANCH   3   9
TORSDOF 4
ENDMDL
