MODEL 1
REMARK VINA RESULT:      -6.2      0.000      0.000
REMARK  Name = 71693735
REMARK  3 active torsions:
REMARK  status: ('A' for Active; 'I' for Inactive)
REMARK    1  A    between atoms: N_5  and  C_14
REMARK    2  A    between atoms: C_14  and  C_16
REMARK    3  A    between atoms: C_15  and  C_17
REMARK                            x       y       z     vdW  Elec       q    Type
REMARK                         _______ _______ _______ _____ _____    ______ ____
ROOT
ATOM      1  O   UNL     1      11.673   7.498  21.991  0.00  0.00    -0.364 OA
ATOM      2  O   UNL     1      14.588   6.432  20.252  0.00  0.00    -0.273 OA
ATOM      3  O   UNL     1      10.307  11.541  24.193  0.00  0.00    -0.270 OA
ATOM      4  N   UNL     1      11.619  10.427  22.633  0.00  0.00    -0.293 N 
ATOM      5  N   UNL     1      13.544   8.510  20.202  0.00  0.00    -0.288 N 
ATOM      8  C   UNL     1      12.473   9.365  20.701  0.00  0.00    +0.124 C 
ATOM      9  C   UNL     1      11.247   8.598  21.190  0.00  0.00    +0.158 C 
ATOM     10  C   UNL     1      12.879  10.170  21.938  0.00  0.00    +0.133 C 
ATOM     11  C   UNL     1      10.543   9.606  22.089  0.00  0.00    +0.141 C 
ATOM     12  C   UNL     1      13.637   7.161  20.535  0.00  0.00    +0.242 C 
ATOM     13  C   UNL     1      12.415   6.579  21.223  0.00  0.00    +0.256 C 
ATOM     15  C   UNL     1      11.387  11.357  23.634  0.00  0.00    +0.247 C 
ENDROOT
BRANCH  15  17
ATOM      7  N   UNL     1      14.662  13.804  24.855  0.00  0.00    -0.263 NA
ATOM     17  C   UNL     1      12.518  12.200  24.054  0.00  0.00    +0.040 A 
ATOM     20  C   UNL     1      13.300  11.828  25.142  0.00  0.00    +0.033 A 
ATOM     21  C   UNL     1      12.807  13.375  23.366  0.00  0.00    +0.033 A 
ATOM     23  C   UNL     1      14.351  12.657  25.498  0.00  0.00    +0.111 A 
ATOM     24  C   UNL     1      13.880  14.134  23.803  0.00  0.00    +0.111 A 
ENDBRANCH  15  17
BRANCH   5  14
ATOM     14  C   UNL     1      14.617   9.162  19.465  0.00  0.00    +0.145 C 
BRANCH  14  16
ATOM      6  N   UNL     1      13.585   8.454  15.897  0.00  0.00    -0.263 NA
ATOM     16  C   UNL     1      14.257   9.384  18.025  0.00  0.00    -0.012 A 
ATOM     18  C   UNL     1      14.254  10.661  17.475  0.00  0.00    +0.008 A 
ATOM     19  C   UNL     1      13.918   8.323  17.200  0.00  0.00    +0.115 A 
ATOM     22  C   UNL     1      13.918  10.836  16.137  0.00  0.00    +0.020 A 
ATOM     25  C   UNL     1      13.594   9.710  15.398  0.00  0.00    +0.111 A 
ENDBRANCH  14  16
ENDBRANCH   5  14
TORSDOF 3
ENDMDL
MODEL 2
REMARK VINA RESULT:      -6.2      1.806      2.175
REMARK  Name = 71693735
REMARK  3 active torsions:
REMARK  status: ('A' for Active; 'I' for Inactive)
REMARK    1  A    between atoms: N_5  and  C_14
REMARK    2  A    between atoms: C_14  and  C_16
REMARK    3  A    between atoms: C_15  and  C_17
REMARK                            x       y       z     vdW  Elec       q    Type
REMARK                         _______ _______ _______ _____ _____    ______ ____
ROOT
ATOM      1  O   UNL     1      12.640   7.363  21.622  0.00  0.00    -0.364 OA
ATOM      2  O   UNL     1      13.566   6.961  18.210  0.00  0.00    -0.273 OA
ATOM      3  O   UNL     1      10.993  10.993  24.300  0.00  0.00    -0.270 OA
ATOM      4  N   UNL     1      11.287   9.968  22.237  0.00  0.00    -0.293 N 
ATOM      5  N   UNL     1      11.794   8.177  19.103  0.00  0.00    -0.288 N 
ATOM      8  C   UNL     1      11.089   8.636  20.294  0.00  0.00    +0.124 C 
ATOM      9  C   UNL     1      11.266   7.725  21.506  0.00  0.00    +0.158 C 
ATOM     10  C   UNL     1      11.603   9.983  20.810  0.00  0.00    +0.133 C 
ATOM     11  C   UNL     1      10.904   8.631  22.676  0.00  0.00    +0.141 C 
ATOM     12  C   UNL     1      12.854   7.276  19.165  0.00  0.00    +0.242 C 
ATOM     13  C   UNL     1      13.051   6.601  20.511  0.00  0.00    +0.256 C 
ATOM     15  C   UNL     1      11.265  11.051  23.102  0.00  0.00    +0.247 C 
ENDROOT
BRANCH  15  17
ATOM      7  N   UNL     1      12.182  14.892  21.488  0.00  0.00    -0.263 NA
ATOM     17  C   UNL     1      11.582  12.375  22.544  0.00  0.00    +0.040 A 
ATOM     20  C   UNL     1      12.901  12.808  22.480  0.00  0.00    +0.033 A 
ATOM     21  C   UNL     1      10.562  13.199  22.081  0.00  0.00    +0.033 A 
ATOM     23  C   UNL     1      13.146  14.064  21.948  0.00  0.00    +0.111 A 
ATOM     24  C   UNL     1      10.912  14.437  21.567  0.00  0.00    +0.111 A 
ENDBRANCH  15  17
BRANCH   5  14
ATOM     14  C   UNL     1      11.453   8.826  17.844  0.00  0.00    +0.145 C 
BRANCH  14  16
ATOM      6  N   UNL     1      14.076   9.856  15.322  0.00  0.00    -0.263 NA
ATOM     16  C   UNL     1      12.634   9.524  17.234  0.00  0.00    -0.012 A 
ATOM     18  C   UNL     1      13.373  10.452  17.960  0.00  0.00    +0.008 A 
ATOM     19  C   UNL     1      13.024   9.264  15.930  0.00  0.00    +0.115 A 
ATOM     22  C   UNL     1      14.462  11.081  17.370  0.00  0.00    +0.020 A 
ATOM     25  C   UNL     1      14.770  10.751  16.060  0.00  0.00    +0.111 A 
ENDBRANCH  14  16
ENDBRANCH   5  14
TORSDOF 3
ENDMDL
MODEL 3
REMARK VINA RESULT:      -6.2     27.941     30.349
REMARK  Name = 71693735
REMARK  3 active torsions:
REMARK  status: ('A' for Active; 'I' for Inactive)
REMARK    1  A    between atoms: N_5  and  C_14
REMARK    2  A    between atoms: C_14  and  C_16
REMARK    3  A    between atoms: C_15  and  C_17
REMARK                            x       y       z     vdW  Elec       q    Type
REMARK                         _______ _______ _______ _____ _____    ______ ____
ROOT
ATOM      1  O   UNL     1     -18.772   3.044  25.371  0.00  0.00    -0.364 OA
ATOM      2  O   UNL     1     -16.709   2.493  22.525  0.00  0.00    -0.273 OA
ATOM      3  O   UNL     1     -18.040   3.299  30.111  0.00  0.00    -0.270 OA
ATOM      4  N   UNL     1     -17.262   3.465  27.929  0.00  0.00    -0.293 N 
ATOM      5  N   UNL     1     -16.247   3.735  24.438  0.00  0.00    -0.288 N 
ATOM      8  C   UNL     1     -16.689   4.187  25.752  0.00  0.00    +0.124 C 
ATOM      9  C   UNL     1     -18.207   4.237  25.909  0.00  0.00    +0.158 C 
ATOM     10  C   UNL     1     -16.267   3.245  26.881  0.00  0.00    +0.133 C 
ATOM     11  C   UNL     1     -18.399   4.225  27.420  0.00  0.00    +0.141 C 
ATOM     12  C   UNL     1     -17.073   3.012  23.581  0.00  0.00    +0.242 C 
ATOM     13  C   UNL     1     -18.536   2.960  23.985  0.00  0.00    +0.256 C 
ATOM     15  C   UNL     1     -17.175   3.093  29.261  0.00  0.00    +0.247 C 
ENDROOT
BRANCH  15  17
ATOM      7  N   UNL     1     -13.618   1.102  30.520  0.00  0.00    -0.263 NA
ATOM     17  C   UNL     1     -15.949   2.407  29.697  0.00  0.00    +0.040 A 
ATOM     20  C   UNL     1     -14.844   3.144  30.106  0.00  0.00    +0.033 A 
ATOM     21  C   UNL     1     -15.889   1.017  29.698  0.00  0.00    +0.033 A 
ATOM     23  C   UNL     1     -13.713   2.451  30.505  0.00  0.00    +0.111 A 
ATOM     24  C   UNL     1     -14.712   0.419  30.115  0.00  0.00    +0.111 A 
ENDBRANCH  15  17
BRANCH   5  14
ATOM     14  C   UNL     1     -14.840   3.926  24.115  0.00  0.00    +0.145 C 
BRANCH  14  16
ATOM      6  N   UNL     1     -15.334   7.299  22.478  0.00  0.00    -0.263 NA
ATOM     16  C   UNL     1     -14.626   5.108  23.214  0.00  0.00    -0.012 A 
ATOM     18  C   UNL     1     -13.573   5.136  22.306  0.00  0.00    +0.008 A 
ATOM     19  C   UNL     1     -15.470   6.206  23.260  0.00  0.00    +0.115 A 
ATOM     22  C   UNL     1     -13.400   6.243  21.483  0.00  0.00    +0.020 A 
ATOM     25  C   UNL     1     -14.300   7.290  21.607  0.00  0.00    +0.111 A 
ENDBRANCH  14  16
ENDBRANCH   5  14
TORSDOF 3
ENDMDL
MODEL 4
REMARK VINA RESULT:      -5.9     26.917     29.143
REMARK  Name = 71693735
REMARK  3 active torsions:
REMARK  status: ('A' for Active; 'I' for Inactive)
REMARK    1  A    between atoms: N_5  and  C_14
REMARK    2  A    between atoms: C_14  and  C_16
REMARK    3  A    between atoms: C_15  and  C_17
REMARK                            x       y       z     vdW  Elec       q    Type
REMARK                         _______ _______ _______ _____ _____    ______ ____
ROOT
ATOM      1  O   UNL     1      -1.641 -12.727  13.215  0.00  0.00    -0.364 OA
ATOM      2  O   UNL     1      -4.049 -14.867  14.726  0.00  0.00    -0.273 OA
ATOM      3  O   UNL     1      -1.826  -8.878  10.348  0.00  0.00    -0.270 OA
ATOM      4  N   UNL     1      -2.800 -10.280  11.924  0.00  0.00    -0.293 N 
ATOM      5  N   UNL     1      -4.131 -12.559  14.438  0.00  0.00    -0.288 N 
ATOM      8  C   UNL     1      -3.494 -11.359  13.910  0.00  0.00    +0.124 C 
ATOM      9  C   UNL     1      -1.976 -11.466  13.789  0.00  0.00    +0.158 C 
ATOM     10  C   UNL     1      -3.921 -11.039  12.475  0.00  0.00    +0.133 C 
ATOM     11  C   UNL     1      -1.629 -10.371  12.790  0.00  0.00    +0.141 C 
ATOM     12  C   UNL     1      -3.507 -13.804  14.418  0.00  0.00    +0.242 C 
ATOM     13  C   UNL     1      -2.031 -13.782  14.063  0.00  0.00    +0.256 C 
ATOM     15  C   UNL     1      -2.796  -9.502  10.777  0.00  0.00    +0.247 C 
ENDROOT
BRANCH  15  17
ATOM      7  N   UNL     1      -6.441  -9.220   8.578  0.00  0.00    -0.263 NA
ATOM     17  C   UNL     1      -4.053  -9.403  10.018  0.00  0.00    +0.040 A 
ATOM     20  C   UNL     1      -4.965  -8.395  10.305  0.00  0.00    +0.033 A 
ATOM     21  C   UNL     1      -4.334 -10.321   9.011  0.00  0.00    +0.033 A 
ATOM     23  C   UNL     1      -6.134  -8.347   9.563  0.00  0.00    +0.111 A 
ATOM     24  C   UNL     1      -5.530 -10.187   8.327  0.00  0.00    +0.111 A 
ENDBRANCH  15  17
BRANCH   5  14
ATOM     14  C   UNL     1      -5.525 -12.441  14.845  0.00  0.00    +0.145 C 
BRANCH  14  16
ATOM      6  N   UNL     1      -6.682 -10.089  17.570  0.00  0.00    -0.263 NA
ATOM     16  C   UNL     1      -5.664 -11.795  16.193  0.00  0.00    -0.012 A 
ATOM     18  C   UNL     1      -4.945 -12.260  17.289  0.00  0.00    +0.008 A 
ATOM     19  C   UNL     1      -6.512 -10.716  16.385  0.00  0.00    +0.115 A 
ATOM     22  C   UNL     1      -5.092 -11.640  18.524  0.00  0.00    +0.020 A 
ATOM     25  C   UNL     1      -5.966 -10.568  18.612  0.00  0.00    +0.111 A 
ENDBRANCH  14  16
ENDBRANCH   5  14
TORSDOF 3
ENDMDL
MODEL 5
REMARK VINA RESULT:      -5.6     27.371     29.781
REMARK  Name = 71693735
REMARK  3 active torsions:
REMARK  status: ('A' for Active; 'I' for Inactive)
REMARK    1  A    between atoms: N_5  and  C_14
REMARK    2  A    between atoms: C_14  and  C_16
REMARK    3  A    between atoms: C_15  and  C_17
REMARK                            x       y       z     vdW  Elec       q    Type
REMARK                         _______ _______ _______ _____ _____    ______ ____
ROOT
ATOM      1  O   UNL     1      -8.674 -11.460  13.398  0.00  0.00    -0.364 OA
ATOM      2  O   UNL     1      -9.067  -8.839  15.772  0.00  0.00    -0.273 OA
ATOM      3  O   UNL     1      -5.051 -13.105  10.708  0.00  0.00    -0.270 OA
ATOM      4  N   UNL     1      -5.834 -11.966  12.575  0.00  0.00    -0.293 N 
ATOM      5  N   UNL     1      -7.257 -10.269  15.471  0.00  0.00    -0.288 N 
ATOM      8  C   UNL     1      -6.657 -11.356  14.706  0.00  0.00    +0.124 C 
ATOM      9  C   UNL     1      -7.675 -12.264  14.020  0.00  0.00    +0.158 C 
ATOM     10  C   UNL     1      -5.807 -10.862  13.533  0.00  0.00    +0.133 C 
ATOM     11  C   UNL     1      -6.855 -12.945  12.933  0.00  0.00    +0.141 C 
ATOM     12  C   UNL     1      -8.561  -9.834  15.251  0.00  0.00    +0.242 C 
ATOM     13  C   UNL     1      -9.401 -10.732  14.361  0.00  0.00    +0.256 C 
ATOM     15  C   UNL     1      -4.992 -12.158  11.491  0.00  0.00    +0.247 C 
ENDROOT
BRANCH  15  17
ATOM      7  N   UNL     1      -1.929  -9.263  10.831  0.00  0.00    -0.263 NA
ATOM     17  C   UNL     1      -3.936 -11.158  11.265  0.00  0.00    +0.040 A 
ATOM     20  C   UNL     1      -4.128 -10.137  10.341  0.00  0.00    +0.033 A 
ATOM     21  C   UNL     1      -2.740 -11.233  11.972  0.00  0.00    +0.033 A 
ATOM     23  C   UNL     1      -3.103  -9.223  10.163  0.00  0.00    +0.111 A 
ATOM     24  C   UNL     1      -1.778 -10.270  11.720  0.00  0.00    +0.111 A 
ENDBRANCH  15  17
BRANCH   5  14
ATOM     14  C   UNL     1      -6.379  -9.537  16.373  0.00  0.00    +0.145 C 
BRANCH  14  16
ATOM      6  N   UNL     1      -7.068 -10.954  19.811  0.00  0.00    -0.263 NA
ATOM     16  C   UNL     1      -6.178 -10.261  17.673  0.00  0.00    -0.012 A 
ATOM     18  C   UNL     1      -4.974 -10.895  17.962  0.00  0.00    +0.008 A 
ATOM     19  C   UNL     1      -7.185 -10.320  18.624  0.00  0.00    +0.115 A 
ATOM     22  C   UNL     1      -4.815 -11.556  19.174  0.00  0.00    +0.020 A 
ATOM     25  C   UNL     1      -5.884 -11.557  20.057  0.00  0.00    +0.111 A 
ENDBRANCH  14  16
ENDBRANCH   5  14
TORSDOF 3
ENDMDL
MODEL 6
REMARK VINA RESULT:      -5.5     27.298     29.986
REMARK  Name = 71693735
REMARK  3 active torsions:
REMARK  status: ('A' for Active; 'I' for Inactive)
REMARK    1  A    between atoms: N_5  and  C_14
REMARK    2  A    between atoms: C_14  and  C_16
REMARK    3  A    between atoms: C_15  and  C_17
REMARK                            x       y       z     vdW  Elec       q    Type
REMARK                         _______ _______ _______ _____ _____    ______ ____
ROOT
ATOM      1  O   UNL     1      -9.174 -11.907  18.561  0.00  0.00    -0.364 OA
ATOM      2  O   UNL     1     -11.391 -11.274  15.852  0.00  0.00    -0.273 OA
ATOM      3  O   UNL     1      -4.413 -11.754  19.175  0.00  0.00    -0.270 OA
ATOM      4  N   UNL     1      -6.334 -11.088  18.051  0.00  0.00    -0.293 N 
ATOM      5  N   UNL     1      -9.464 -10.117  16.454  0.00  0.00    -0.288 N 
ATOM      8  C   UNL     1      -8.319 -10.011  17.351  0.00  0.00    +0.124 C 
ATOM      9  C   UNL     1      -8.549 -10.636  18.725  0.00  0.00    +0.158 C 
ATOM     10  C   UNL     1      -7.089 -10.768  16.842  0.00  0.00    +0.133 C 
ATOM     11  C   UNL     1      -7.136 -10.854  19.248  0.00  0.00    +0.141 C 
ATOM     12  C   UNL     1     -10.477 -11.053  16.648  0.00  0.00    +0.242 C 
ATOM     13  C   UNL     1     -10.453 -11.765  17.989  0.00  0.00    +0.256 C 
ATOM     15  C   UNL     1      -5.011 -11.495  18.132  0.00  0.00    +0.247 C 
ENDROOT
BRANCH  15  17
ATOM      7  N   UNL     1      -2.826 -11.850  14.485  0.00  0.00    -0.263 NA
ATOM     17  C   UNL     1      -4.259 -11.617  16.873  0.00  0.00    +0.040 A 
ATOM     20  C   UNL     1      -4.424 -12.737  16.067  0.00  0.00    +0.033 A 
ATOM     21  C   UNL     1      -3.378 -10.612  16.486  0.00  0.00    +0.033 A 
ATOM     23  C   UNL     1      -3.691 -12.805  14.893  0.00  0.00    +0.111 A 
ATOM     24  C   UNL     1      -2.692 -10.775  15.294  0.00  0.00    +0.111 A 
ENDBRANCH  15  17
BRANCH   5  14
ATOM     14  C   UNL     1      -9.428  -9.311  15.242  0.00  0.00    +0.145 C 
BRANCH  14  16
ATOM      6  N   UNL     1     -12.325  -7.039  14.377  0.00  0.00    -0.263 NA
ATOM     16  C   UNL     1     -10.396  -8.164  15.302  0.00  0.00    -0.012 A 
ATOM     18  C   UNL     1     -10.288  -7.186  16.285  0.00  0.00    +0.008 A 
ATOM     19  C   UNL     1     -11.423  -8.045  14.380  0.00  0.00    +0.115 A 
ATOM     22  C   UNL     1     -11.197  -6.134  16.314  0.00  0.00    +0.020 A 
ATOM     25  C   UNL     1     -12.188  -6.107  15.347  0.00  0.00    +0.111 A 
ENDBRANCH  14  16
ENDBRANCH   5  14
TORSDOF 3
ENDMDL
MODEL 7
REMARK VINA RESULT:      -5.5     27.053     29.484
REMARK  Name = 71693735
REMARK  3 active torsions:
REMARK  status: ('A' for Active; 'I' for Inactive)
REMARK    1  A    between atoms: N_5  and  C_14
REMARK    2  A    between atoms: C_14  and  C_16
REMARK    3  A    between atoms: C_15  and  C_17
REMARK                            x       y       z     vdW  Elec       q    Type
REMARK                         _______ _______ _______ _____ _____    ______ ____
ROOT
ATOM      1  O   UNL     1      -4.700 -12.108  17.631  0.00  0.00    -0.364 OA
ATOM      2  O   UNL     1      -8.086 -13.198  17.580  0.00  0.00    -0.273 OA
ATOM      3  O   UNL     1      -1.606 -10.446  14.355  0.00  0.00    -0.270 OA
ATOM      4  N   UNL     1      -3.780 -10.814  15.086  0.00  0.00    -0.293 N 
ATOM      5  N   UNL     1      -7.112 -11.424  16.432  0.00  0.00    -0.288 N 
ATOM      8  C   UNL     1      -5.902 -10.674  16.119  0.00  0.00    +0.124 C 
ATOM      9  C   UNL     1      -4.827 -10.755  17.200  0.00  0.00    +0.158 C 
ATOM     10  C   UNL     1      -5.173 -11.205  14.882  0.00  0.00    +0.133 C 
ATOM     11  C   UNL     1      -3.557 -10.363  16.456  0.00  0.00    +0.141 C 
ATOM     12  C   UNL     1      -7.130 -12.448  17.376  0.00  0.00    +0.242 C 
ATOM     13  C   UNL     1      -5.889 -12.551  18.244  0.00  0.00    +0.256 C 
ATOM     15  C   UNL     1      -2.769 -10.783  14.138  0.00  0.00    +0.247 C 
ENDROOT
BRANCH  15  17
ATOM      7  N   UNL     1      -3.766 -11.915  10.147  0.00  0.00    -0.263 NA
ATOM     17  C   UNL     1      -3.115 -11.174  12.762  0.00  0.00    +0.040 A 
ATOM     20  C   UNL     1      -3.102 -12.514  12.393  0.00  0.00    +0.033 A 
ATOM     21  C   UNL     1      -3.453 -10.203  11.825  0.00  0.00    +0.033 A 
ATOM     23  C   UNL     1      -3.432 -12.829  11.085  0.00  0.00    +0.111 A 
ATOM     24  C   UNL     1      -3.768 -10.622  10.543  0.00  0.00    +0.111 A 
ENDBRANCH  15  17
BRANCH   5  14
ATOM     14  C   UNL     1      -8.278 -11.173  15.597  0.00  0.00    +0.145 C 
BRANCH  14  16
ATOM      6  N   UNL     1     -10.051  -7.858  15.180  0.00  0.00    -0.263 NA
ATOM     16  C   UNL     1      -8.941  -9.869  15.935  0.00  0.00    -0.012 A 
ATOM     18  C   UNL     1      -9.067  -9.449  17.256  0.00  0.00    +0.008 A 
ATOM     19  C   UNL     1      -9.446  -9.043  14.943  0.00  0.00    +0.115 A 
ATOM     22  C   UNL     1      -9.683  -8.236  17.539  0.00  0.00    +0.020 A 
ATOM     25  C   UNL     1     -10.155  -7.484  16.475  0.00  0.00    +0.111 A 
ENDBRANCH  14  16
ENDBRANCH   5  14
TORSDOF 3
ENDMDL
MODEL 8
REMARK VINA RESULT:      -5.5     14.918     17.210
REMARK  Name = 71693735
REMARK  3 active torsions:
REMARK  status: ('A' for Active; 'I' for Inactive)
REMARK    1  A    between atoms: N_5  and  C_14
REMARK    2  A    between atoms: C_14  and  C_16
REMARK    3  A    between atoms: C_15  and  C_17
REMARK                            x       y       z     vdW  Elec       q    Type
REMARK                         _______ _______ _______ _____ _____    ______ ____
ROOT
ATOM      1  O   UNL     1      13.298   7.723   7.054  0.00  0.00    -0.364 OA
ATOM      2  O   UNL     1      15.466   8.156   4.267  0.00  0.00    -0.273 OA
ATOM      3  O   UNL     1       8.575   8.173   7.798  0.00  0.00    -0.270 OA
ATOM      4  N   UNL     1      10.378   7.826   6.376  0.00  0.00    -0.293 N 
ATOM      5  N   UNL     1      13.329   7.238   4.318  0.00  0.00    -0.288 N 
ATOM      8  C   UNL     1      12.147   6.907   5.105  0.00  0.00    +0.124 C 
ATOM      9  C   UNL     1      12.434   6.689   6.589  0.00  0.00    +0.158 C 
ATOM     10  C   UNL     1      11.109   8.032   5.128  0.00  0.00    +0.133 C 
ATOM     11  C   UNL     1      11.068   6.871   7.237  0.00  0.00    +0.141 C 
ATOM     12  C   UNL     1      14.494   7.736   4.896  0.00  0.00    +0.242 C 
ATOM     13  C   UNL     1      14.550   7.656   6.411  0.00  0.00    +0.256 C 
ATOM     15  C   UNL     1       9.156   8.374   6.733  0.00  0.00    +0.247 C 
ENDROOT
BRANCH  15  17
ATOM      7  N   UNL     1       7.248  10.938   3.907  0.00  0.00    -0.263 NA
ATOM     17  C   UNL     1       8.497   9.258   5.759  0.00  0.00    +0.040 A 
ATOM     20  C   UNL     1       7.688   8.721   4.765  0.00  0.00    +0.033 A 
ATOM     21  C   UNL     1       8.683  10.635   5.829  0.00  0.00    +0.033 A 
ATOM     23  C   UNL     1       7.091   9.596   3.871  0.00  0.00    +0.111 A 
ATOM     24  C   UNL     1       8.042  11.424   4.888  0.00  0.00    +0.111 A 
ENDBRANCH  15  17
BRANCH   5  14
ATOM     14  C   UNL     1      13.191   7.184   2.869  0.00  0.00    +0.145 C 
BRANCH  14  16
ATOM      6  N   UNL     1      12.230   3.708   1.731  0.00  0.00    -0.263 NA
ATOM     16  C   UNL     1      13.310   5.782   2.345  0.00  0.00    -0.012 A 
ATOM     18  C   UNL     1      14.546   5.249   1.997  0.00  0.00    +0.008 A 
ATOM     19  C   UNL     1      12.192   4.976   2.195  0.00  0.00    +0.115 A 
ATOM     22  C   UNL     1      14.626   3.947   1.517  0.00  0.00    +0.020 A 
ATOM     25  C   UNL     1      13.449   3.224   1.403  0.00  0.00    +0.111 A 
ENDBRANCH  14  16
ENDBRANCH   5  14
TORSDOF 3
ENDMDL
MODEL 9
REMARK VINA RESULT:      -5.4      3.722      7.050
REMARK  Name = 71693735
REMARK  3 active torsions:
REMARK  status: ('A' for Active; 'I' for Inactive)
REMARK    1  A    between atoms: N_5  and  C_14
REMARK    2  A    between atoms: C_14  and  C_16
REMARK    3  A    between atoms: C_15  and  C_17
REMARK                            x       y       z     vdW  Elec       q    Type
REMARK                         _______ _______ _______ _____ _____    ______ ____
ROOT
ATOM      1  O   UNL     1      16.677  10.593  20.056  0.00  0.00    -0.364 OA
ATOM      2  O   UNL     1      15.636   7.193  20.180  0.00  0.00    -0.273 OA
ATOM      3  O   UNL     1      16.075  14.229  16.978  0.00  0.00    -0.270 OA
ATOM      4  N   UNL     1      15.389  12.200  17.876  0.00  0.00    -0.293 N 
ATOM      5  N   UNL     1      14.443   9.053  19.453  0.00  0.00    -0.288 N 
ATOM      8  C   UNL     1      14.432  10.488  19.196  0.00  0.00    +0.124 C 
ATOM      9  C   UNL     1      15.426  11.276  20.046  0.00  0.00    +0.158 C 
ATOM     10  C   UNL     1      14.859  10.842  17.769  0.00  0.00    +0.133 C 
ATOM     11  C   UNL     1      15.590  12.576  19.271  0.00  0.00    +0.141 C 
ATOM     12  C   UNL     1      15.520   8.413  20.062  0.00  0.00    +0.242 C 
ATOM     13  C   UNL     1      16.555   9.336  20.681  0.00  0.00    +0.256 C 
ATOM     15  C   UNL     1      15.627  13.092  16.842  0.00  0.00    +0.247 C 
ENDROOT
BRANCH  15  17
ATOM      7  N   UNL     1      14.705  11.804  12.881  0.00  0.00    -0.263 NA
ATOM     17  C   UNL     1      15.309  12.649  15.475  0.00  0.00    +0.040 A 
ATOM     20  C   UNL     1      14.063  12.924  14.924  0.00  0.00    +0.033 A 
ATOM     21  C   UNL     1      16.254  11.951  14.730  0.00  0.00    +0.033 A 
ATOM     23  C   UNL     1      13.812  12.484  13.635  0.00  0.00    +0.111 A 
ATOM     24  C   UNL     1      15.905  11.555  13.450  0.00  0.00    +0.111 A 
ENDBRANCH  15  17
BRANCH   5  14
ATOM     14  C   UNL     1      13.344   8.275  18.896  0.00  0.00    +0.145 C 
BRANCH  14  16
ATOM      6  N   UNL     1      11.278   6.156  21.250  0.00  0.00    -0.263 NA
ATOM     16  C   UNL     1      12.340   7.891  19.945  0.00  0.00    -0.012 A 
ATOM     18  C   UNL     1      11.557   8.853  20.574  0.00  0.00    +0.008 A 
ATOM     19  C   UNL     1      12.163   6.568  20.316  0.00  0.00    +0.115 A 
ATOM     22  C   UNL     1      10.634   8.468  21.539  0.00  0.00    +0.020 A 
ATOM     25  C   UNL     1      10.534   7.118  21.839  0.00  0.00    +0.111 A 
ENDBRANCH  14  16
ENDBRANCH   5  14
TORSDOF 3
ENDMDL
MODEL 10
REMARK VINA RESULT:      -5.3     21.958     23.997
REMARK  Name = 71693735
REMARK  3 active torsions:
REMARK  status: ('A' for Active; 'I' for Inactive)
REMARK    1  A    between atoms: N_5  and  C_14
REMARK    2  A    between atoms: C_14  and  C_16
REMARK    3  A    between atoms: C_15  and  C_17
REMARK                            x       y       z     vdW  Elec       q    Type
REMARK                         _______ _______ _______ _____ _____    ______ ____
ROOT
ATOM      1  O   UNL     1     -11.556  11.673  19.965  0.00  0.00    -0.364 OA
ATOM      2  O   UNL     1     -10.755   8.207  19.886  0.00  0.00    -0.273 OA
ATOM      3  O   UNL     1     -10.025  15.577  17.625  0.00  0.00    -0.270 OA
ATOM      4  N   UNL     1     -10.322  13.277  17.751  0.00  0.00    -0.293 N 
ATOM      5  N   UNL     1     -10.929   9.700  18.110  0.00  0.00    -0.288 N 
ATOM      8  C   UNL     1     -11.165  11.069  17.668  0.00  0.00    +0.124 C 
ATOM      9  C   UNL     1     -12.016  11.892  18.634  0.00  0.00    +0.158 C 
ATOM     10  C   UNL     1      -9.880  11.896  17.569  0.00  0.00    +0.133 C 
ATOM     11  C   UNL     1     -11.696  13.328  18.241  0.00  0.00    +0.141 C 
ATOM     12  C   UNL     1     -11.071   9.311  19.439  0.00  0.00    +0.242 C 
ATOM     13  C   UNL     1     -11.744  10.328  20.343  0.00  0.00    +0.256 C 
ATOM     15  C   UNL     1      -9.614  14.430  17.455  0.00  0.00    +0.247 C 
ENDROOT
BRANCH  15  17
ATOM      7  N   UNL     1      -5.711  13.981  15.792  0.00  0.00    -0.263 NA
ATOM     17  C   UNL     1      -8.267  14.274  16.882  0.00  0.00    +0.040 A 
ATOM     20  C   UNL     1      -7.144  14.563  17.649  0.00  0.00    +0.033 A 
ATOM     21  C   UNL     1      -8.113  13.838  15.570  0.00  0.00    +0.033 A 
ATOM     23  C   UNL     1      -5.900  14.402  17.062  0.00  0.00    +0.111 A 
ATOM     24  C   UNL     1      -6.826  13.709  15.077  0.00  0.00    +0.111 A 
ENDBRANCH  15  17
BRANCH   5  14
ATOM     14  C   UNL     1     -10.374   8.778  17.129  0.00  0.00    +0.145 C 
BRANCH  14  16
ATOM      6  N   UNL     1     -11.613   8.375  13.579  0.00  0.00    -0.263 NA
ATOM     16  C   UNL     1     -11.303   8.566  15.969  0.00  0.00    -0.012 A 
ATOM     18  C   UNL     1     -12.666   8.371  16.168  0.00  0.00    +0.008 A 
ATOM     19  C   UNL     1     -10.832   8.559  14.665  0.00  0.00    +0.115 A 
ATOM     22  C   UNL     1     -13.502   8.178  15.075  0.00  0.00    +0.020 A 
ATOM     25  C   UNL     1     -12.932   8.189  13.812  0.00  0.00    +0.111 A 
ENDBRANCH  14  16
ENDBRANCH   5  14
TORSDOF 3
ENDMDL
