REMARK  Name = 11884109
REMARK  9 active torsions:
REMARK  status: ('A' for Active; 'I' for Inactive)
REMARK    1  A    between atoms: S_1  and  N_9
REMARK    2  A    between atoms: S_1  and  C_18
REMARK    3  A    between atoms: O_5  and  C_14
REMARK    4  A    between atoms: O_5  and  C_17
REMARK    5  A    between atoms: N_9  and  C_13
REMARK    6  A    between atoms: N_10  and  C_20
REMARK    7  A    between atoms: C_23  and  C_24
REMARK    8  A    between atoms: C_23  and  C_29
REMARK    9  A    between atoms: C_23  and  C_30
REMARK                            x       y       z     vdW  Elec       q    Type
REMARK                         _______ _______ _______ _____ _____    ______ ____
ROOT
ATOM      3  O   UNL     1       1.005   0.283  -0.608  0.00  0.00    -0.369 OA
ATOM      4  O   UNL     1       2.398   2.970  -0.057  0.00  0.00    -0.368 OA
ATOM     11  C   UNL     1       2.306   1.758   0.721  0.00  0.00    +0.171 C 
ATOM     12  C   UNL     1       0.915   1.197   0.498  0.00  0.00    +0.191 C 
ATOM     13  C   UNL     1       3.220   0.706   0.143  0.00  0.00    +0.133 C 
ATOM     14  C   UNL     1       0.117   2.429   0.142  0.00  0.00    +0.235 C 
ATOM     15  C   UNL     1       2.383   0.108  -0.971  0.00  0.00    +0.183 C 
ATOM     16  C   UNL     1       1.119   3.239  -0.649  0.00  0.00    +0.207 C 
ENDROOT
BRANCH  13   9
ATOM      9  N   UNL     1       3.509  -0.329   1.164  0.00  0.00    -0.182 NA
ATOM     31  H   UNL     1       2.827  -1.095   1.232  0.00  0.00    +0.149 HD
BRANCH   9   1
ATOM      1  S   UNL     1       5.149  -0.667   1.514  0.00  0.00    +0.065 S 
ATOM      6  O   UNL     1       5.226  -1.796   2.420  0.00  0.00    -0.153 OA
ATOM      7  O   UNL     1       5.832   0.578   1.801  0.00  0.00    -0.153 OA
BRANCH   1  18
ATOM      2  S   UNL     1       5.384  -2.758  -0.516  0.00  0.00    -0.077 S 
ATOM     18  C   UNL     1       5.911  -1.226  -0.010  0.00  0.00    +0.142 A 
ATOM     19  C   UNL     1       6.826  -0.655  -0.830  0.00  0.00    +0.036 A 
ATOM     21  C   UNL     1       7.121  -1.505  -1.934  0.00  0.00    +0.010 A 
ATOM     22  C   UNL     1       6.406  -2.682  -1.888  0.00  0.00    +0.047 A 
ENDBRANCH   1  18
ENDBRANCH   9   1
ENDBRANCH  13   9
BRANCH  14   5
ATOM      5  O   UNL     1      -1.047   2.150  -0.602  0.00  0.00    -0.442 OA
BRANCH   5  17
ATOM      8  O   UNL     1      -1.886   0.947   1.152  0.00  0.00    -0.226 OA
ATOM     10  N   UNL     1      -3.079   1.202  -0.846  0.00  0.00    -0.251 N 
ATOM     17  C   UNL     1      -2.011   1.379   0.013  0.00  0.00    +0.405 C 
ATOM     32  H   UNL     1      -2.998   1.643  -1.759  0.00  0.00    +0.158 HD
BRANCH  10  20
ATOM     20  C   UNL     1      -4.272   0.481  -0.614  0.00  0.00    +0.036 A 
ATOM     24  C   UNL     1      -6.612  -0.933  -0.159  0.00  0.00    -0.045 A 
ATOM     25  C   UNL     1      -5.233   0.419  -1.611  0.00  0.00    +0.024 A 
ATOM     26  C   UNL     1      -4.458  -0.150   0.606  0.00  0.00    +0.024 A 
ATOM     27  C   UNL     1      -6.410  -0.292  -1.382  0.00  0.00    +0.006 A 
ATOM     28  C   UNL     1      -5.636  -0.861   0.835  0.00  0.00    +0.006 A 
BRANCH  24  23
ATOM     23  C   UNL     1      -7.872  -1.693   0.086  0.00  0.00    +0.013 C 
ATOM     29  C   UNL     1      -7.615  -3.192   0.333  0.00  0.00    +0.012 C 
ATOM     30  C   UNL     1      -8.698  -1.107   1.246  0.00  0.00    +0.012 C 
ENDBRANCH  24  23
ENDBRANCH  10  20
ENDBRANCH   5  17
ENDBRANCH  14   5
TORSDOF 7
