MODEL 1
REMARK VINA RESULT:      -7.4      0.000      0.000
REMARK  Name = 40779893
REMARK  6 active torsions:
REMARK  status: ('A' for Active; 'I' for Inactive)
REMARK    1  A    between atoms: S_2  and  N_7
REMARK    2  A    between atoms: S_2  and  C_23
REMARK    3  A    between atoms: N_6  and  C_15
REMARK    4  A    between atoms: N_7  and  C_16
REMARK    5  A    between atoms: C_9  and  C_15
REMARK    6  A    between atoms: C_10  and  C_16
REMARK                            x       y       z     vdW  Elec       q    Type
REMARK                         _______ _______ _______ _____ _____    ______ ____
ROOT
ATOM      5  N   UNL     1      -5.897 -12.183  17.027  0.00  0.00    -0.298 NA
ATOM      8  C   UNL     1      -6.961 -10.783  18.945  0.00  0.00    -0.002 C 
ATOM      9  C   UNL     1      -7.823 -10.709  17.664  0.00  0.00    +0.023 C 
ATOM     10  C   UNL     1      -4.891 -11.243  17.590  0.00  0.00    +0.072 C 
ATOM     11  C   UNL     1      -5.534 -10.297  18.628  0.00  0.00    +0.024 C 
ATOM     12  C   UNL     1      -7.075 -11.435  16.523  0.00  0.00    +0.090 C 
ATOM     13  C   UNL     1      -6.860 -12.271  19.330  0.00  0.00    +0.019 C 
ATOM     14  C   UNL     1      -6.351 -13.076  18.121  0.00  0.00    +0.085 C 
ENDROOT
BRANCH   9  15
ATOM     15  C   UNL     1      -8.200  -9.283  17.273  0.00  0.00    +0.110 C 
BRANCH  15   6
ATOM      6  N   UNL     1      -9.601  -9.062  17.524  0.00  0.00    -0.329 N 
ATOM     17  C   UNL     1     -10.492 -10.122  17.994  0.00  0.00    +0.110 C 
ATOM     18  C   UNL     1     -10.385  -8.154  16.826  0.00  0.00    +0.033 A 
ATOM     19  C   UNL     1     -11.920  -9.541  17.971  0.00  0.00    +0.056 C 
ATOM     20  C   UNL     1     -11.750  -8.388  17.035  0.00  0.00    -0.025 A 
ATOM     21  C   UNL     1      -9.982  -7.106  16.014  0.00  0.00    +0.023 A 
ATOM     22  C   UNL     1     -12.729  -7.597  16.457  0.00  0.00    +0.005 A 
ATOM     24  C   UNL     1     -10.960  -6.303  15.415  0.00  0.00    +0.002 A 
ATOM     25  C   UNL     1     -12.323  -6.547  15.635  0.00  0.00    +0.000 A 
ENDBRANCH  15   6
ENDBRANCH   9  15
BRANCH  10  16
ATOM     16  C   UNL     1      -4.142 -10.469  16.503  0.00  0.00    +0.124 C 
BRANCH  16   7
ATOM      7  N   UNL     1      -3.756 -11.369  15.449  0.00  0.00    -0.188 NA
ATOM     31  H   UNL     1      -4.139 -12.321  15.479  0.00  0.00    +0.148 HD
BRANCH   7   2
ATOM      2  S   UNL     1      -2.249 -11.191  14.636  0.00  0.00    +0.058 S 
ATOM      3  O   UNL     1      -1.683 -12.507  14.414  0.00  0.00    -0.153 OA
ATOM      4  O   UNL     1      -1.459 -10.155  15.274  0.00  0.00    -0.153 OA
BRANCH   2  23
ATOM      1 CL   UNL     1      -4.108  -8.921   9.086  0.00  0.00    -0.084 Cl
ATOM     23  C   UNL     1      -2.773 -10.552  13.074  0.00  0.00    +0.105 A 
ATOM     26  C   UNL     1      -1.825 -10.171  12.123  0.00  0.00    +0.030 A 
ATOM     27  C   UNL     1      -4.132 -10.429  12.790  0.00  0.00    +0.030 A 
ATOM     28  C   UNL     1      -2.237  -9.667  10.890  0.00  0.00    +0.022 A 
ATOM     29  C   UNL     1      -4.546  -9.924  11.558  0.00  0.00    +0.022 A 
ATOM     30  C   UNL     1      -3.598  -9.544  10.607  0.00  0.00    +0.041 A 
ENDBRANCH   2  23
ENDBRANCH   7   2
ENDBRANCH  16   7
ENDBRANCH  10  16
TORSDOF 6
ENDMDL
MODEL 2
REMARK VINA RESULT:      -7.2      1.476      1.929
REMARK  Name = 40779893
REMARK  6 active torsions:
REMARK  status: ('A' for Active; 'I' for Inactive)
REMARK    1  A    between atoms: S_2  and  N_7
REMARK    2  A    between atoms: S_2  and  C_23
REMARK    3  A    between atoms: N_6  and  C_15
REMARK    4  A    between atoms: N_7  and  C_16
REMARK    5  A    between atoms: C_9  and  C_15
REMARK    6  A    between atoms: C_10  and  C_16
REMARK                            x       y       z     vdW  Elec       q    Type
REMARK                         _______ _______ _______ _____ _____    ______ ____
ROOT
ATOM      5  N   UNL     1      -5.281 -12.621  16.257  0.00  0.00    -0.298 NA
ATOM      8  C   UNL     1      -5.053 -10.628  17.913  0.00  0.00    -0.002 C 
ATOM      9  C   UNL     1      -6.530 -10.849  17.517  0.00  0.00    +0.023 C 
ATOM     10  C   UNL     1      -4.264 -11.658  15.758  0.00  0.00    +0.072 C 
ATOM     11  C   UNL     1      -4.214 -10.393  16.643  0.00  0.00    +0.024 C 
ATOM     12  C   UNL     1      -6.590 -11.944  16.427  0.00  0.00    +0.090 C 
ATOM     13  C   UNL     1      -4.559 -11.941  18.549  0.00  0.00    +0.019 C 
ATOM     14  C   UNL     1      -4.837 -13.108  17.585  0.00  0.00    +0.085 C 
ENDROOT
BRANCH   9  15
ATOM     15  C   UNL     1      -7.232  -9.570  17.068  0.00  0.00    +0.110 C 
BRANCH  15   6
ATOM      6  N   UNL     1      -8.521  -9.471  17.706  0.00  0.00    -0.329 N 
ATOM     17  C   UNL     1      -9.034 -10.503  18.606  0.00  0.00    +0.110 C 
ATOM     18  C   UNL     1      -9.621  -8.838  17.146  0.00  0.00    +0.033 A 
ATOM     19  C   UNL     1     -10.490 -10.117  18.934  0.00  0.00    +0.056 C 
ATOM     20  C   UNL     1     -10.804  -9.184  17.810  0.00  0.00    -0.025 A 
ATOM     21  C   UNL     1      -9.663  -7.951  16.082  0.00  0.00    +0.023 A 
ATOM     22  C   UNL     1     -12.034  -8.662  17.444  0.00  0.00    +0.005 A 
ATOM     24  C   UNL     1     -10.899  -7.421  15.693  0.00  0.00    +0.002 A 
ATOM     25  C   UNL     1     -12.075  -7.775  16.370  0.00  0.00    +0.000 A 
ENDBRANCH  15   6
ENDBRANCH   9  15
BRANCH  10  16
ATOM     16  C   UNL     1      -4.464 -11.310  14.280  0.00  0.00    +0.124 C 
BRANCH  16   7
ATOM      7  N   UNL     1      -3.487 -10.335  13.877  0.00  0.00    -0.188 NA
ATOM     31  H   UNL     1      -3.772  -9.349  13.890  0.00  0.00    +0.148 HD
BRANCH   7   2
ATOM      2  S   UNL     1      -2.232 -10.738  12.771  0.00  0.00    +0.058 S 
ATOM      3  O   UNL     1      -1.871 -12.130  12.965  0.00  0.00    -0.153 OA
ATOM      4  O   UNL     1      -1.208  -9.711  12.784  0.00  0.00    -0.153 OA
BRANCH   2  23
ATOM      1 CL   UNL     1      -5.235 -10.265   7.278  0.00  0.00    -0.084 Cl
ATOM     23  C   UNL     1      -3.078 -10.605  11.225  0.00  0.00    +0.105 A 
ATOM     26  C   UNL     1      -3.599 -11.746  10.614  0.00  0.00    +0.030 A 
ATOM     27  C   UNL     1      -3.224  -9.359  10.615  0.00  0.00    +0.030 A 
ATOM     28  C   UNL     1      -4.266 -11.641   9.394  0.00  0.00    +0.022 A 
ATOM     29  C   UNL     1      -3.891  -9.254   9.394  0.00  0.00    +0.022 A 
ATOM     30  C   UNL     1      -4.412 -10.395   8.784  0.00  0.00    +0.041 A 
ENDBRANCH   2  23
ENDBRANCH   7   2
ENDBRANCH  16   7
ENDBRANCH  10  16
TORSDOF 6
ENDMDL
MODEL 3
REMARK VINA RESULT:      -7.1      4.548      9.720
REMARK  Name = 40779893
REMARK  6 active torsions:
REMARK  status: ('A' for Active; 'I' for Inactive)
REMARK    1  A    between atoms: S_2  and  N_7
REMARK    2  A    between atoms: S_2  and  C_23
REMARK    3  A    between atoms: N_6  and  C_15
REMARK    4  A    between atoms: N_7  and  C_16
REMARK    5  A    between atoms: C_9  and  C_15
REMARK    6  A    between atoms: C_10  and  C_16
REMARK                            x       y       z     vdW  Elec       q    Type
REMARK                         _______ _______ _______ _____ _____    ______ ____
ROOT
ATOM      5  N   UNL     1      -5.096 -10.074  11.369  0.00  0.00    -0.298 NA
ATOM      8  C   UNL     1      -4.511  -9.147   9.010  0.00  0.00    -0.002 C 
ATOM      9  C   UNL     1      -5.209 -10.522   8.905  0.00  0.00    +0.023 C 
ATOM     10  C   UNL     1      -3.659  -9.695  11.314  0.00  0.00    +0.072 C 
ATOM     11  C   UNL     1      -3.248  -9.281   9.883  0.00  0.00    +0.024 C 
ATOM     12  C   UNL     1      -5.401 -11.088  10.331  0.00  0.00    +0.090 C 
ATOM     13  C   UNL     1      -5.480  -8.209   9.754  0.00  0.00    +0.019 C 
ATOM     14  C   UNL     1      -5.901  -8.862  11.083  0.00  0.00    +0.085 C 
ENDROOT
BRANCH   9  15
ATOM     15  C   UNL     1      -4.467 -11.506   8.004  0.00  0.00    +0.110 C 
BRANCH  15   6
ATOM      6  N   UNL     1      -4.902 -11.341   6.640  0.00  0.00    -0.329 N 
ATOM     17  C   UNL     1      -6.298 -11.089   6.285  0.00  0.00    +0.110 C 
ATOM     18  C   UNL     1      -4.315 -11.972   5.553  0.00  0.00    +0.033 A 
ATOM     19  C   UNL     1      -6.379 -11.148   4.746  0.00  0.00    +0.056 C 
ATOM     20  C   UNL     1      -5.133 -11.905   4.418  0.00  0.00    -0.025 A 
ATOM     21  C   UNL     1      -3.083 -12.603   5.477  0.00  0.00    +0.023 A 
ATOM     22  C   UNL     1      -4.752 -12.449   3.203  0.00  0.00    +0.005 A 
ATOM     24  C   UNL     1      -2.686 -13.165   4.259  0.00  0.00    +0.002 A 
ATOM     25  C   UNL     1      -3.515 -13.089   3.130  0.00  0.00    +0.000 A 
ENDBRANCH  15   6
ENDBRANCH   9  15
BRANCH  10  16
ATOM     16  C   UNL     1      -2.744 -10.787  11.874  0.00  0.00    +0.124 C 
BRANCH  16   7
ATOM      7  N   UNL     1      -2.310 -10.421  13.195  0.00  0.00    -0.188 NA
ATOM     31  H   UNL     1      -1.598  -9.684  13.270  0.00  0.00    +0.148 HD
BRANCH   7   2
ATOM      2  S   UNL     1      -2.359 -11.550  14.492  0.00  0.00    +0.058 S 
ATOM      3  O   UNL     1      -1.182 -11.362  15.319  0.00  0.00    -0.153 OA
ATOM      4  O   UNL     1      -2.694 -12.870  13.990  0.00  0.00    -0.153 OA
BRANCH   2  23
ATOM      1 CL   UNL     1      -7.339  -9.499  17.720  0.00  0.00    -0.084 Cl
ATOM     23  C   UNL     1      -3.761 -10.973  15.401  0.00  0.00    +0.105 A 
ATOM     26  C   UNL     1      -4.882 -10.493  14.724  0.00  0.00    +0.030 A 
ATOM     27  C   UNL     1      -3.747 -10.998  16.795  0.00  0.00    +0.030 A 
ATOM     28  C   UNL     1      -5.988 -10.037  15.440  0.00  0.00    +0.022 A 
ATOM     29  C   UNL     1      -4.853 -10.542  17.513  0.00  0.00    +0.022 A 
ATOM     30  C   UNL     1      -5.974 -10.062  16.835  0.00  0.00    +0.041 A 
ENDBRANCH   2  23
ENDBRANCH   7   2
ENDBRANCH  16   7
ENDBRANCH  10  16
TORSDOF 6
ENDMDL
MODEL 4
REMARK VINA RESULT:      -7.0      3.689      7.781
REMARK  Name = 40779893
REMARK  6 active torsions:
REMARK  status: ('A' for Active; 'I' for Inactive)
REMARK    1  A    between atoms: S_2  and  N_7
REMARK    2  A    between atoms: S_2  and  C_23
REMARK    3  A    between atoms: N_6  and  C_15
REMARK    4  A    between atoms: N_7  and  C_16
REMARK    5  A    between atoms: C_9  and  C_15
REMARK    6  A    between atoms: C_10  and  C_16
REMARK                            x       y       z     vdW  Elec       q    Type
REMARK                         _______ _______ _______ _____ _____    ______ ____
ROOT
ATOM      5  N   UNL     1      -5.310 -10.741  17.993  0.00  0.00    -0.298 NA
ATOM      8  C   UNL     1      -5.696 -12.292  15.940  0.00  0.00    -0.002 C 
ATOM      9  C   UNL     1      -4.838 -11.067  15.552  0.00  0.00    +0.023 C 
ATOM     10  C   UNL     1      -6.762 -11.014  17.828  0.00  0.00    +0.072 C 
ATOM     11  C   UNL     1      -7.034 -11.810  16.532  0.00  0.00    +0.024 C 
ATOM     12  C   UNL     1      -4.762 -10.112  16.766  0.00  0.00    +0.090 C 
ATOM     13  C   UNL     1      -4.941 -13.029  17.063  0.00  0.00    +0.019 C 
ATOM     14  C   UNL     1      -4.619 -12.038  18.195  0.00  0.00    +0.085 C 
ENDROOT
BRANCH   9  15
ATOM     15  C   UNL     1      -5.342 -10.350  14.303  0.00  0.00    +0.110 C 
BRANCH  15   6
ATOM      6  N   UNL     1      -4.398 -10.522  13.227  0.00  0.00    -0.329 N 
ATOM     17  C   UNL     1      -2.981 -10.793  13.461  0.00  0.00    +0.110 C 
ATOM     18  C   UNL     1      -4.491  -9.884  11.999  0.00  0.00    +0.033 A 
ATOM     19  C   UNL     1      -2.288 -10.737  12.085  0.00  0.00    +0.056 C 
ATOM     20  C   UNL     1      -3.287  -9.962  11.288  0.00  0.00    -0.025 A 
ATOM     21  C   UNL     1      -5.580  -9.236  11.438  0.00  0.00    +0.023 A 
ATOM     22  C   UNL     1      -3.141  -9.414  10.025  0.00  0.00    +0.005 A 
ATOM     24  C   UNL     1      -5.447  -8.668  10.165  0.00  0.00    +0.002 A 
ATOM     25  C   UNL     1      -4.235  -8.758   9.465  0.00  0.00    +0.000 A 
ENDBRANCH  15   6
ENDBRANCH   9  15
BRANCH  10  16
ATOM     16  C   UNL     1      -7.609  -9.741  17.902  0.00  0.00    +0.124 C 
BRANCH  16   7
ATOM      7  N   UNL     1      -8.573  -9.740  16.835  0.00  0.00    -0.188 NA
ATOM     31  H   UNL     1      -8.312  -9.263  15.964  0.00  0.00    +0.148 HD
BRANCH   7   2
ATOM      2  S   UNL     1     -10.260  -9.835  17.162  0.00  0.00    +0.058 S 
ATOM      3  O   UNL     1     -10.477  -9.557  18.568  0.00  0.00    -0.153 OA
ATOM      4  O   UNL     1     -10.816 -11.032  16.560  0.00  0.00    -0.153 OA
BRANCH   2  23
ATOM      1 CL   UNL     1     -12.427  -4.950  13.866  0.00  0.00    -0.084 Cl
ATOM     23  C   UNL     1     -10.870  -8.460  16.234  0.00  0.00    +0.105 A 
ATOM     26  C   UNL     1     -11.948  -8.628  15.365  0.00  0.00    +0.030 A 
ATOM     27  C   UNL     1     -10.274  -7.207  16.371  0.00  0.00    +0.030 A 
ATOM     28  C   UNL     1     -12.430  -7.543  14.633  0.00  0.00    +0.022 A 
ATOM     29  C   UNL     1     -10.755  -6.121  15.639  0.00  0.00    +0.022 A 
ATOM     30  C   UNL     1     -11.833  -6.289  14.770  0.00  0.00    +0.041 A 
ENDBRANCH   2  23
ENDBRANCH   7   2
ENDBRANCH  16   7
ENDBRANCH  10  16
TORSDOF 6
ENDMDL
MODEL 5
REMARK VINA RESULT:      -6.9     22.745     25.591
REMARK  Name = 40779893
REMARK  6 active torsions:
REMARK  status: ('A' for Active; 'I' for Inactive)
REMARK    1  A    between atoms: S_2  and  N_7
REMARK    2  A    between atoms: S_2  and  C_23
REMARK    3  A    between atoms: N_6  and  C_15
REMARK    4  A    between atoms: N_7  and  C_16
REMARK    5  A    between atoms: C_9  and  C_15
REMARK    6  A    between atoms: C_10  and  C_16
REMARK                            x       y       z     vdW  Elec       q    Type
REMARK                         _______ _______ _______ _____ _____    ______ ____
ROOT
ATOM      5  N   UNL     1     -13.043   9.820  33.978  0.00  0.00    -0.298 NA
ATOM      8  C   UNL     1     -11.636   9.670  31.796  0.00  0.00    -0.002 C 
ATOM      9  C   UNL     1     -12.936  10.473  31.561  0.00  0.00    +0.023 C 
ATOM     10  C   UNL     1     -12.699   8.402  33.691  0.00  0.00    +0.072 C 
ATOM     11  C   UNL     1     -11.992   8.268  32.324  0.00  0.00    +0.024 C 
ATOM     12  C   UNL     1     -13.796  10.407  32.843  0.00  0.00    +0.090 C 
ATOM     13  C   UNL     1     -10.860  10.394  32.911  0.00  0.00    +0.019 C 
ATOM     14  C   UNL     1     -11.777  10.576  34.134  0.00  0.00    +0.085 C 
ENDROOT
BRANCH   9  15
ATOM     15  C   UNL     1     -13.718  10.008  30.334  0.00  0.00    +0.110 C 
BRANCH  15   6
ATOM      6  N   UNL     1     -13.513  10.932  29.247  0.00  0.00    -0.329 N 
ATOM     17  C   UNL     1     -14.592  11.753  28.699  0.00  0.00    +0.110 C 
ATOM     18  C   UNL     1     -12.589  10.745  28.229  0.00  0.00    +0.033 A 
ATOM     19  C   UNL     1     -14.018  12.463  27.457  0.00  0.00    +0.056 C 
ATOM     20  C   UNL     1     -12.837  11.600  27.148  0.00  0.00    -0.025 A 
ATOM     21  C   UNL     1     -11.515   9.870  28.182  0.00  0.00    +0.023 A 
ATOM     22  C   UNL     1     -12.036  11.611  26.019  0.00  0.00    +0.005 A 
ATOM     24  C   UNL     1     -10.700   9.862  27.044  0.00  0.00    +0.002 A 
ATOM     25  C   UNL     1     -10.959  10.727  25.971  0.00  0.00    +0.000 A 
ENDBRANCH  15   6
ENDBRANCH   9  15
BRANCH  10  16
ATOM     16  C   UNL     1     -13.911   7.473  33.798  0.00  0.00    +0.124 C 
BRANCH  16   7
ATOM      7  N   UNL     1     -13.486   6.176  34.251  0.00  0.00    -0.188 NA
ATOM     31  H   UNL     1     -12.577   5.834  33.917  0.00  0.00    +0.148 HD
BRANCH   7   2
ATOM      2  S   UNL     1     -14.631   4.964  34.678  0.00  0.00    +0.058 S 
ATOM      3  O   UNL     1     -15.966   5.499  34.488  0.00  0.00    -0.153 OA
ATOM      4  O   UNL     1     -14.262   4.354  35.941  0.00  0.00    -0.153 OA
BRANCH   2  23
ATOM      1 CL   UNL     1     -13.612   0.677  30.206  0.00  0.00    -0.084 Cl
ATOM     23  C   UNL     1     -14.344   3.757  33.419  0.00  0.00    +0.105 A 
ATOM     26  C   UNL     1     -13.601   4.093  32.287  0.00  0.00    +0.030 A 
ATOM     27  C   UNL     1     -14.860   2.469  33.557  0.00  0.00    +0.030 A 
ATOM     28  C   UNL     1     -13.375   3.141  31.293  0.00  0.00    +0.022 A 
ATOM     29  C   UNL     1     -14.635   1.516  32.564  0.00  0.00    +0.022 A 
ATOM     30  C   UNL     1     -13.891   1.852  31.432  0.00  0.00    +0.041 A 
ENDBRANCH   2  23
ENDBRANCH   7   2
ENDBRANCH  16   7
ENDBRANCH  10  16
TORSDOF 6
ENDMDL
MODEL 6
REMARK VINA RESULT:      -6.9      3.987      8.081
REMARK  Name = 40779893
REMARK  6 active torsions:
REMARK  status: ('A' for Active; 'I' for Inactive)
REMARK    1  A    between atoms: S_2  and  N_7
REMARK    2  A    between atoms: S_2  and  C_23
REMARK    3  A    between atoms: N_6  and  C_15
REMARK    4  A    between atoms: N_7  and  C_16
REMARK    5  A    between atoms: C_9  and  C_15
REMARK    6  A    between atoms: C_10  and  C_16
REMARK                            x       y       z     vdW  Elec       q    Type
REMARK                         _______ _______ _______ _____ _____    ______ ____
ROOT
ATOM      5  N   UNL     1      -6.721 -11.089  19.157  0.00  0.00    -0.298 NA
ATOM      8  C   UNL     1      -4.722 -12.202  17.919  0.00  0.00    -0.002 C 
ATOM      9  C   UNL     1      -5.056 -10.825  17.301  0.00  0.00    +0.023 C 
ATOM     10  C   UNL     1      -7.086 -12.468  18.737  0.00  0.00    +0.072 C 
ATOM     11  C   UNL     1      -5.974 -13.099  17.871  0.00  0.00    +0.024 C 
ATOM     12  C   UNL     1      -6.334 -10.278  17.977  0.00  0.00    +0.090 C 
ATOM     13  C   UNL     1      -4.393 -11.958  19.403  0.00  0.00    +0.019 C 
ATOM     14  C   UNL     1      -5.548 -11.181  20.059  0.00  0.00    +0.085 C 
ENDROOT
BRANCH   9  15
ATOM     15  C   UNL     1      -5.196 -10.864  15.781  0.00  0.00    +0.110 C 
BRANCH  15   6
ATOM      6  N   UNL     1      -3.890 -10.919  15.174  0.00  0.00    -0.329 N 
ATOM     17  C   UNL     1      -2.672 -10.544  15.891  0.00  0.00    +0.110 C 
ATOM     18  C   UNL     1      -3.648 -10.702  13.825  0.00  0.00    +0.033 A 
ATOM     19  C   UNL     1      -1.527 -10.571  14.860  0.00  0.00    +0.056 C 
ATOM     20  C   UNL     1      -2.288 -10.479  13.577  0.00  0.00    -0.025 A 
ATOM     21  C   UNL     1      -4.550 -10.697  12.771  0.00  0.00    +0.023 A 
ATOM     22  C   UNL     1      -1.799 -10.256  12.300  0.00  0.00    +0.005 A 
ATOM     24  C   UNL     1      -4.073 -10.465  11.476  0.00  0.00    +0.002 A 
ATOM     25  C   UNL     1      -2.708 -10.246  11.243  0.00  0.00    +0.000 A 
ENDBRANCH  15   6
ENDBRANCH   9  15
BRANCH  10  16
ATOM     16  C   UNL     1      -8.450 -12.526  18.043  0.00  0.00    +0.124 C 
BRANCH  16   7
ATOM      7  N   UNL     1      -9.421 -11.812  18.826  0.00  0.00    -0.188 NA
ATOM     31  H   UNL     1      -9.262 -11.759  19.840  0.00  0.00    +0.148 HD
BRANCH   7   2
ATOM      2  S   UNL     1     -11.060 -11.694  18.317  0.00  0.00    +0.058 S 
ATOM      3  O   UNL     1     -11.916 -11.747  19.487  0.00  0.00    -0.153 OA
ATOM      4  O   UNL     1     -11.299 -12.585  17.198  0.00  0.00    -0.153 OA
BRANCH   2  23
ATOM      1 CL   UNL     1     -11.227  -5.837  16.062  0.00  0.00    -0.084 Cl
ATOM     23  C   UNL     1     -11.107 -10.045  17.682  0.00  0.00    +0.105 A 
ATOM     26  C   UNL     1     -12.274  -9.557  17.092  0.00  0.00    +0.030 A 
ATOM     27  C   UNL     1      -9.979  -9.230  17.772  0.00  0.00    +0.030 A 
ATOM     28  C   UNL     1     -12.311  -8.257  16.590  0.00  0.00    +0.022 A 
ATOM     29  C   UNL     1     -10.015  -7.929  17.270  0.00  0.00    +0.022 A 
ATOM     30  C   UNL     1     -11.182  -7.442  16.680  0.00  0.00    +0.041 A 
ENDBRANCH   2  23
ENDBRANCH   7   2
ENDBRANCH  16   7
ENDBRANCH  10  16
TORSDOF 6
ENDMDL
MODEL 7
REMARK VINA RESULT:      -6.8     24.031     28.398
REMARK  Name = 40779893
REMARK  6 active torsions:
REMARK  status: ('A' for Active; 'I' for Inactive)
REMARK    1  A    between atoms: S_2  and  N_7
REMARK    2  A    between atoms: S_2  and  C_23
REMARK    3  A    between atoms: N_6  and  C_15
REMARK    4  A    between atoms: N_7  and  C_16
REMARK    5  A    between atoms: C_9  and  C_15
REMARK    6  A    between atoms: C_10  and  C_16
REMARK                            x       y       z     vdW  Elec       q    Type
REMARK                         _______ _______ _______ _____ _____    ______ ____
ROOT
ATOM      5  N   UNL     1      13.012   5.822   1.348  0.00  0.00    -0.298 NA
ATOM      8  C   UNL     1      12.986   3.249   0.969  0.00  0.00    -0.002 C 
ATOM      9  C   UNL     1      12.651   4.003  -0.339  0.00  0.00    +0.023 C 
ATOM     10  C   UNL     1      12.136   5.168   2.356  0.00  0.00    +0.072 C 
ATOM     11  C   UNL     1      11.983   3.659   2.064  0.00  0.00    +0.024 C 
ATOM     12  C   UNL     1      12.539   5.512  -0.024  0.00  0.00    +0.090 C 
ATOM     13  C   UNL     1      14.377   3.732   1.420  0.00  0.00    +0.019 C 
ATOM     14  C   UNL     1      14.379   5.269   1.501  0.00  0.00    +0.085 C 
ENDROOT
BRANCH   9  15
ATOM     15  C   UNL     1      11.397   3.478  -1.033  0.00  0.00    +0.110 C 
BRANCH  15   6
ATOM      6  N   UNL     1      11.141   4.247  -2.225  0.00  0.00    -0.329 N 
ATOM     17  C   UNL     1       9.918   5.027  -2.410  0.00  0.00    +0.110 C 
ATOM     18  C   UNL     1      11.596   3.900  -3.489  0.00  0.00    +0.033 A 
ATOM     19  C   UNL     1       9.945   5.552  -3.859  0.00  0.00    +0.056 C 
ATOM     20  C   UNL     1      10.928   4.618  -4.489  0.00  0.00    -0.025 A 
ATOM     21  C   UNL     1      12.583   2.991  -3.837  0.00  0.00    +0.023 A 
ATOM     22  C   UNL     1      11.223   4.457  -5.832  0.00  0.00    +0.005 A 
ATOM     24  C   UNL     1      12.887   2.811  -5.191  0.00  0.00    +0.002 A 
ATOM     25  C   UNL     1      12.212   3.539  -6.181  0.00  0.00    +0.000 A 
ENDBRANCH  15   6
ENDBRANCH   9  15
BRANCH  10  16
ATOM     16  C   UNL     1      10.778   5.862   2.488  0.00  0.00    +0.124 C 
BRANCH  16   7
ATOM      7  N   UNL     1      10.270   5.680   3.821  0.00  0.00    -0.188 NA
ATOM     31  H   UNL     1       9.927   4.744   4.071  0.00  0.00    +0.148 HD
BRANCH   7   2
ATOM      2  S   UNL     1       9.580   6.990   4.696  0.00  0.00    +0.058 S 
ATOM      3  O   UNL     1       8.222   7.197   4.230  0.00  0.00    -0.153 OA
ATOM      4  O   UNL     1      10.511   8.102   4.745  0.00  0.00    -0.153 OA
BRANCH   2  23
ATOM      1 CL   UNL     1       9.291   4.584  10.488  0.00  0.00    -0.084 Cl
ATOM     23  C   UNL     1       9.499   6.313   6.327  0.00  0.00    +0.105 A 
ATOM     26  C   UNL     1       9.886   4.992   6.554  0.00  0.00    +0.030 A 
ATOM     27  C   UNL     1       9.048   7.099   7.387  0.00  0.00    +0.030 A 
ATOM     28  C   UNL     1       9.822   4.457   7.840  0.00  0.00    +0.022 A 
ATOM     29  C   UNL     1       8.983   6.564   8.674  0.00  0.00    +0.022 A 
ATOM     30  C   UNL     1       9.371   5.244   8.900  0.00  0.00    +0.041 A 
ENDBRANCH   2  23
ENDBRANCH   7   2
ENDBRANCH  16   7
ENDBRANCH  10  16
TORSDOF 6
ENDMDL
MODEL 8
REMARK VINA RESULT:      -6.7     21.694     23.846
REMARK  Name = 40779893
REMARK  6 active torsions:
REMARK  status: ('A' for Active; 'I' for Inactive)
REMARK    1  A    between atoms: S_2  and  N_7
REMARK    2  A    between atoms: S_2  and  C_23
REMARK    3  A    between atoms: N_6  and  C_15
REMARK    4  A    between atoms: N_7  and  C_16
REMARK    5  A    between atoms: C_9  and  C_15
REMARK    6  A    between atoms: C_10  and  C_16
REMARK                            x       y       z     vdW  Elec       q    Type
REMARK                         _______ _______ _______ _____ _____    ______ ____
ROOT
ATOM      5  N   UNL     1       3.447 -10.899  37.684  0.00  0.00    -0.298 NA
ATOM      8  C   UNL     1       3.731 -10.997  35.100  0.00  0.00    -0.002 C 
ATOM      9  C   UNL     1       4.955 -11.615  35.814  0.00  0.00    +0.023 C 
ATOM     10  C   UNL     1       3.229  -9.550  37.096  0.00  0.00    +0.072 C 
ATOM     11  C   UNL     1       3.537  -9.547  35.583  0.00  0.00    +0.024 C 
ATOM     12  C   UNL     1       4.799 -11.400  37.336  0.00  0.00    +0.090 C 
ATOM     13  C   UNL     1       2.497 -11.798  35.556  0.00  0.00    +0.019 C 
ATOM     14  C   UNL     1       2.447 -11.822  37.095  0.00  0.00    +0.085 C 
ENDROOT
BRANCH   9  15
ATOM     15  C   UNL     1       6.287 -11.072  35.302  0.00  0.00    +0.110 C 
BRANCH  15   6
ATOM      6  N   UNL     1       6.355 -11.218  33.870  0.00  0.00    -0.329 N 
ATOM     17  C   UNL     1       7.023 -12.348  33.225  0.00  0.00    +0.110 C 
ATOM     18  C   UNL     1       6.408 -10.155  32.979  0.00  0.00    +0.033 A 
ATOM     19  C   UNL     1       7.031 -12.052  31.712  0.00  0.00    +0.056 C 
ATOM     20  C   UNL     1       6.808 -10.574  31.704  0.00  0.00    -0.025 A 
ATOM     21  C   UNL     1       6.112  -8.820  33.204  0.00  0.00    +0.023 A 
ATOM     22  C   UNL     1       6.917  -9.693  30.641  0.00  0.00    +0.005 A 
ATOM     24  C   UNL     1       6.224  -7.916  32.142  0.00  0.00    +0.002 A 
ATOM     25  C   UNL     1       6.624  -8.350  30.870  0.00  0.00    +0.000 A 
ENDBRANCH  15   6
ENDBRANCH   9  15
BRANCH  10  16
ATOM     16  C   UNL     1       4.006  -8.458  37.837  0.00  0.00    +0.124 C 
BRANCH  16   7
ATOM      7  N   UNL     1       5.024  -7.922  36.975  0.00  0.00    -0.188 NA
ATOM     31  H   UNL     1       5.216  -8.426  36.101  0.00  0.00    +0.148 HD
BRANCH   7   2
ATOM      2  S   UNL     1       6.330  -6.998  37.610  0.00  0.00    +0.058 S 
ATOM      3  O   UNL     1       6.907  -7.718  38.729  0.00  0.00    -0.153 OA
ATOM      4  O   UNL     1       5.932  -5.612  37.762  0.00  0.00    -0.153 OA
BRANCH   2  23
ATOM      1 CL   UNL     1      10.422  -7.219  32.853  0.00  0.00    -0.084 Cl
ATOM     23  C   UNL     1       7.482  -7.061  36.271  0.00  0.00    +0.105 A 
ATOM     26  C   UNL     1       8.299  -8.179  36.105  0.00  0.00    +0.030 A 
ATOM     27  C   UNL     1       7.574  -5.992  35.379  0.00  0.00    +0.030 A 
ATOM     28  C   UNL     1       9.208  -8.228  35.048  0.00  0.00    +0.022 A 
ATOM     29  C   UNL     1       8.483  -6.040  34.323  0.00  0.00    +0.022 A 
ATOM     30  C   UNL     1       9.300  -7.159  34.157  0.00  0.00    +0.041 A 
ENDBRANCH   2  23
ENDBRANCH   7   2
ENDBRANCH  16   7
ENDBRANCH  10  16
TORSDOF 6
ENDMDL
MODEL 9
REMARK VINA RESULT:      -6.7     25.436     28.714
REMARK  Name = 40779893
REMARK  6 active torsions:
REMARK  status: ('A' for Active; 'I' for Inactive)
REMARK    1  A    between atoms: S_2  and  N_7
REMARK    2  A    between atoms: S_2  and  C_23
REMARK    3  A    between atoms: N_6  and  C_15
REMARK    4  A    between atoms: N_7  and  C_16
REMARK    5  A    between atoms: C_9  and  C_15
REMARK    6  A    between atoms: C_10  and  C_16
REMARK                            x       y       z     vdW  Elec       q    Type
REMARK                         _______ _______ _______ _____ _____    ______ ____
ROOT
ATOM      5  N   UNL     1      13.465   9.558   6.050  0.00  0.00    -0.298 NA
ATOM      8  C   UNL     1      14.753   7.366   5.499  0.00  0.00    -0.002 C 
ATOM      9  C   UNL     1      14.116   7.968   4.225  0.00  0.00    +0.023 C 
ATOM     10  C   UNL     1      13.016   8.464   6.951  0.00  0.00    +0.072 C 
ATOM     11  C   UNL     1      13.654   7.116   6.548  0.00  0.00    +0.024 C 
ATOM     12  C   UNL     1      13.249   9.181   4.632  0.00  0.00    +0.090 C 
ATOM     13  C   UNL     1      15.697   8.439   6.075  0.00  0.00    +0.019 C 
ATOM     14  C   UNL     1      14.920   9.754   6.259  0.00  0.00    +0.085 C 
ENDROOT
BRANCH   9  15
ATOM     15  C   UNL     1      13.317   6.951   3.414  0.00  0.00    +0.110 C 
BRANCH  15   6
ATOM      6  N   UNL     1      13.849   6.867   2.077  0.00  0.00    -0.329 N 
ATOM     17  C   UNL     1      13.870   8.010   1.166  0.00  0.00    +0.110 C 
ATOM     18  C   UNL     1      13.808   5.724   1.292  0.00  0.00    +0.033 A 
ATOM     19  C   UNL     1      14.346   7.477  -0.200  0.00  0.00    +0.056 C 
ATOM     20  C   UNL     1      14.077   6.014  -0.051  0.00  0.00    -0.025 A 
ATOM     21  C   UNL     1      13.559   4.415   1.677  0.00  0.00    +0.023 A 
ATOM     22  C   UNL     1      14.111   5.030  -1.025  0.00  0.00    +0.005 A 
ATOM     24  C   UNL     1      13.581   3.410   0.704  0.00  0.00    +0.002 A 
ATOM     25  C   UNL     1      13.855   3.716  -0.637  0.00  0.00    +0.000 A 
ENDBRANCH  15   6
ENDBRANCH   9  15
BRANCH  10  16
ATOM     16  C   UNL     1      11.490   8.367   7.036  0.00  0.00    +0.124 C 
BRANCH  16   7
ATOM      7  N   UNL     1      11.113   7.041   7.445  0.00  0.00    -0.188 NA
ATOM     31  H   UNL     1      11.867   6.359   7.587  0.00  0.00    +0.148 HD
BRANCH   7   2
ATOM      2  S   UNL     1       9.578   6.385   7.027  0.00  0.00    +0.058 S 
ATOM      3  O   UNL     1       8.566   7.404   7.231  0.00  0.00    -0.153 OA
ATOM      4  O   UNL     1       9.420   5.071   7.621  0.00  0.00    -0.153 OA
BRANCH   2  23
ATOM      1 CL   UNL     1      10.247   5.533   0.843  0.00  0.00    -0.084 Cl
ATOM     23  C   UNL     1       9.766   6.145   5.286  0.00  0.00    +0.105 A 
ATOM     26  C   UNL     1      10.327   4.963   4.801  0.00  0.00    +0.030 A 
ATOM     27  C   UNL     1       9.354   7.137   4.397  0.00  0.00    +0.030 A 
ATOM     28  C   UNL     1      10.475   4.773   3.428  0.00  0.00    +0.022 A 
ATOM     29  C   UNL     1       9.503   6.949   3.023  0.00  0.00    +0.022 A 
ATOM     30  C   UNL     1      10.063   5.766   2.538  0.00  0.00    +0.041 A 
ENDBRANCH   2  23
ENDBRANCH   7   2
ENDBRANCH  16   7
ENDBRANCH  10  16
TORSDOF 6
ENDMDL
MODEL 10
REMARK VINA RESULT:      -6.7     25.401     28.802
REMARK  Name = 40779893
REMARK  6 active torsions:
REMARK  status: ('A' for Active; 'I' for Inactive)
REMARK    1  A    between atoms: S_2  and  N_7
REMARK    2  A    between atoms: S_2  and  C_23
REMARK    3  A    between atoms: N_6  and  C_15
REMARK    4  A    between atoms: N_7  and  C_16
REMARK    5  A    between atoms: C_9  and  C_15
REMARK    6  A    between atoms: C_10  and  C_16
REMARK                            x       y       z     vdW  Elec       q    Type
REMARK                         _______ _______ _______ _____ _____    ______ ____
ROOT
ATOM      5  N   UNL     1      14.730   6.424   0.139  0.00  0.00    -0.298 NA
ATOM      8  C   UNL     1      14.863   3.832   0.313  0.00  0.00    -0.002 C 
ATOM      9  C   UNL     1      13.727   4.263  -0.643  0.00  0.00    +0.023 C 
ATOM     10  C   UNL     1      14.708   6.008   1.566  0.00  0.00    +0.072 C 
ATOM     11  C   UNL     1      14.635   4.470   1.696  0.00  0.00    +0.024 C 
ATOM     12  C   UNL     1      13.601   5.803  -0.596  0.00  0.00    +0.090 C 
ATOM     13  C   UNL     1      16.169   4.420  -0.251  0.00  0.00    +0.019 C 
ATOM     14  C   UNL     1      15.996   5.935  -0.460  0.00  0.00    +0.085 C 
ENDROOT
BRANCH   9  15
ATOM     15  C   UNL     1      12.395   3.580  -0.343  0.00  0.00    +0.110 C 
BRANCH  15   6
ATOM      6  N   UNL     1      11.681   3.343  -1.573  0.00  0.00    -0.329 N 
ATOM     17  C   UNL     1      12.308   2.723  -2.739  0.00  0.00    +0.110 C 
ATOM     18  C   UNL     1      10.654   4.147  -2.045  0.00  0.00    +0.033 A 
ATOM     19  C   UNL     1      11.283   2.806  -3.887  0.00  0.00    +0.056 C 
ATOM     20  C   UNL     1      10.381   3.892  -3.394  0.00  0.00    -0.025 A 
ATOM     21  C   UNL     1       9.914   5.100  -1.361  0.00  0.00    +0.023 A 
ATOM     22  C   UNL     1       9.383   4.559  -4.083  0.00  0.00    +0.005 A 
ATOM     24  C   UNL     1       8.907   5.790  -2.045  0.00  0.00    +0.002 A 
ATOM     25  C   UNL     1       8.643   5.520  -3.396  0.00  0.00    +0.000 A 
ENDBRANCH  15   6
ENDBRANCH   9  15
BRANCH  10  16
ATOM     16  C   UNL     1      13.595   6.698   2.359  0.00  0.00    +0.124 C 
BRANCH  16   7
ATOM      7  N   UNL     1      12.909   5.730   3.172  0.00  0.00    -0.188 NA
ATOM     31  H   UNL     1      13.468   4.964   3.564  0.00  0.00    +0.148 HD
BRANCH   7   2
ATOM      2  S   UNL     1      11.238   5.395   2.934  0.00  0.00    +0.058 S 
ATOM      3  O   UNL     1      11.056   3.957   2.875  0.00  0.00    -0.153 OA
ATOM      4  O   UNL     1      10.705   6.240   1.882  0.00  0.00    -0.153 OA
BRANCH   2  23
ATOM      1 CL   UNL     1       8.791   7.435   8.344  0.00  0.00    -0.084 Cl
ATOM     23  C   UNL     1      10.549   5.969   4.457  0.00  0.00    +0.105 A 
ATOM     26  C   UNL     1      11.387   6.291   5.525  0.00  0.00    +0.030 A 
ATOM     27  C   UNL     1       9.167   6.102   4.591  0.00  0.00    +0.030 A 
ATOM     28  C   UNL     1      10.844   6.744   6.726  0.00  0.00    +0.022 A 
ATOM     29  C   UNL     1       8.623   6.554   5.793  0.00  0.00    +0.022 A 
ATOM     30  C   UNL     1       9.462   6.876   6.860  0.00  0.00    +0.041 A 
ENDBRANCH   2  23
ENDBRANCH   7   2
ENDBRANCH  16   7
ENDBRANCH  10  16
TORSDOF 6
ENDMDL
