REMARK  Name = 28962427
REMARK  10 active torsions:
REMARK  status: ('A' for Active; 'I' for Inactive)
REMARK    1  A    between atoms: O_2  and  C_10
REMARK    2  A    between atoms: N_5  and  C_14
REMARK    3  A    between atoms: N_6  and  C_24
REMARK    4  A    between atoms: C_7  and  C_17
REMARK    5  A    between atoms: C_9  and  C_19
REMARK    6  A    between atoms: C_13  and  C_18
REMARK    7  A    between atoms: C_18  and  C_20
REMARK    8  A    between atoms: C_18  and  C_21
REMARK    9  A    between atoms: C_22  and  C_23
REMARK   10  A    between atoms: C_24  and  C_25
REMARK                            x       y       z     vdW  Elec       q    Type
REMARK                         _______ _______ _______ _____ _____    ______ ____
ROOT
ATOM      7  C   UNL     1      -1.546   0.383   1.233  0.00  0.00    -0.027 C 
ATOM      8  C   UNL     1      -1.877  -0.448  -0.051  0.00  0.00    +0.028 C 
ATOM      9  C   UNL     1      -3.413  -0.767  -0.130  0.00  0.00    +0.012 C 
ATOM     10  C   UNL     1      -0.932  -1.677  -0.188  0.00  0.00    +0.122 C 
ATOM     11  C   UNL     1      -0.050   0.775   1.221  0.00  0.00    +0.007 C 
ATOM     12  C   UNL     1      -2.375   1.688   1.217  0.00  0.00    +0.009 C 
ATOM     13  C   UNL     1       0.563  -1.290  -0.094  0.00  0.00    +0.029 C 
ATOM     14  C   UNL     1      -4.240   0.548  -0.069  0.00  0.00    +0.076 C 
ATOM     15  C   UNL     1       0.880  -0.427   1.127  0.00  0.00    +0.007 C 
ATOM     16  C   UNL     1      -3.873   1.442   1.115  0.00  0.00    +0.023 C 
ATOM     17  C   UNL     1      -1.846  -0.397   2.538  0.00  0.00    +0.011 C 
ATOM     19  C   UNL     1      -3.815  -1.560  -1.385  0.00  0.00    +0.010 C 
ENDROOT
BRANCH  14   5
ATOM      4  O   UNL     1      -6.373   2.178  -1.175  0.00  0.00    -0.276 OA
ATOM      5  N   UNL     1      -5.663   0.285  -0.022  0.00  0.00    -0.312 N 
ATOM     22  C   UNL     1      -6.605   1.128  -0.582  0.00  0.00    +0.210 C 
ATOM     23  C   UNL     1      -8.007   0.606  -0.412  0.00  0.00    +0.109 C 
ATOM     31  H   UNL     1      -5.979  -0.529   0.498  0.00  0.00    +0.149 HD
ENDBRANCH  14   5
BRANCH  10   2
ATOM      2  O   UNL     1      -1.117  -2.281  -1.468  0.00  0.00    -0.391 OA
ATOM     32  H   UNL     1      -0.911  -1.619  -2.149  0.00  0.00    +0.210 HD
ENDBRANCH  10   2
BRANCH  13  18
ATOM     18  C   UNL     1       1.471  -2.525  -0.099  0.00  0.00    +0.077 C 
ATOM     20  C   UNL     1       1.133  -3.431   1.080  0.00  0.00    +0.017 C 
BRANCH  18  21
ATOM      3  O   UNL     1       3.709  -2.439   0.823  0.00  0.00    -0.276 OA
ATOM      6  N   UNL     1       3.273  -1.283  -1.140  0.00  0.00    -0.311 N 
ATOM     21  C   UNL     1       2.934  -2.094  -0.067  0.00  0.00    +0.216 C 
ATOM     33  H   UNL     1       2.589  -1.086  -1.863  0.00  0.00    +0.149 HD
BRANCH   6  24
ATOM     24  C   UNL     1       4.602  -0.748  -1.325  0.00  0.00    +0.141 C 
BRANCH  24  25
ATOM      1 CL   UNL     1       3.315   1.765  -2.572  0.00  0.00    -0.083 Cl
ATOM     25  C   UNL     1       4.784   0.563  -0.617  0.00  0.00    -0.012 A 
ATOM     26  C   UNL     1       4.236   1.746  -1.112  0.00  0.00    +0.046 A 
ATOM     27  C   UNL     1       5.524   0.579   0.566  0.00  0.00    +0.006 A 
ATOM     28  C   UNL     1       4.427   2.945  -0.425  0.00  0.00    +0.020 A 
ATOM     29  C   UNL     1       5.714   1.778   1.253  0.00  0.00    +0.000 A 
ATOM     30  C   UNL     1       5.166   2.961   0.758  0.00  0.00    +0.001 A 
ENDBRANCH  24  25
ENDBRANCH   6  24
ENDBRANCH  18  21
ENDBRANCH  13  18
TORSDOF 6
