MODEL 1
REMARK VINA RESULT:      -6.7      0.000      0.000
REMARK  Name = 45783775
REMARK  6 active torsions:
REMARK  status: ('A' for Active; 'I' for Inactive)
REMARK    1  A    between atoms: N_2  and  C_8
REMARK    2  A    between atoms: N_3  and  C_18
REMARK    3  A    between atoms: N_7  and  C_24
REMARK    4  A    between atoms: N_7  and  C_25
REMARK    5  A    between atoms: C_9  and  C_17
REMARK    6  A    between atoms: C_19  and  C_20
REMARK                            x       y       z     vdW  Elec       q    Type
REMARK                         _______ _______ _______ _____ _____    ______ ____
ROOT
ATOM      1  O   UNL     1      12.017   7.339  18.633  0.00  0.00    -0.336 OA
ATOM      4  N   UNL     1      13.497   8.983  18.989  0.00  0.00    -0.190 NA
ATOM      5  N   UNL     1      12.496   7.712  17.371  0.00  0.00    -0.056 NA
ATOM     17  C   UNL     1      12.656   8.137  19.529  0.00  0.00    +0.245 A 
ATOM     19  C   UNL     1      13.364   8.686  17.664  0.00  0.00    +0.204 A 
ENDROOT
BRANCH  19  20
ATOM      6  N   UNL     1      15.120   9.374  14.459  0.00  0.00    -0.240 NA
ATOM     20  C   UNL     1      14.112   9.380  16.658  0.00  0.00    +0.041 A 
ATOM     21  C   UNL     1      14.554  10.683  16.864  0.00  0.00    +0.016 A 
ATOM     22  C   UNL     1      14.419   8.776  15.448  0.00  0.00    +0.124 A 
ATOM     23  C   UNL     1      15.278  11.331  15.870  0.00  0.00    +0.044 A 
ATOM     24  C   UNL     1      15.532  10.640  14.696  0.00  0.00    +0.118 A 
BRANCH  24   7
ATOM      7  N   UNL     1      16.270  11.315  13.692  0.00  0.00    -0.332 N 
ATOM     25  C   UNL     1      15.661  11.851  12.518  0.00  0.00    +0.127 C 
ATOM     26  H   UNL     1      17.211  11.608  13.928  0.00  0.00    +0.147 HD
ENDBRANCH  24   7
ENDBRANCH  19  20
BRANCH  17   9
ATOM      2  N   UNL     1      11.267   8.862  21.462  0.00  0.00    -0.288 NA
ATOM      9  C   UNL     1      12.307   7.928  20.988  0.00  0.00    +0.146 C 
ATOM     10  C   UNL     1      10.543   8.169  22.528  0.00  0.00    +0.085 C 
ATOM     13  C   UNL     1      11.731   6.527  21.266  0.00  0.00    +0.030 C 
ATOM     14  C   UNL     1      10.395   6.775  21.951  0.00  0.00    +0.017 C 
BRANCH   2   8
ATOM      3  N   UNL     1      12.931  11.802  24.042  0.00  0.00    -0.305 NA
ATOM      8  C   UNL     1      11.805  10.145  21.908  0.00  0.00    +0.060 C 
ATOM     11  C   UNL     1      13.244   9.975  22.401  0.00  0.00    +0.034 C 
ATOM     12  C   UNL     1      10.939  10.745  23.021  0.00  0.00    +0.034 C 
ATOM     15  C   UNL     1      13.789  11.289  22.965  0.00  0.00    +0.085 C 
ATOM     16  C   UNL     1      11.561  12.033  23.565  0.00  0.00    +0.085 C 
ATOM     18  C   UNL     1      13.493  13.029  24.604  0.00  0.00    +0.104 C 
ENDBRANCH   2   8
ENDBRANCH  17   9
TORSDOF 4
ENDMDL
MODEL 2
REMARK VINA RESULT:      -6.7      4.435      6.485
REMARK  Name = 45783775
REMARK  6 active torsions:
REMARK  status: ('A' for Active; 'I' for Inactive)
REMARK    1  A    between atoms: N_2  and  C_8
REMARK    2  A    between atoms: N_3  and  C_18
REMARK    3  A    between atoms: N_7  and  C_24
REMARK    4  A    between atoms: N_7  and  C_25
REMARK    5  A    between atoms: C_9  and  C_17
REMARK    6  A    between atoms: C_19  and  C_20
REMARK                            x       y       z     vdW  Elec       q    Type
REMARK                         _______ _______ _______ _____ _____    ______ ____
ROOT
ATOM      1  O   UNL     1      15.189   9.768  21.704  0.00  0.00    -0.336 OA
ATOM      4  N   UNL     1      15.212   7.974  20.363  0.00  0.00    -0.190 NA
ATOM      5  N   UNL     1      16.480   9.232  21.793  0.00  0.00    -0.056 NA
ATOM     17  C   UNL     1      14.507   8.967  20.843  0.00  0.00    +0.245 A 
ATOM     19  C   UNL     1      16.415   8.177  20.974  0.00  0.00    +0.204 A 
ENDROOT
BRANCH  19  20
ATOM      6  N   UNL     1      18.475   5.422  19.563  0.00  0.00    -0.240 NA
ATOM     20  C   UNL     1      17.532   7.308  20.746  0.00  0.00    +0.041 A 
ATOM     21  C   UNL     1      18.723   7.476  21.444  0.00  0.00    +0.016 A 
ATOM     22  C   UNL     1      17.460   6.275  19.825  0.00  0.00    +0.124 A 
ATOM     23  C   UNL     1      19.791   6.617  21.202  0.00  0.00    +0.044 A 
ATOM     24  C   UNL     1      19.618   5.616  20.260  0.00  0.00    +0.118 A 
BRANCH  24   7
ATOM      7  N   UNL     1      20.714   4.751  20.024  0.00  0.00    -0.332 N 
ATOM     25  C   UNL     1      21.249   3.892  21.030  0.00  0.00    +0.127 C 
ATOM     26  H   UNL     1      20.974   4.587  19.057  0.00  0.00    +0.147 HD
ENDBRANCH  24   7
ENDBRANCH  19  20
BRANCH  17   9
ATOM      2  N   UNL     1      12.493   8.605  19.428  0.00  0.00    -0.288 NA
ATOM      9  C   UNL     1      13.064   9.340  20.574  0.00  0.00    +0.146 C 
ATOM     10  C   UNL     1      11.058   8.481  19.689  0.00  0.00    +0.085 C 
ATOM     13  C   UNL     1      12.134   9.008  21.755  0.00  0.00    +0.030 C 
ATOM     14  C   UNL     1      11.038   8.132  21.164  0.00  0.00    +0.017 C 
BRANCH   2   8
ATOM      3  N   UNL     1      14.692  10.240  16.179  0.00  0.00    -0.305 NA
ATOM      8  C   UNL     1      12.763   9.242  18.142  0.00  0.00    +0.060 C 
ATOM     11  C   UNL     1      13.576   8.305  17.246  0.00  0.00    +0.034 C 
ATOM     12  C   UNL     1      13.515  10.564  18.332  0.00  0.00    +0.034 C 
ATOM     15  C   UNL     1      13.956   8.993  15.932  0.00  0.00    +0.085 C 
ATOM     16  C   UNL     1      13.896  11.178  16.983  0.00  0.00    +0.085 C 
ATOM     18  C   UNL     1      15.091  10.859  14.916  0.00  0.00    +0.104 C 
ENDBRANCH   2   8
ENDBRANCH  17   9
TORSDOF 4
ENDMDL
MODEL 3
REMARK VINA RESULT:      -6.6     27.710     30.442
REMARK  Name = 45783775
REMARK  6 active torsions:
REMARK  status: ('A' for Active; 'I' for Inactive)
REMARK    1  A    between atoms: N_2  and  C_8
REMARK    2  A    between atoms: N_3  and  C_18
REMARK    3  A    between atoms: N_7  and  C_24
REMARK    4  A    between atoms: N_7  and  C_25
REMARK    5  A    between atoms: C_9  and  C_17
REMARK    6  A    between atoms: C_19  and  C_20
REMARK                            x       y       z     vdW  Elec       q    Type
REMARK                         _______ _______ _______ _____ _____    ______ ____
ROOT
ATOM      1  O   UNL     1     -14.315   5.370  34.174  0.00  0.00    -0.336 OA
ATOM      4  N   UNL     1     -14.545   5.065  31.967  0.00  0.00    -0.190 NA
ATOM      5  N   UNL     1     -14.219   3.989  33.960  0.00  0.00    -0.056 NA
ATOM     17  C   UNL     1     -14.508   5.929  32.950  0.00  0.00    +0.245 A 
ATOM     19  C   UNL     1     -14.364   3.889  32.635  0.00  0.00    +0.204 A 
ENDROOT
BRANCH  19  20
ATOM      6  N   UNL     1     -13.684   1.354  30.001  0.00  0.00    -0.240 NA
ATOM     20  C   UNL     1     -14.334   2.630  31.949  0.00  0.00    +0.041 A 
ATOM     21  C   UNL     1     -14.894   1.491  32.518  0.00  0.00    +0.016 A 
ATOM     22  C   UNL     1     -13.746   2.509  30.699  0.00  0.00    +0.124 A 
ATOM     23  C   UNL     1     -14.849   0.284  31.829  0.00  0.00    +0.044 A 
ATOM     24  C   UNL     1     -14.238   0.268  30.585  0.00  0.00    +0.118 A 
BRANCH  24   7
ATOM      7  N   UNL     1     -14.200  -0.970  29.897  0.00  0.00    -0.332 N 
ATOM     25  C   UNL     1     -13.083  -1.378  29.107  0.00  0.00    +0.127 C 
ATOM     26  H   UNL     1     -14.891  -1.665  30.156  0.00  0.00    +0.147 HD
ENDBRANCH  24   7
ENDBRANCH  19  20
BRANCH  17   9
ATOM      2  N   UNL     1     -13.611   8.078  32.073  0.00  0.00    -0.288 NA
ATOM      9  C   UNL     1     -14.644   7.436  32.911  0.00  0.00    +0.146 C 
ATOM     10  C   UNL     1     -14.208   9.305  31.547  0.00  0.00    +0.085 C 
ATOM     13  C   UNL     1     -15.982   7.896  32.301  0.00  0.00    +0.030 C 
ATOM     14  C   UNL     1     -15.600   8.838  31.169  0.00  0.00    +0.017 C 
BRANCH   2   8
ATOM      3  N   UNL     1     -10.550  10.237  34.082  0.00  0.00    -0.305 NA
ATOM      8  C   UNL     1     -12.366   8.338  32.793  0.00  0.00    +0.060 C 
ATOM     11  C   UNL     1     -12.664   8.952  34.163  0.00  0.00    +0.034 C 
ATOM     12  C   UNL     1     -11.454   9.271  31.990  0.00  0.00    +0.034 C 
ATOM     15  C   UNL     1     -11.370   9.324  34.891  0.00  0.00    +0.085 C 
ATOM     16  C   UNL     1     -10.200   9.633  32.790  0.00  0.00    +0.085 C 
ATOM     18  C   UNL     1      -9.343  10.623  34.811  0.00  0.00    +0.104 C 
ENDBRANCH   2   8
ENDBRANCH  17   9
TORSDOF 4
ENDMDL
MODEL 4
REMARK VINA RESULT:      -6.6      5.698      7.617
REMARK  Name = 45783775
REMARK  6 active torsions:
REMARK  status: ('A' for Active; 'I' for Inactive)
REMARK    1  A    between atoms: N_2  and  C_8
REMARK    2  A    between atoms: N_3  and  C_18
REMARK    3  A    between atoms: N_7  and  C_24
REMARK    4  A    between atoms: N_7  and  C_25
REMARK    5  A    between atoms: C_9  and  C_17
REMARK    6  A    between atoms: C_19  and  C_20
REMARK                            x       y       z     vdW  Elec       q    Type
REMARK                         _______ _______ _______ _____ _____    ______ ____
ROOT
ATOM      1  O   UNL     1      16.806   9.206  21.623  0.00  0.00    -0.336 OA
ATOM      4  N   UNL     1      16.869   7.053  21.007  0.00  0.00    -0.190 NA
ATOM      5  N   UNL     1      18.111   8.765  21.880  0.00  0.00    -0.056 NA
ATOM     17  C   UNL     1      16.141   8.136  21.113  0.00  0.00    +0.245 A 
ATOM     19  C   UNL     1      18.069   7.487  21.490  0.00  0.00    +0.204 A 
ENDROOT
BRANCH  19  20
ATOM      6  N   UNL     1      21.039   5.729  22.875  0.00  0.00    -0.240 NA
ATOM     20  C   UNL     1      19.207   6.619  21.571  0.00  0.00    +0.041 A 
ATOM     21  C   UNL     1      19.594   5.842  20.484  0.00  0.00    +0.016 A 
ATOM     22  C   UNL     1      19.957   6.526  22.733  0.00  0.00    +0.124 A 
ATOM     23  C   UNL     1      20.702   5.009  20.592  0.00  0.00    +0.044 A 
ATOM     24  C   UNL     1      21.384   4.988  21.798  0.00  0.00    +0.118 A 
BRANCH  24   7
ATOM      7  N   UNL     1      22.510   4.133  21.892  0.00  0.00    -0.332 N 
ATOM     25  C   UNL     1      23.451   3.979  20.831  0.00  0.00    +0.127 C 
ATOM     26  H   UNL     1      22.761   3.800  22.816  0.00  0.00    +0.147 HD
ENDBRANCH  24   7
ENDBRANCH  19  20
BRANCH  17   9
ATOM      2  N   UNL     1      14.315   7.696  19.481  0.00  0.00    -0.288 NA
ATOM      9  C   UNL     1      14.688   8.357  20.747  0.00  0.00    +0.146 C 
ATOM     10  C   UNL     1      12.894   7.367  19.589  0.00  0.00    +0.085 C 
ATOM     13  C   UNL     1      13.718   7.776  21.792  0.00  0.00    +0.030 C 
ATOM     14  C   UNL     1      12.801   6.847  21.011  0.00  0.00    +0.017 C 
BRANCH   2   8
ATOM      3  N   UNL     1      13.667  10.319  16.199  0.00  0.00    -0.305 NA
ATOM      8  C   UNL     1      14.602   8.509  18.301  0.00  0.00    +0.060 C 
ATOM     11  C   UNL     1      14.272   9.978  18.576  0.00  0.00    +0.034 C 
ATOM     12  C   UNL     1      13.807   8.013  17.089  0.00  0.00    +0.034 C 
ATOM     15  C   UNL     1      14.471  10.829  17.319  0.00  0.00    +0.085 C 
ATOM     16  C   UNL     1      14.021   8.930  15.881  0.00  0.00    +0.085 C 
ATOM     18  C   UNL     1      13.828  11.172  15.023  0.00  0.00    +0.104 C 
ENDBRANCH   2   8
ENDBRANCH  17   9
TORSDOF 4
ENDMDL
MODEL 5
REMARK VINA RESULT:      -6.4      3.397      4.712
REMARK  Name = 45783775
REMARK  6 active torsions:
REMARK  status: ('A' for Active; 'I' for Inactive)
REMARK    1  A    between atoms: N_2  and  C_8
REMARK    2  A    between atoms: N_3  and  C_18
REMARK    3  A    between atoms: N_7  and  C_24
REMARK    4  A    between atoms: N_7  and  C_25
REMARK    5  A    between atoms: C_9  and  C_17
REMARK    6  A    between atoms: C_19  and  C_20
REMARK                            x       y       z     vdW  Elec       q    Type
REMARK                         _______ _______ _______ _____ _____    ______ ____
ROOT
ATOM      1  O   UNL     1      13.566   7.673  16.465  0.00  0.00    -0.336 OA
ATOM      4  N   UNL     1      14.454   9.460  17.483  0.00  0.00    -0.190 NA
ATOM      5  N   UNL     1      13.645   8.676  15.491  0.00  0.00    -0.056 NA
ATOM     17  C   UNL     1      14.061   8.217  17.608  0.00  0.00    +0.245 A 
ATOM     19  C   UNL     1      14.179   9.698  16.168  0.00  0.00    +0.204 A 
ENDROOT
BRANCH  19  20
ATOM      6  N   UNL     1      15.844  12.938  15.421  0.00  0.00    -0.240 NA
ATOM     20  C   UNL     1      14.449  10.968  15.560  0.00  0.00    +0.041 A 
ATOM     21  C   UNL     1      13.628  11.470  14.556  0.00  0.00    +0.016 A 
ATOM     22  C   UNL     1      15.535  11.735  15.953  0.00  0.00    +0.124 A 
ATOM     23  C   UNL     1      13.914  12.706  13.984  0.00  0.00    +0.044 A 
ATOM     24  C   UNL     1      15.024  13.394  14.448  0.00  0.00    +0.118 A 
BRANCH  24   7
ATOM      7  N   UNL     1      15.304  14.650  13.855  0.00  0.00    -0.332 N 
ATOM     25  C   UNL     1      14.343  15.366  13.080  0.00  0.00    +0.127 C 
ATOM     26  H   UNL     1      16.131  15.139  14.177  0.00  0.00    +0.147 HD
ENDBRANCH  24   7
ENDBRANCH  19  20
BRANCH  17   9
ATOM      2  N   UNL     1      14.759   7.948  19.981  0.00  0.00    -0.288 NA
ATOM      9  C   UNL     1      14.085   7.320  18.828  0.00  0.00    +0.146 C 
ATOM     10  C   UNL     1      14.139   7.386  21.180  0.00  0.00    +0.085 C 
ATOM     13  C   UNL     1      12.674   6.977  19.341  0.00  0.00    +0.030 C 
ATOM     14  C   UNL     1      12.670   7.392  20.805  0.00  0.00    +0.017 C 
BRANCH   2   8
ATOM      3  N   UNL     1      18.582   6.415  21.036  0.00  0.00    -0.305 NA
ATOM      8  C   UNL     1      16.209   7.759  19.973  0.00  0.00    +0.060 C 
ATOM     11  C   UNL     1      16.553   6.310  19.621  0.00  0.00    +0.034 C 
ATOM     12  C   UNL     1      16.816   8.125  21.331  0.00  0.00    +0.034 C 
ATOM     15  C   UNL     1      18.062   6.068  19.706  0.00  0.00    +0.085 C 
ATOM     16  C   UNL     1      18.317   7.823  21.359  0.00  0.00    +0.085 C 
ATOM     18  C   UNL     1      20.013   6.131  21.117  0.00  0.00    +0.104 C 
ENDBRANCH   2   8
ENDBRANCH  17   9
TORSDOF 4
ENDMDL
MODEL 6
REMARK VINA RESULT:      -6.4     26.286     29.467
REMARK  Name = 45783775
REMARK  6 active torsions:
REMARK  status: ('A' for Active; 'I' for Inactive)
REMARK    1  A    between atoms: N_2  and  C_8
REMARK    2  A    between atoms: N_3  and  C_18
REMARK    3  A    between atoms: N_7  and  C_24
REMARK    4  A    between atoms: N_7  and  C_25
REMARK    5  A    between atoms: C_9  and  C_17
REMARK    6  A    between atoms: C_19  and  C_20
REMARK                            x       y       z     vdW  Elec       q    Type
REMARK                         _______ _______ _______ _____ _____    ______ ____
ROOT
ATOM      1  O   UNL     1      -9.343 -11.370  17.246  0.00  0.00    -0.336 OA
ATOM      4  N   UNL     1      -7.897  -9.725  17.718  0.00  0.00    -0.190 NA
ATOM      5  N   UNL     1      -8.071 -11.873  16.948  0.00  0.00    -0.056 NA
ATOM     17  C   UNL     1      -9.151 -10.100  17.692  0.00  0.00    +0.245 A 
ATOM     19  C   UNL     1      -7.272 -10.845  17.252  0.00  0.00    +0.204 A 
ENDROOT
BRANCH  19  20
ATOM      6  N   UNL     1      -3.901 -10.586  15.702  0.00  0.00    -0.240 NA
ATOM     20  C   UNL     1      -5.847 -10.906  17.102  0.00  0.00    +0.041 A 
ATOM     21  C   UNL     1      -5.034 -11.321  18.151  0.00  0.00    +0.016 A 
ATOM     22  C   UNL     1      -5.237 -10.552  15.909  0.00  0.00    +0.124 A 
ATOM     23  C   UNL     1      -3.655 -11.370  17.976  0.00  0.00    +0.044 A 
ATOM     24  C   UNL     1      -3.143 -10.995  16.744  0.00  0.00    +0.118 A 
BRANCH  24   7
ATOM      7  N   UNL     1      -1.736 -11.049  16.582  0.00  0.00    -0.332 N 
ATOM     25  C   UNL     1      -1.034 -10.212  15.664  0.00  0.00    +0.127 C 
ATOM     26  H   UNL     1      -1.207 -11.539  17.295  0.00  0.00    +0.147 HD
ENDBRANCH  24   7
ENDBRANCH  19  20
BRANCH  17   9
ATOM      2  N   UNL     1     -11.471  -9.437  17.084  0.00  0.00    -0.288 NA
ATOM      9  C   UNL     1     -10.393  -9.328  18.087  0.00  0.00    +0.146 C 
ATOM     10  C   UNL     1     -12.731  -9.309  17.815  0.00  0.00    +0.085 C 
ATOM     13  C   UNL     1     -11.022  -9.844  19.394  0.00  0.00    +0.030 C 
ATOM     14  C   UNL     1     -12.469 -10.159  19.042  0.00  0.00    +0.017 C 
BRANCH   2   8
ATOM      3  N   UNL     1     -12.317  -6.009  14.717  0.00  0.00    -0.305 NA
ATOM      8  C   UNL     1     -11.358  -8.454  16.008  0.00  0.00    +0.060 C 
ATOM     11  C   UNL     1     -11.084  -7.064  16.586  0.00  0.00    +0.034 C 
ATOM     12  C   UNL     1     -12.632  -8.424  15.157  0.00  0.00    +0.034 C 
ATOM     15  C   UNL     1     -11.062  -6.005  15.482  0.00  0.00    +0.085 C 
ATOM     16  C   UNL     1     -12.559  -7.320  14.100  0.00  0.00    +0.085 C 
ATOM     18  C   UNL     1     -12.301  -4.959  13.700  0.00  0.00    +0.104 C 
ENDBRANCH   2   8
ENDBRANCH  17   9
TORSDOF 4
ENDMDL
MODEL 7
REMARK VINA RESULT:      -6.3     27.052     28.220
REMARK  Name = 45783775
REMARK  6 active torsions:
REMARK  status: ('A' for Active; 'I' for Inactive)
REMARK    1  A    between atoms: N_2  and  C_8
REMARK    2  A    between atoms: N_3  and  C_18
REMARK    3  A    between atoms: N_7  and  C_24
REMARK    4  A    between atoms: N_7  and  C_25
REMARK    5  A    between atoms: C_9  and  C_17
REMARK    6  A    between atoms: C_19  and  C_20
REMARK                            x       y       z     vdW  Elec       q    Type
REMARK                         _______ _______ _______ _____ _____    ______ ____
ROOT
ATOM      1  O   UNL     1      -3.391 -11.487  15.444  0.00  0.00    -0.336 OA
ATOM      4  N   UNL     1      -5.041 -10.223  14.607  0.00  0.00    -0.190 NA
ATOM      5  N   UNL     1      -3.124 -11.354  14.075  0.00  0.00    -0.056 NA
ATOM     17  C   UNL     1      -4.537 -10.793  15.673  0.00  0.00    +0.245 A 
ATOM     19  C   UNL     1      -4.140 -10.596  13.652  0.00  0.00    +0.204 A 
ENDROOT
BRANCH  19  20
ATOM      6  N   UNL     1      -5.727  -9.461  10.486  0.00  0.00    -0.240 NA
ATOM     20  C   UNL     1      -4.285 -10.194  12.284  0.00  0.00    +0.041 A 
ATOM     21  C   UNL     1      -3.185 -10.138  11.434  0.00  0.00    +0.016 A 
ATOM     22  C   UNL     1      -5.523  -9.849  11.765  0.00  0.00    +0.124 A 
ATOM     23  C   UNL     1      -3.356  -9.745  10.111  0.00  0.00    +0.044 A 
ATOM     24  C   UNL     1      -4.635  -9.419   9.690  0.00  0.00    +0.118 A 
BRANCH  24   7
ATOM      7  N   UNL     1      -4.792  -9.019   8.340  0.00  0.00    -0.332 N 
ATOM     25  C   UNL     1      -5.510  -9.798   7.384  0.00  0.00    +0.127 C 
ATOM     26  H   UNL     1      -4.574  -8.054   8.115  0.00  0.00    +0.147 HD
ENDBRANCH  24   7
ENDBRANCH  19  20
BRANCH  17   9
ATOM      2  N   UNL     1      -6.221 -11.655  17.290  0.00  0.00    -0.288 NA
ATOM      9  C   UNL     1      -5.045 -10.783  17.100  0.00  0.00    +0.146 C 
ATOM     10  C   UNL     1      -6.176 -12.114  18.678  0.00  0.00    +0.085 C 
ATOM     13  C   UNL     1      -4.003 -11.307  18.105  0.00  0.00    +0.030 C 
ATOM     14  C   UNL     1      -4.704 -12.431  18.855  0.00  0.00    +0.017 C 
BRANCH   2   8
ATOM      3  N   UNL     1      -9.886  -9.579  17.865  0.00  0.00    -0.305 NA
ATOM      8  C   UNL     1      -7.485 -10.994  16.971  0.00  0.00    +0.060 C 
ATOM     11  C   UNL     1      -7.450  -9.533  17.426  0.00  0.00    +0.034 C 
ATOM     12  C   UNL     1      -8.663 -11.718  17.630  0.00  0.00    +0.034 C 
ATOM     15  C   UNL     1      -8.800  -8.853  17.191  0.00  0.00    +0.085 C 
ATOM     16  C   UNL     1      -9.974 -10.965  17.389  0.00  0.00    +0.085 C 
ATOM     18  C   UNL     1     -11.160  -8.889  17.674  0.00  0.00    +0.104 C 
ENDBRANCH   2   8
ENDBRANCH  17   9
TORSDOF 4
ENDMDL
MODEL 8
REMARK VINA RESULT:      -6.3      5.423      6.766
REMARK  Name = 45783775
REMARK  6 active torsions:
REMARK  status: ('A' for Active; 'I' for Inactive)
REMARK    1  A    between atoms: N_2  and  C_8
REMARK    2  A    between atoms: N_3  and  C_18
REMARK    3  A    between atoms: N_7  and  C_24
REMARK    4  A    between atoms: N_7  and  C_25
REMARK    5  A    between atoms: C_9  and  C_17
REMARK    6  A    between atoms: C_19  and  C_20
REMARK                            x       y       z     vdW  Elec       q    Type
REMARK                         _______ _______ _______ _____ _____    ______ ____
ROOT
ATOM      1  O   UNL     1      16.472   9.129  20.395  0.00  0.00    -0.336 OA
ATOM      4  N   UNL     1      16.654   6.896  20.396  0.00  0.00    -0.190 NA
ATOM      5  N   UNL     1      17.759   8.843  20.869  0.00  0.00    -0.056 NA
ATOM     17  C   UNL     1      15.889   7.928  20.142  0.00  0.00    +0.245 A 
ATOM     19  C   UNL     1      17.791   7.507  20.840  0.00  0.00    +0.204 A 
ENDROOT
BRANCH  19  20
ATOM      6  N   UNL     1      20.549   6.209  22.969  0.00  0.00    -0.240 NA
ATOM     20  C   UNL     1      18.940   6.754  21.248  0.00  0.00    +0.041 A 
ATOM     21  C   UNL     1      19.561   5.865  20.377  0.00  0.00    +0.016 A 
ATOM     22  C   UNL     1      19.469   6.888  22.523  0.00  0.00    +0.124 A 
ATOM     23  C   UNL     1      20.675   5.148  20.800  0.00  0.00    +0.044 A 
ATOM     24  C   UNL     1      21.126   5.354  22.094  0.00  0.00    +0.118 A 
BRANCH  24   7
ATOM      7  N   UNL     1      22.260   4.615  22.511  0.00  0.00    -0.332 N 
ATOM     25  C   UNL     1      22.381   3.208  22.307  0.00  0.00    +0.127 C 
ATOM     26  H   UNL     1      23.090   5.143  22.760  0.00  0.00    +0.147 HD
ENDBRANCH  24   7
ENDBRANCH  19  20
BRANCH  17   9
ATOM      2  N   UNL     1      13.840   9.290  19.773  0.00  0.00    -0.288 NA
ATOM      9  C   UNL     1      14.471   7.965  19.612  0.00  0.00    +0.146 C 
ATOM     10  C   UNL     1      12.874   9.423  18.682  0.00  0.00    +0.085 C 
ATOM     13  C   UNL     1      14.394   7.676  18.101  0.00  0.00    +0.030 C 
ATOM     14  C   UNL     1      13.650   8.863  17.507  0.00  0.00    +0.017 C 
BRANCH   2   8
ATOM      3  N   UNL     1      11.497  11.045  22.855  0.00  0.00    -0.305 NA
ATOM      8  C   UNL     1      13.218   9.476  21.082  0.00  0.00    +0.060 C 
ATOM     11  C   UNL     1      11.693   9.476  20.950  0.00  0.00    +0.034 C 
ATOM     12  C   UNL     1      13.686  10.784  21.730  0.00  0.00    +0.034 C 
ATOM     15  C   UNL     1      11.026   9.771  22.296  0.00  0.00    +0.085 C 
ATOM     16  C   UNL     1      12.953  11.035  23.050  0.00  0.00    +0.085 C 
ATOM     18  C   UNL     1      10.813  11.337  24.114  0.00  0.00    +0.104 C 
ENDBRANCH   2   8
ENDBRANCH  17   9
TORSDOF 4
ENDMDL
MODEL 9
REMARK VINA RESULT:      -6.1      6.292      7.997
REMARK  Name = 45783775
REMARK  6 active torsions:
REMARK  status: ('A' for Active; 'I' for Inactive)
REMARK    1  A    between atoms: N_2  and  C_8
REMARK    2  A    between atoms: N_3  and  C_18
REMARK    3  A    between atoms: N_7  and  C_24
REMARK    4  A    between atoms: N_7  and  C_25
REMARK    5  A    between atoms: C_9  and  C_17
REMARK    6  A    between atoms: C_19  and  C_20
REMARK                            x       y       z     vdW  Elec       q    Type
REMARK                         _______ _______ _______ _____ _____    ______ ____
ROOT
ATOM      1  O   UNL     1      18.361   5.394  19.216  0.00  0.00    -0.336 OA
ATOM      4  N   UNL     1      17.599   6.832  20.755  0.00  0.00    -0.190 NA
ATOM      5  N   UNL     1      16.990   5.541  18.966  0.00  0.00    -0.056 NA
ATOM     17  C   UNL     1      18.636   6.186  20.286  0.00  0.00    +0.245 A 
ATOM     19  C   UNL     1      16.612   6.405  19.915  0.00  0.00    +0.204 A 
ENDROOT
BRANCH  19  20
ATOM      6  N   UNL     1      13.423   7.485  21.493  0.00  0.00    -0.240 NA
ATOM     20  C   UNL     1      15.259   6.858  20.049  0.00  0.00    +0.041 A 
ATOM     21  C   UNL     1      14.474   7.110  18.929  0.00  0.00    +0.016 A 
ATOM     22  C   UNL     1      14.691   7.060  21.297  0.00  0.00    +0.124 A 
ATOM     23  C   UNL     1      13.164   7.550  19.090  0.00  0.00    +0.044 A 
ATOM     24  C   UNL     1      12.690   7.720  20.381  0.00  0.00    +0.118 A 
BRANCH  24   7
ATOM      7  N   UNL     1      11.355   8.170  20.528  0.00  0.00    -0.332 N 
ATOM     25  C   UNL     1      10.548   7.830  21.655  0.00  0.00    +0.127 C 
ATOM     26  H   UNL     1      11.052   8.925  19.924  0.00  0.00    +0.147 HD
ENDBRANCH  24   7
ENDBRANCH  19  20
BRANCH  17   9
ATOM      2  N   UNL     1      20.187   6.144  22.231  0.00  0.00    -0.288 NA
ATOM      9  C   UNL     1      20.074   6.203  20.760  0.00  0.00    +0.146 C 
ATOM     10  C   UNL     1      21.457   5.478  22.522  0.00  0.00    +0.085 C 
ATOM     13  C   UNL     1      20.880   4.991  20.257  0.00  0.00    +0.030 C 
ATOM     14  C   UNL     1      21.457   4.349  21.510  0.00  0.00    +0.017 C 
BRANCH   2   8
ATOM      3  N   UNL     1      21.415   9.732  24.151  0.00  0.00    -0.305 NA
ATOM      8  C   UNL     1      20.096   7.455  22.869  0.00  0.00    +0.060 C 
ATOM     11  C   UNL     1      20.897   8.489  22.074  0.00  0.00    +0.034 C 
ATOM     12  C   UNL     1      20.605   7.398  24.313  0.00  0.00    +0.034 C 
ATOM     15  C   UNL     1      20.897   9.846  22.781  0.00  0.00    +0.085 C 
ATOM     16  C   UNL     1      20.614   8.792  24.947  0.00  0.00    +0.085 C 
ATOM     18  C   UNL     1      21.456  11.044  24.795  0.00  0.00    +0.104 C 
ENDBRANCH   2   8
ENDBRANCH  17   9
TORSDOF 4
ENDMDL
MODEL 10
REMARK VINA RESULT:      -6.1      2.436      3.720
REMARK  Name = 45783775
REMARK  6 active torsions:
REMARK  status: ('A' for Active; 'I' for Inactive)
REMARK    1  A    between atoms: N_2  and  C_8
REMARK    2  A    between atoms: N_3  and  C_18
REMARK    3  A    between atoms: N_7  and  C_24
REMARK    4  A    between atoms: N_7  and  C_25
REMARK    5  A    between atoms: C_9  and  C_17
REMARK    6  A    between atoms: C_19  and  C_20
REMARK                            x       y       z     vdW  Elec       q    Type
REMARK                         _______ _______ _______ _____ _____    ______ ____
ROOT
ATOM      1  O   UNL     1      12.288   7.840  17.339  0.00  0.00    -0.336 OA
ATOM      4  N   UNL     1      13.340   9.696  18.024  0.00  0.00    -0.190 NA
ATOM      5  N   UNL     1      12.715   8.497  16.178  0.00  0.00    -0.056 NA
ATOM     17  C   UNL     1      12.695   8.613  18.380  0.00  0.00    +0.245 A 
ATOM     19  C   UNL     1      13.327   9.582  16.664  0.00  0.00    +0.204 A 
ENDROOT
BRANCH  19  20
ATOM      6  N   UNL     1      13.857  11.877  13.787  0.00  0.00    -0.240 NA
ATOM     20  C   UNL     1      13.933  10.568  15.819  0.00  0.00    +0.041 A 
ATOM     21  C   UNL     1      15.137  11.169  16.170  0.00  0.00    +0.016 A 
ATOM     22  C   UNL     1      13.339  10.954  14.628  0.00  0.00    +0.124 A 
ATOM     23  C   UNL     1      15.702  12.123  15.330  0.00  0.00    +0.044 A 
ATOM     24  C   UNL     1      15.029  12.440  14.162  0.00  0.00    +0.118 A 
BRANCH  24   7
ATOM      7  N   UNL     1      15.616  13.415  13.318  0.00  0.00    -0.332 N 
ATOM     25  C   UNL     1      15.573  13.327  11.894  0.00  0.00    +0.127 C 
ATOM     26  H   UNL     1      15.877  14.298  13.743  0.00  0.00    +0.147 HD
ENDBRANCH  24   7
ENDBRANCH  19  20
BRANCH  17   9
ATOM      2  N   UNL     1      13.148   8.771  20.822  0.00  0.00    -0.288 NA
ATOM      9  C   UNL     1      12.351   8.113  19.767  0.00  0.00    +0.146 C 
ATOM     10  C   UNL     1      12.317   8.778  22.026  0.00  0.00    +0.085 C 
ATOM     13  C   UNL     1      10.887   8.392  20.153  0.00  0.00    +0.030 C 
ATOM     14  C   UNL     1      10.960   9.158  21.466  0.00  0.00    +0.017 C 
BRANCH   2   8
ATOM      3  N   UNL     1      16.947   7.056  19.986  0.00  0.00    -0.305 NA
ATOM      8  C   UNL     1      14.441   8.129  21.051  0.00  0.00    +0.060 C 
ATOM     11  C   UNL     1      15.576   9.034  20.566  0.00  0.00    +0.034 C 
ATOM     12  C   UNL     1      14.514   6.774  20.340  0.00  0.00    +0.034 C 
ATOM     15  C   UNL     1      16.931   8.337  20.706  0.00  0.00    +0.085 C 
ATOM     16  C   UNL     1      15.904   6.151  20.487  0.00  0.00    +0.085 C 
ATOM     18  C   UNL     1      18.263   6.427  20.087  0.00  0.00    +0.104 C 
ENDBRANCH   2   8
ENDBRANCH  17   9
TORSDOF 4
ENDMDL
