REMARK  Name = 40777693
REMARK  10 active torsions:
REMARK  status: ('A' for Active; 'I' for Inactive)
REMARK    1  A    between atoms: O_2  and  C_9
REMARK    2  A    between atoms: O_2  and  C_18
REMARK    3  A    between atoms: N_4  and  C_17
REMARK    4  A    between atoms: N_6  and  C_19
REMARK    5  A    between atoms: C_7  and  C_10
REMARK    6  A    between atoms: C_13  and  C_15
REMARK    7  A    between atoms: C_14  and  C_16
REMARK    8  A    between atoms: C_19  and  C_24
REMARK    9  A    between atoms: C_19  and  C_26
REMARK   10  A    between atoms: C_25  and  C_29
REMARK                            x       y       z     vdW  Elec       q    Type
REMARK                         _______ _______ _______ _____ _____    ______ ____
ROOT
ATOM      7  C   UNL     1      -0.707   2.570   0.270  0.00  0.00    +0.049 C 
ATOM      8  C   UNL     1       0.418   1.800  -0.449  0.00  0.00    +0.061 C 
ATOM      9  C   UNL     1       1.589   1.753   0.537  0.00  0.00    +0.202 C 
ATOM     11  C   UNL     1      -0.318   2.440   1.714  0.00  0.00    -0.019 C 
ATOM     12  C   UNL     1       0.932   1.988   1.856  0.00  0.00    +0.013 C 
ENDROOT
BRANCH   7  10
ATOM      4  N   UNL     1      -3.866   0.805  -0.299  0.00  0.00    -0.236 N 
ATOM      5  N   UNL     1      -4.251   1.995  -0.789  0.00  0.00    -0.171 NA
ATOM     10  C   UNL     1      -2.088   2.050  -0.055  0.00  0.00    +0.003 A 
ATOM     13  C   UNL     1      -2.579   0.785   0.154  0.00  0.00    +0.046 A 
ATOM     14  C   UNL     1      -3.161   2.752  -0.637  0.00  0.00    +0.064 A 
ATOM     15  C   UNL     1      -1.943  -0.415   0.735  0.00  0.00    +0.066 C 
ATOM     16  C   UNL     1      -3.192   4.161  -1.069  0.00  0.00    +0.068 C 
BRANCH   4  17
ATOM      1 CL   UNL     1      -6.432  -2.660   2.433  0.00  0.00    -0.083 Cl
ATOM     17  C   UNL     1      -4.764  -0.264  -0.291  0.00  0.00    +0.067 A 
ATOM     20  C   UNL     1      -5.120  -0.867   0.915  0.00  0.00    +0.048 A 
ATOM     21  C   UNL     1      -5.303  -0.729  -1.490  0.00  0.00    +0.028 A 
ATOM     22  C   UNL     1      -6.015  -1.937   0.922  0.00  0.00    +0.046 A 
ATOM     23  C   UNL     1      -6.199  -1.798  -1.483  0.00  0.00    +0.007 A 
ATOM     25  C   UNL     1      -6.555  -2.402  -0.277  0.00  0.00    -0.032 A 
ATOM     29  C   UNL     1      -7.518  -3.545  -0.312  0.00  0.00    +0.045 C 
ENDBRANCH   4  17
ENDBRANCH   7  10
BRANCH   9   2
ATOM      2  O   UNL     1       2.210   0.480   0.493  0.00  0.00    -0.443 OA
BRANCH   2  18
ATOM      3  O   UNL     1       3.689   1.252  -1.085  0.00  0.00    -0.226 OA
ATOM      6  N   UNL     1       3.773  -0.934  -0.312  0.00  0.00    -0.275 N 
ATOM     18  C   UNL     1       3.268   0.348  -0.371  0.00  0.00    +0.401 C 
ATOM     33  H   UNL     1       3.354  -1.575   0.356  0.00  0.00    +0.153 HD
BRANCH   6  19
ATOM     19  C   UNL     1       4.893  -1.392  -1.102  0.00  0.00    +0.103 C 
ATOM     26  C   UNL     1       4.705  -2.861  -1.476  0.00  0.00    +0.033 C 
BRANCH  19  24
ATOM     24  C   UNL     1       6.209  -1.134  -0.401  0.00  0.00    -0.027 A 
ATOM     27  C   UNL     1       6.287  -1.219   0.989  0.00  0.00    +0.005 A 
ATOM     28  C   UNL     1       7.344  -0.811  -1.145  0.00  0.00    +0.005 A 
ATOM     30  C   UNL     1       7.500  -0.982   1.635  0.00  0.00    +0.000 A 
ATOM     31  C   UNL     1       8.557  -0.573  -0.499  0.00  0.00    +0.000 A 
ATOM     32  C   UNL     1       8.635  -0.658   0.891  0.00  0.00    +0.000 A 
ENDBRANCH  19  24
ENDBRANCH   6  19
ENDBRANCH   2  18
ENDBRANCH   9   2
TORSDOF 6
