MODEL 1
REMARK VINA RESULT:      -7.0      0.000      0.000
REMARK  Name = 51137858
REMARK  7 active torsions:
REMARK  status: ('A' for Active; 'I' for Inactive)
REMARK    1  A    between atoms: O_4  and  C_20
REMARK    2  A    between atoms: O_4  and  C_28
REMARK    3  A    between atoms: O_5  and  C_22
REMARK    4  A    between atoms: O_5  and  C_29
REMARK    5  A    between atoms: C_9  and  C_13
REMARK    6  A    between atoms: C_14  and  C_15
REMARK    7  A    between atoms: C_16  and  C_19
REMARK                            x       y       z     vdW  Elec       q    Type
REMARK                         _______ _______ _______ _____ _____    ______ ____
ROOT
ATOM      3  O   UNL     1      13.478  10.434  20.534  0.00  0.00    -0.270 OA
ATOM      6  N   UNL     1      14.574   8.432  20.102  0.00  0.00    -0.297 N 
ATOM      9  C   UNL     1      16.060   6.576  20.173  0.00  0.00    +0.095 C 
ATOM     10  C   UNL     1      15.162   6.565  21.419  0.00  0.00    +0.033 C 
ATOM     11  C   UNL     1      15.278   7.496  19.225  0.00  0.00    +0.121 C 
ATOM     12  C   UNL     1      14.611   7.984  21.485  0.00  0.00    +0.109 C 
ATOM     14  C   UNL     1      13.997   9.643  19.749  0.00  0.00    +0.247 C 
ENDROOT
BRANCH  14  15
ATOM     15  C   UNL     1      14.020  10.018  18.327  0.00  0.00    +0.041 A 
ATOM     17  C   UNL     1      13.132   9.419  17.433  0.00  0.00    +0.062 A 
ATOM     18  C   UNL     1      14.929  10.972  17.872  0.00  0.00    +0.017 A 
ATOM     20  C   UNL     1      13.154   9.775  16.084  0.00  0.00    +0.162 A 
ATOM     21  C   UNL     1      14.951  11.329  16.525  0.00  0.00    +0.050 A 
ATOM     22  C   UNL     1      14.063  10.730  15.631  0.00  0.00    +0.162 A 
BRANCH  20   4
ATOM      4  O   UNL     1      12.282   9.184  15.221  0.00  0.00    -0.491 OA
ATOM     28  C   UNL     1      10.911   9.144  15.612  0.00  0.00    +0.277 C 
ENDBRANCH  20   4
BRANCH  22   5
ATOM      5  O   UNL     1      14.094  11.087  14.316  0.00  0.00    -0.491 OA
ATOM     29  C   UNL     1      15.357  11.482  13.782  0.00  0.00    +0.277 C 
ENDBRANCH  22   5
ENDBRANCH  14  15
BRANCH   9  13
ATOM      2  O   UNL     1      18.450   6.050  20.380  0.00  0.00    -0.420 OA
ATOM      7  N   UNL     1      17.934   8.160  20.913  0.00  0.00    -0.112 NA
ATOM      8  N   UNL     1      19.299   8.001  21.072  0.00  0.00    -0.107 NA
ATOM     13  C   UNL     1      17.481   6.997  20.508  0.00  0.00    +0.222 A 
ATOM     16  C   UNL     1      19.554   6.754  20.751  0.00  0.00    +0.248 A 
BRANCH  16  19
ATOM      1 CL   UNL     1      24.691   3.763  20.663  0.00  0.00    -0.084 Cl
ATOM     19  C   UNL     1      20.794   6.033  20.730  0.00  0.00    +0.039 A 
ATOM     23  C   UNL     1      20.790   4.640  20.789  0.00  0.00    +0.014 A 
ATOM     24  C   UNL     1      22.002   6.725  20.649  0.00  0.00    +0.014 A 
ATOM     25  C   UNL     1      21.995   3.938  20.769  0.00  0.00    +0.021 A 
ATOM     26  C   UNL     1      23.208   6.023  20.629  0.00  0.00    +0.021 A 
ATOM     27  C   UNL     1      23.204   4.629  20.689  0.00  0.00    +0.041 A 
ENDBRANCH  16  19
ENDBRANCH   9  13
TORSDOF 5
ENDMDL
MODEL 2
REMARK VINA RESULT:      -6.9     28.745     30.991
REMARK  Name = 51137858
REMARK  7 active torsions:
REMARK  status: ('A' for Active; 'I' for Inactive)
REMARK    1  A    between atoms: O_4  and  C_20
REMARK    2  A    between atoms: O_4  and  C_28
REMARK    3  A    between atoms: O_5  and  C_22
REMARK    4  A    between atoms: O_5  and  C_29
REMARK    5  A    between atoms: C_9  and  C_13
REMARK    6  A    between atoms: C_14  and  C_15
REMARK    7  A    between atoms: C_16  and  C_19
REMARK                            x       y       z     vdW  Elec       q    Type
REMARK                         _______ _______ _______ _____ _____    ______ ____
ROOT
ATOM      3  O   UNL     1      -4.429 -14.022  15.564  0.00  0.00    -0.270 OA
ATOM      6  N   UNL     1      -4.586 -12.191  16.985  0.00  0.00    -0.297 N 
ATOM      9  C   UNL     1      -5.238 -10.671  18.695  0.00  0.00    +0.095 C 
ATOM     10  C   UNL     1      -4.629 -11.931  19.329  0.00  0.00    +0.033 C 
ATOM     11  C   UNL     1      -4.718 -10.758  17.253  0.00  0.00    +0.121 C 
ATOM     12  C   UNL     1      -4.682 -12.965  18.212  0.00  0.00    +0.109 C 
ATOM     14  C   UNL     1      -4.464 -12.807  15.748  0.00  0.00    +0.247 C 
ENDROOT
BRANCH  14  15
ATOM     15  C   UNL     1      -4.388 -11.941  14.562  0.00  0.00    +0.041 A 
ATOM     17  C   UNL     1      -5.539 -11.665  13.824  0.00  0.00    +0.062 A 
ATOM     18  C   UNL     1      -3.165 -11.395  14.175  0.00  0.00    +0.017 A 
ATOM     20  C   UNL     1      -5.466 -10.843  12.699  0.00  0.00    +0.162 A 
ATOM     21  C   UNL     1      -3.091 -10.573  13.051  0.00  0.00    +0.050 A 
ATOM     22  C   UNL     1      -4.242 -10.297  12.313  0.00  0.00    +0.162 A 
BRANCH  20   4
ATOM      4  O   UNL     1      -6.597 -10.581  11.987  0.00  0.00    -0.491 OA
ATOM     28  C   UNL     1      -7.448  -9.547  12.479  0.00  0.00    +0.277 C 
ENDBRANCH  20   4
BRANCH  22   5
ATOM      5  O   UNL     1      -4.159  -9.493  11.216  0.00  0.00    -0.491 OA
ATOM     29  C   UNL     1      -2.958  -9.567  10.449  0.00  0.00    +0.277 C 
ENDBRANCH  22   5
ENDBRANCH  14  15
BRANCH   9  13
ATOM      2  O   UNL     1      -7.433  -9.764  18.075  0.00  0.00    -0.420 OA
ATOM      7  N   UNL     1      -7.511 -11.307  19.693  0.00  0.00    -0.112 NA
ATOM      8  N   UNL     1      -8.804 -10.884  19.443  0.00  0.00    -0.107 NA
ATOM     13  C   UNL     1      -6.745 -10.627  18.872  0.00  0.00    +0.222 A 
ATOM     16  C   UNL     1      -8.710  -9.984  18.494  0.00  0.00    +0.248 A 
BRANCH  16  19
ATOM      1 CL   UNL     1     -12.918  -6.776  15.783  0.00  0.00    -0.084 Cl
ATOM     19  C   UNL     1      -9.726  -9.210  17.840  0.00  0.00    +0.039 A 
ATOM     23  C   UNL     1      -9.372  -8.090  17.089  0.00  0.00    +0.014 A 
ATOM     24  C   UNL     1     -11.066  -9.579  17.954  0.00  0.00    +0.014 A 
ATOM     25  C   UNL     1     -10.359  -7.337  16.453  0.00  0.00    +0.021 A 
ATOM     26  C   UNL     1     -12.054  -8.826  17.318  0.00  0.00    +0.021 A 
ATOM     27  C   UNL     1     -11.700  -7.705  16.567  0.00  0.00    +0.041 A 
ENDBRANCH  16  19
ENDBRANCH   9  13
TORSDOF 5
ENDMDL
MODEL 3
REMARK VINA RESULT:      -6.6     28.143     30.500
REMARK  Name = 51137858
REMARK  7 active torsions:
REMARK  status: ('A' for Active; 'I' for Inactive)
REMARK    1  A    between atoms: O_4  and  C_20
REMARK    2  A    between atoms: O_4  and  C_28
REMARK    3  A    between atoms: O_5  and  C_22
REMARK    4  A    between atoms: O_5  and  C_29
REMARK    5  A    between atoms: C_9  and  C_13
REMARK    6  A    between atoms: C_14  and  C_15
REMARK    7  A    between atoms: C_16  and  C_19
REMARK                            x       y       z     vdW  Elec       q    Type
REMARK                         _______ _______ _______ _____ _____    ______ ____
ROOT
ATOM      3  O   UNL     1      -1.661 -10.527  16.425  0.00  0.00    -0.270 OA
ATOM      6  N   UNL     1      -2.918 -11.695  14.859  0.00  0.00    -0.297 N 
ATOM      9  C   UNL     1      -3.933 -12.453  12.845  0.00  0.00    +0.095 C 
ATOM     10  C   UNL     1      -2.422 -12.727  12.796  0.00  0.00    +0.033 C 
ATOM     11  C   UNL     1      -4.171 -12.253  14.348  0.00  0.00    +0.121 C 
ATOM     12  C   UNL     1      -1.850 -11.821  13.879  0.00  0.00    +0.109 C 
ATOM     14  C   UNL     1      -2.718 -11.045  16.067  0.00  0.00    +0.247 C 
ENDROOT
BRANCH  14  15
ATOM     15  C   UNL     1      -3.860 -10.955  16.988  0.00  0.00    +0.041 A 
ATOM     17  C   UNL     1      -4.953 -10.150  16.667  0.00  0.00    +0.062 A 
ATOM     18  C   UNL     1      -3.852 -11.675  18.183  0.00  0.00    +0.017 A 
ATOM     20  C   UNL     1      -6.038 -10.065  17.541  0.00  0.00    +0.162 A 
ATOM     21  C   UNL     1      -4.935 -11.591  19.056  0.00  0.00    +0.050 A 
ATOM     22  C   UNL     1      -6.028 -10.786  18.735  0.00  0.00    +0.162 A 
BRANCH  20   4
ATOM      4  O   UNL     1      -7.099  -9.276  17.217  0.00  0.00    -0.491 OA
ATOM     28  C   UNL     1      -8.005  -9.779  16.236  0.00  0.00    +0.277 C 
ENDBRANCH  20   4
BRANCH  22   5
ATOM      5  O   UNL     1      -7.082 -10.711  19.597  0.00  0.00    -0.491 OA
ATOM     29  C   UNL     1      -7.966 -11.829  19.637  0.00  0.00    +0.277 C 
ENDBRANCH  22   5
ENDBRANCH  14  15
BRANCH   9  13
ATOM      2  O   UNL     1      -4.670 -11.615  10.658  0.00  0.00    -0.420 OA
ATOM      7  N   UNL     1      -4.382 -10.015  12.194  0.00  0.00    -0.112 NA
ATOM      8  N   UNL     1      -4.794  -9.411  11.020  0.00  0.00    -0.107 NA
ATOM     13  C   UNL     1      -4.324 -11.300  11.936  0.00  0.00    +0.222 A 
ATOM     16  C   UNL     1      -4.949 -10.382  10.152  0.00  0.00    +0.248 A 
BRANCH  16  19
ATOM      1 CL   UNL     1      -6.652 -10.238   4.458  0.00  0.00    -0.084 Cl
ATOM     19  C   UNL     1      -5.360 -10.347   8.779  0.00  0.00    +0.039 A 
ATOM     23  C   UNL     1      -4.716 -11.150   7.838  0.00  0.00    +0.014 A 
ATOM     24  C   UNL     1      -6.405  -9.511   8.384  0.00  0.00    +0.014 A 
ATOM     25  C   UNL     1      -5.115 -11.116   6.501  0.00  0.00    +0.021 A 
ATOM     26  C   UNL     1      -6.804  -9.477   7.047  0.00  0.00    +0.021 A 
ATOM     27  C   UNL     1      -6.159 -10.280   6.107  0.00  0.00    +0.041 A 
ENDBRANCH  16  19
ENDBRANCH   9  13
TORSDOF 5
ENDMDL
MODEL 4
REMARK VINA RESULT:      -6.5     28.210     31.117
REMARK  Name = 51137858
REMARK  7 active torsions:
REMARK  status: ('A' for Active; 'I' for Inactive)
REMARK    1  A    between atoms: O_4  and  C_20
REMARK    2  A    between atoms: O_4  and  C_28
REMARK    3  A    between atoms: O_5  and  C_22
REMARK    4  A    between atoms: O_5  and  C_29
REMARK    5  A    between atoms: C_9  and  C_13
REMARK    6  A    between atoms: C_14  and  C_15
REMARK    7  A    between atoms: C_16  and  C_19
REMARK                            x       y       z     vdW  Elec       q    Type
REMARK                         _______ _______ _______ _____ _____    ______ ____
ROOT
ATOM      3  O   UNL     1      -4.619 -14.007  15.598  0.00  0.00    -0.270 OA
ATOM      6  N   UNL     1      -4.788 -12.180  17.022  0.00  0.00    -0.297 N 
ATOM      9  C   UNL     1      -5.426 -10.684  18.758  0.00  0.00    +0.095 C 
ATOM     10  C   UNL     1      -4.737 -11.916  19.366  0.00  0.00    +0.033 C 
ATOM     11  C   UNL     1      -4.968 -10.754  17.295  0.00  0.00    +0.121 C 
ATOM     12  C   UNL     1      -4.797 -12.954  18.254  0.00  0.00    +0.109 C 
ATOM     14  C   UNL     1      -4.697 -12.794  15.782  0.00  0.00    +0.247 C 
ENDROOT
BRANCH  14  15
ATOM     15  C   UNL     1      -4.710 -11.929  14.593  0.00  0.00    +0.041 A 
ATOM     17  C   UNL     1      -3.536 -11.306  14.170  0.00  0.00    +0.062 A 
ATOM     18  C   UNL     1      -5.897 -11.733  13.887  0.00  0.00    +0.017 A 
ATOM     20  C   UNL     1      -3.549 -10.486  13.042  0.00  0.00    +0.162 A 
ATOM     21  C   UNL     1      -5.910 -10.914  12.758  0.00  0.00    +0.050 A 
ATOM     22  C   UNL     1      -4.736 -10.290  12.336  0.00  0.00    +0.162 A 
BRANCH  20   4
ATOM      4  O   UNL     1      -2.396  -9.883  12.639  0.00  0.00    -0.491 OA
ATOM     28  C   UNL     1      -1.518 -10.648  11.816  0.00  0.00    +0.277 C 
ENDBRANCH  20   4
BRANCH  22   5
ATOM      5  O   UNL     1      -4.761  -9.492  11.232  0.00  0.00    -0.491 OA
ATOM     29  C   UNL     1      -5.979  -8.802  10.960  0.00  0.00    +0.277 C 
ENDBRANCH  22   5
ENDBRANCH  14  15
BRANCH   9  13
ATOM      2  O   UNL     1      -7.688  -9.904  18.207  0.00  0.00    -0.420 OA
ATOM      7  N   UNL     1      -7.620 -11.383  19.883  0.00  0.00    -0.112 NA
ATOM      8  N   UNL     1      -8.941 -11.030  19.678  0.00  0.00    -0.107 NA
ATOM     13  C   UNL     1      -6.925 -10.702  19.003  0.00  0.00    +0.222 A 
ATOM     16  C   UNL     1      -8.933 -10.166  18.691  0.00  0.00    +0.248 A 
BRANCH  16  19
ATOM      1 CL   UNL     1     -13.409  -7.271  16.059  0.00  0.00    -0.084 Cl
ATOM     19  C   UNL     1     -10.012  -9.467  18.056  0.00  0.00    +0.039 A 
ATOM     23  C   UNL     1     -11.316  -9.950  18.167  0.00  0.00    +0.014 A 
ATOM     24  C   UNL     1      -9.759  -8.305  17.328  0.00  0.00    +0.014 A 
ATOM     25  C   UNL     1     -12.366  -9.271  17.549  0.00  0.00    +0.021 A 
ATOM     26  C   UNL     1     -10.809  -7.625  16.710  0.00  0.00    +0.021 A 
ATOM     27  C   UNL     1     -12.113  -8.109  16.821  0.00  0.00    +0.041 A 
ENDBRANCH  16  19
ENDBRANCH   9  13
TORSDOF 5
ENDMDL
MODEL 5
REMARK VINA RESULT:      -6.5     13.540     16.872
REMARK  Name = 51137858
REMARK  7 active torsions:
REMARK  status: ('A' for Active; 'I' for Inactive)
REMARK    1  A    between atoms: O_4  and  C_20
REMARK    2  A    between atoms: O_4  and  C_28
REMARK    3  A    between atoms: O_5  and  C_22
REMARK    4  A    between atoms: O_5  and  C_29
REMARK    5  A    between atoms: C_9  and  C_13
REMARK    6  A    between atoms: C_14  and  C_15
REMARK    7  A    between atoms: C_16  and  C_19
REMARK                            x       y       z     vdW  Elec       q    Type
REMARK                         _______ _______ _______ _____ _____    ______ ____
ROOT
ATOM      3  O   UNL     1       9.642   7.877   1.768  0.00  0.00    -0.270 OA
ATOM      6  N   UNL     1       9.468   6.331   3.493  0.00  0.00    -0.297 N 
ATOM      9  C   UNL     1       9.459   5.271   5.623  0.00  0.00    +0.095 C 
ATOM     10  C   UNL     1       8.310   6.289   5.549  0.00  0.00    +0.033 C 
ATOM     11  C   UNL     1       9.792   5.059   4.139  0.00  0.00    +0.121 C 
ATOM     12  C   UNL     1       8.691   7.186   4.378  0.00  0.00    +0.109 C 
ATOM     14  C   UNL     1       9.879   6.767   2.243  0.00  0.00    +0.247 C 
ENDROOT
BRANCH  14  15
ATOM     15  C   UNL     1      10.672   5.837   1.425  0.00  0.00    +0.041 A 
ATOM     17  C   UNL     1      12.055   5.763   1.596  0.00  0.00    +0.062 A 
ATOM     18  C   UNL     1      10.042   5.029   0.479  0.00  0.00    +0.017 A 
ATOM     20  C   UNL     1      12.807   4.881   0.820  0.00  0.00    +0.162 A 
ATOM     21  C   UNL     1      10.794   4.146  -0.296  0.00  0.00    +0.050 A 
ATOM     22  C   UNL     1      12.176   4.073  -0.125  0.00  0.00    +0.162 A 
BRANCH  20   4
ATOM      4  O   UNL     1      14.156   4.818   0.996  0.00  0.00    -0.491 OA
ATOM     28  C   UNL     1      14.663   3.698   1.720  0.00  0.00    +0.277 C 
ENDBRANCH  20   4
BRANCH  22   5
ATOM      5  O   UNL     1      12.901   3.207  -0.889  0.00  0.00    -0.491 OA
ATOM     29  C   UNL     1      12.364   2.866  -2.166  0.00  0.00    +0.277 C 
ENDBRANCH  22   5
ENDBRANCH  14  15
BRANCH   9  13
ATOM      2  O   UNL     1      11.484   6.621   5.945  0.00  0.00    -0.420 OA
ATOM      7  N   UNL     1      10.847   5.490   7.766  0.00  0.00    -0.112 NA
ATOM      8  N   UNL     1      11.989   6.202   8.083  0.00  0.00    -0.107 NA
ATOM     13  C   UNL     1      10.589   5.765   6.509  0.00  0.00    +0.222 A 
ATOM     16  C   UNL     1      12.326   6.846   6.991  0.00  0.00    +0.248 A 
BRANCH  16  19
ATOM      1 CL   UNL     1      16.870  10.528   5.925  0.00  0.00    -0.084 Cl
ATOM     19  C   UNL     1      13.422   7.735   6.734  0.00  0.00    +0.039 A 
ATOM     23  C   UNL     1      14.671   7.219   6.391  0.00  0.00    +0.014 A 
ATOM     24  C   UNL     1      13.238   9.115   6.827  0.00  0.00    +0.014 A 
ATOM     25  C   UNL     1      15.737   8.083   6.141  0.00  0.00    +0.021 A 
ATOM     26  C   UNL     1      14.305   9.979   6.577  0.00  0.00    +0.021 A 
ATOM     27  C   UNL     1      15.554   9.462   6.233  0.00  0.00    +0.041 A 
ENDBRANCH  16  19
ENDBRANCH   9  13
TORSDOF 5
ENDMDL
MODEL 6
REMARK VINA RESULT:      -6.3     28.006     29.743
REMARK  Name = 51137858
REMARK  7 active torsions:
REMARK  status: ('A' for Active; 'I' for Inactive)
REMARK    1  A    between atoms: O_4  and  C_20
REMARK    2  A    between atoms: O_4  and  C_28
REMARK    3  A    between atoms: O_5  and  C_22
REMARK    4  A    between atoms: O_5  and  C_29
REMARK    5  A    between atoms: C_9  and  C_13
REMARK    6  A    between atoms: C_14  and  C_15
REMARK    7  A    between atoms: C_16  and  C_19
REMARK                            x       y       z     vdW  Elec       q    Type
REMARK                         _______ _______ _______ _____ _____    ______ ____
ROOT
ATOM      3  O   UNL     1      -5.619 -13.454  11.407  0.00  0.00    -0.270 OA
ATOM      6  N   UNL     1      -3.581 -12.488  11.962  0.00  0.00    -0.297 N 
ATOM      9  C   UNL     1      -1.627 -11.772  13.114  0.00  0.00    +0.095 C 
ATOM     10  C   UNL     1      -1.594 -13.298  12.942  0.00  0.00    +0.033 C 
ATOM     11  C   UNL     1      -2.660 -11.355  12.058  0.00  0.00    +0.121 C 
ATOM     12  C   UNL     1      -3.038 -13.663  12.627  0.00  0.00    +0.109 C 
ATOM     14  C   UNL     1      -4.849 -12.495  11.401  0.00  0.00    +0.247 C 
ENDROOT
BRANCH  14  15
ATOM     15  C   UNL     1      -5.317 -11.256  10.762  0.00  0.00    +0.041 A 
ATOM     17  C   UNL     1      -5.040 -11.018   9.416  0.00  0.00    +0.062 A 
ATOM     18  C   UNL     1      -6.038 -10.320  11.502  0.00  0.00    +0.017 A 
ATOM     20  C   UNL     1      -5.484  -9.842   8.810  0.00  0.00    +0.162 A 
ATOM     21  C   UNL     1      -6.483  -9.145  10.897  0.00  0.00    +0.050 A 
ATOM     22  C   UNL     1      -6.206  -8.906   9.551  0.00  0.00    +0.162 A 
BRANCH  20   4
ATOM      4  O   UNL     1      -5.207  -9.620   7.495  0.00  0.00    -0.491 OA
ATOM     28  C   UNL     1      -6.019 -10.299   6.539  0.00  0.00    +0.277 C 
ENDBRANCH  20   4
BRANCH  22   5
ATOM      5  O   UNL     1      -6.645  -7.754   8.970  0.00  0.00    -0.491 OA
ATOM     29  C   UNL     1      -8.017  -7.707   8.583  0.00  0.00    +0.277 C 
ENDBRANCH  22   5
ENDBRANCH  14  15
BRANCH   9  13
ATOM      2  O   UNL     1      -3.233 -11.377  14.929  0.00  0.00    -0.420 OA
ATOM      7  N   UNL     1      -1.102 -11.024  15.509  0.00  0.00    -0.112 NA
ATOM      8  N   UNL     1      -1.894 -10.768  16.614  0.00  0.00    -0.107 NA
ATOM     13  C   UNL     1      -1.926 -11.376  14.550  0.00  0.00    +0.222 A 
ATOM     16  C   UNL     1      -3.129 -10.986  16.229  0.00  0.00    +0.248 A 
BRANCH  16  19
ATOM      1 CL   UNL     1      -8.242 -10.543  19.229  0.00  0.00    -0.084 Cl
ATOM     19  C   UNL     1      -4.363 -10.879  16.952  0.00  0.00    +0.039 A 
ATOM     23  C   UNL     1      -4.470 -11.426  18.231  0.00  0.00    +0.014 A 
ATOM     24  C   UNL     1      -5.455 -10.228  16.378  0.00  0.00    +0.014 A 
ATOM     25  C   UNL     1      -5.670 -11.322  18.934  0.00  0.00    +0.021 A 
ATOM     26  C   UNL     1      -6.655 -10.124  17.081  0.00  0.00    +0.021 A 
ATOM     27  C   UNL     1      -6.762 -10.671  18.360  0.00  0.00    +0.041 A 
ENDBRANCH  16  19
ENDBRANCH   9  13
TORSDOF 5
ENDMDL
MODEL 7
REMARK VINA RESULT:      -6.3     31.323     33.402
REMARK  Name = 51137858
REMARK  7 active torsions:
REMARK  status: ('A' for Active; 'I' for Inactive)
REMARK    1  A    between atoms: O_4  and  C_20
REMARK    2  A    between atoms: O_4  and  C_28
REMARK    3  A    between atoms: O_5  and  C_22
REMARK    4  A    between atoms: O_5  and  C_29
REMARK    5  A    between atoms: C_9  and  C_13
REMARK    6  A    between atoms: C_14  and  C_15
REMARK    7  A    between atoms: C_16  and  C_19
REMARK                            x       y       z     vdW  Elec       q    Type
REMARK                         _______ _______ _______ _____ _____    ______ ____
ROOT
ATOM      3  O   UNL     1     -14.783  -7.307  14.445  0.00  0.00    -0.270 OA
ATOM      6  N   UNL     1     -13.656  -5.426  13.678  0.00  0.00    -0.297 N 
ATOM      9  C   UNL     1     -12.889  -3.595  12.368  0.00  0.00    +0.095 C 
ATOM     10  C   UNL     1     -14.342  -3.346  12.800  0.00  0.00    +0.033 C 
ATOM     11  C   UNL     1     -12.441  -4.673  13.364  0.00  0.00    +0.121 C 
ATOM     12  C   UNL     1     -14.843  -4.725  13.211  0.00  0.00    +0.109 C 
ATOM     14  C   UNL     1     -13.741  -6.679  14.265  0.00  0.00    +0.247 C 
ENDROOT
BRANCH  14  15
ATOM     15  C   UNL     1     -12.486  -7.315  14.693  0.00  0.00    +0.041 A 
ATOM     17  C   UNL     1     -11.794  -8.152  13.818  0.00  0.00    +0.062 A 
ATOM     18  C   UNL     1     -11.987  -7.081  15.974  0.00  0.00    +0.017 A 
ATOM     20  C   UNL     1     -10.604  -8.756  14.224  0.00  0.00    +0.162 A 
ATOM     21  C   UNL     1     -10.797  -7.684  16.381  0.00  0.00    +0.050 A 
ATOM     22  C   UNL     1     -10.105  -8.521  15.505  0.00  0.00    +0.162 A 
BRANCH  20   4
ATOM      4  O   UNL     1      -9.937  -9.571  13.360  0.00  0.00    -0.491 OA
ATOM     28  C   UNL     1     -10.620  -9.943  12.164  0.00  0.00    +0.277 C 
ENDBRANCH  20   4
BRANCH  22   5
ATOM      5  O   UNL     1      -8.943  -9.105  15.913  0.00  0.00    -0.491 OA
ATOM     29  C   UNL     1      -8.546  -8.879  17.265  0.00  0.00    +0.277 C 
ENDBRANCH  22   5
ENDBRANCH  14  15
BRANCH   9  13
ATOM      2  O   UNL     1     -11.695  -4.646  10.498  0.00  0.00    -0.420 OA
ATOM      7  N   UNL     1     -13.629  -3.685   9.916  0.00  0.00    -0.112 NA
ATOM      8  N   UNL     1     -13.065  -4.233   8.778  0.00  0.00    -0.107 NA
ATOM     13  C   UNL     1     -12.795  -3.949  10.894  0.00  0.00    +0.222 A 
ATOM     16  C   UNL     1     -11.938  -4.782   9.165  0.00  0.00    +0.248 A 
BRANCH  16  19
ATOM      1 CL   UNL     1      -7.808  -7.723   6.061  0.00  0.00    -0.084 Cl
ATOM     19  C   UNL     1     -10.942  -5.492   8.416  0.00  0.00    +0.039 A 
ATOM     23  C   UNL     1      -9.590  -5.306   8.704  0.00  0.00    +0.014 A 
ATOM     24  C   UNL     1     -11.325  -6.368   7.400  0.00  0.00    +0.014 A 
ATOM     25  C   UNL     1      -8.621  -5.996   7.975  0.00  0.00    +0.021 A 
ATOM     26  C   UNL     1     -10.356  -7.058   6.672  0.00  0.00    +0.021 A 
ATOM     27  C   UNL     1      -9.004  -6.872   6.960  0.00  0.00    +0.041 A 
ENDBRANCH  16  19
ENDBRANCH   9  13
TORSDOF 5
ENDMDL
MODEL 8
REMARK VINA RESULT:      -6.3      1.191      2.268
REMARK  Name = 51137858
REMARK  7 active torsions:
REMARK  status: ('A' for Active; 'I' for Inactive)
REMARK    1  A    between atoms: O_4  and  C_20
REMARK    2  A    between atoms: O_4  and  C_28
REMARK    3  A    between atoms: O_5  and  C_22
REMARK    4  A    between atoms: O_5  and  C_29
REMARK    5  A    between atoms: C_9  and  C_13
REMARK    6  A    between atoms: C_14  and  C_15
REMARK    7  A    between atoms: C_16  and  C_19
REMARK                            x       y       z     vdW  Elec       q    Type
REMARK                         _______ _______ _______ _____ _____    ______ ____
ROOT
ATOM      3  O   UNL     1      12.673  10.552  19.927  0.00  0.00    -0.270 OA
ATOM      6  N   UNL     1      13.869   8.623  19.434  0.00  0.00    -0.297 N 
ATOM      9  C   UNL     1      15.346   6.760  19.527  0.00  0.00    +0.095 C 
ATOM     10  C   UNL     1      14.221   6.578  20.557  0.00  0.00    +0.033 C 
ATOM     11  C   UNL     1      14.749   7.816  18.587  0.00  0.00    +0.121 C 
ATOM     12  C   UNL     1      13.641   7.977  20.718  0.00  0.00    +0.109 C 
ATOM     14  C   UNL     1      13.351   9.878  19.154  0.00  0.00    +0.247 C 
ENDROOT
BRANCH  14  15
ATOM     15  C   UNL     1      13.646  10.456  17.834  0.00  0.00    +0.041 A 
ATOM     17  C   UNL     1      14.493  11.560  17.730  0.00  0.00    +0.062 A 
ATOM     18  C   UNL     1      13.081   9.901  16.687  0.00  0.00    +0.017 A 
ATOM     20  C   UNL     1      14.773  12.108  16.478  0.00  0.00    +0.162 A 
ATOM     21  C   UNL     1      13.361  10.448  15.436  0.00  0.00    +0.050 A 
ATOM     22  C   UNL     1      14.207  11.551  15.331  0.00  0.00    +0.162 A 
BRANCH  20   4
ATOM      4  O   UNL     1      15.601  13.186  16.389  0.00  0.00    -0.491 OA
ATOM     28  C   UNL     1      17.003  12.935  16.475  0.00  0.00    +0.277 C 
ENDBRANCH  20   4
BRANCH  22   5
ATOM      5  O   UNL     1      14.474  12.078  14.103  0.00  0.00    -0.491 OA
ATOM     29  C   UNL     1      15.507  11.454  13.342  0.00  0.00    +0.277 C 
ENDBRANCH  22   5
ENDBRANCH  14  15
BRANCH   9  13
ATOM      2  O   UNL     1      17.729   6.312  19.914  0.00  0.00    -0.420 OA
ATOM      7  N   UNL     1      16.948   8.093  21.020  0.00  0.00    -0.112 NA
ATOM      8  N   UNL     1      18.290   7.955  21.325  0.00  0.00    -0.107 NA
ATOM     13  C   UNL     1      16.665   7.113  20.194  0.00  0.00    +0.222 A 
ATOM     16  C   UNL     1      18.704   6.904  20.658  0.00  0.00    +0.248 A 
BRANCH  16  19
ATOM      1 CL   UNL     1      24.077   4.375  20.385  0.00  0.00    -0.084 Cl
ATOM     19  C   UNL     1      20.000   6.293  20.592  0.00  0.00    +0.039 A 
ATOM     23  C   UNL     1      21.145   7.089  20.592  0.00  0.00    +0.014 A 
ATOM     24  C   UNL     1      20.115   4.905  20.529  0.00  0.00    +0.014 A 
ATOM     25  C   UNL     1      22.406   6.496  20.528  0.00  0.00    +0.021 A 
ATOM     26  C   UNL     1      21.376   4.311  20.465  0.00  0.00    +0.021 A 
ATOM     27  C   UNL     1      22.522   5.107  20.465  0.00  0.00    +0.041 A 
ENDBRANCH  16  19
ENDBRANCH   9  13
TORSDOF 5
ENDMDL
MODEL 9
REMARK VINA RESULT:      -6.1     28.309     30.052
REMARK  Name = 51137858
REMARK  7 active torsions:
REMARK  status: ('A' for Active; 'I' for Inactive)
REMARK    1  A    between atoms: O_4  and  C_20
REMARK    2  A    between atoms: O_4  and  C_28
REMARK    3  A    between atoms: O_5  and  C_22
REMARK    4  A    between atoms: O_5  and  C_29
REMARK    5  A    between atoms: C_9  and  C_13
REMARK    6  A    between atoms: C_14  and  C_15
REMARK    7  A    between atoms: C_16  and  C_19
REMARK                            x       y       z     vdW  Elec       q    Type
REMARK                         _______ _______ _______ _____ _____    ______ ____
ROOT
ATOM      3  O   UNL     1      -5.624 -14.441  11.834  0.00  0.00    -0.270 OA
ATOM      6  N   UNL     1      -3.504 -13.668  12.383  0.00  0.00    -0.297 N 
ATOM      9  C   UNL     1      -1.586 -12.886  13.553  0.00  0.00    +0.095 C 
ATOM     10  C   UNL     1      -1.857 -14.351  13.929  0.00  0.00    +0.033 C 
ATOM     11  C   UNL     1      -2.380 -12.741  12.248  0.00  0.00    +0.121 C 
ATOM     12  C   UNL     1      -3.302 -14.577  13.501  0.00  0.00    +0.109 C 
ATOM     14  C   UNL     1      -4.673 -13.688  11.638  0.00  0.00    +0.247 C 
ENDROOT
BRANCH  14  15
ATOM     15  C   UNL     1      -4.792 -12.722  10.535  0.00  0.00    +0.041 A 
ATOM     17  C   UNL     1      -5.325 -11.455  10.772  0.00  0.00    +0.062 A 
ATOM     18  C   UNL     1      -4.371 -13.072   9.253  0.00  0.00    +0.017 A 
ATOM     20  C   UNL     1      -5.437 -10.538   9.726  0.00  0.00    +0.162 A 
ATOM     21  C   UNL     1      -4.483 -12.156   8.207  0.00  0.00    +0.050 A 
ATOM     22  C   UNL     1      -5.016 -10.890   8.444  0.00  0.00    +0.162 A 
BRANCH  20   4
ATOM      4  O   UNL     1      -5.960  -9.304   9.970  0.00  0.00    -0.491 OA
ATOM     28  C   UNL     1      -5.204  -8.436  10.812  0.00  0.00    +0.277 C 
ENDBRANCH  20   4
BRANCH  22   5
ATOM      5  O   UNL     1      -5.121 -10.003   7.414  0.00  0.00    -0.491 OA
ATOM     29  C   UNL     1      -5.654 -10.497   6.187  0.00  0.00    +0.277 C 
ENDBRANCH  22   5
ENDBRANCH  14  15
BRANCH   9  13
ATOM      2  O   UNL     1      -3.190 -12.092  15.233  0.00  0.00    -0.420 OA
ATOM      7  N   UNL     1      -1.253 -10.974  15.226  0.00  0.00    -0.112 NA
ATOM      8  N   UNL     1      -2.057 -10.429  16.211  0.00  0.00    -0.107 NA
ATOM     13  C   UNL     1      -1.955 -11.940  14.682  0.00  0.00    +0.222 A 
ATOM     16  C   UNL     1      -3.177 -11.112  16.178  0.00  0.00    +0.248 A 
BRANCH  16  19
ATOM      1 CL   UNL     1      -8.106 -10.603  19.462  0.00  0.00    -0.084 Cl
ATOM     19  C   UNL     1      -4.366 -10.989  16.970  0.00  0.00    +0.039 A 
ATOM     23  C   UNL     1      -4.455 -11.641  18.200  0.00  0.00    +0.014 A 
ATOM     24  C   UNL     1      -5.434 -10.217  16.511  0.00  0.00    +0.014 A 
ATOM     25  C   UNL     1      -5.612 -11.521  18.971  0.00  0.00    +0.021 A 
ATOM     26  C   UNL     1      -6.591 -10.098  17.281  0.00  0.00    +0.021 A 
ATOM     27  C   UNL     1      -6.679 -10.750  18.511  0.00  0.00    +0.041 A 
ENDBRANCH  16  19
ENDBRANCH   9  13
TORSDOF 5
ENDMDL
MODEL 10
REMARK VINA RESULT:      -6.1     22.767     27.634
REMARK  Name = 51137858
REMARK  7 active torsions:
REMARK  status: ('A' for Active; 'I' for Inactive)
REMARK    1  A    between atoms: O_4  and  C_20
REMARK    2  A    between atoms: O_4  and  C_28
REMARK    3  A    between atoms: O_5  and  C_22
REMARK    4  A    between atoms: O_5  and  C_29
REMARK    5  A    between atoms: C_9  and  C_13
REMARK    6  A    between atoms: C_14  and  C_15
REMARK    7  A    between atoms: C_16  and  C_19
REMARK                            x       y       z     vdW  Elec       q    Type
REMARK                         _______ _______ _______ _____ _____    ______ ____
ROOT
ATOM      3  O   UNL     1      -4.796   6.663   4.929  0.00  0.00    -0.270 OA
ATOM      6  N   UNL     1      -5.851   8.569   4.122  0.00  0.00    -0.297 N 
ATOM      9  C   UNL     1      -7.059  10.123   2.787  0.00  0.00    +0.095 C 
ATOM     10  C   UNL     1      -8.007   9.017   3.277  0.00  0.00    +0.033 C 
ATOM     11  C   UNL     1      -5.881   9.987   3.761  0.00  0.00    +0.121 C 
ATOM     12  C   UNL     1      -7.071   7.895   3.704  0.00  0.00    +0.109 C 
ATOM     14  C   UNL     1      -4.805   7.873   4.709  0.00  0.00    +0.247 C 
ENDROOT
BRANCH  14  15
ATOM     15  C   UNL     1      -3.606   8.637   5.085  0.00  0.00    +0.041 A 
ATOM     17  C   UNL     1      -2.580   8.825   4.159  0.00  0.00    +0.062 A 
ATOM     18  C   UNL     1      -3.496   9.175   6.367  0.00  0.00    +0.017 A 
ATOM     20  C   UNL     1      -1.443   9.551   4.516  0.00  0.00    +0.162 A 
ATOM     21  C   UNL     1      -2.360   9.901   6.724  0.00  0.00    +0.050 A 
ATOM     22  C   UNL     1      -1.333  10.088   5.799  0.00  0.00    +0.162 A 
BRANCH  20   4
ATOM      4  O   UNL     1      -0.447   9.727   3.604  0.00  0.00    -0.491 OA
ATOM     28  C   UNL     1      -0.755  10.512   2.453  0.00  0.00    +0.277 C 
ENDBRANCH  20   4
BRANCH  22   5
ATOM      5  O   UNL     1      -0.228  10.799   6.159  0.00  0.00    -0.491 OA
ATOM     29  C   UNL     1      -0.333  11.613   7.326  0.00  0.00    +0.277 C 
ENDBRANCH  22   5
ENDBRANCH  14  15
BRANCH   9  13
ATOM      2  O   UNL     1      -5.433  10.087   0.948  0.00  0.00    -0.420 OA
ATOM      7  N   UNL     1      -7.545   9.745   0.299  0.00  0.00    -0.112 NA
ATOM      8  N   UNL     1      -6.740   9.699  -0.825  0.00  0.00    -0.107 NA
ATOM     13  C   UNL     1      -6.740   9.973   1.310  0.00  0.00    +0.222 A 
ATOM     16  C   UNL     1      -5.517   9.905  -0.398  0.00  0.00    +0.248 A 
BRANCH  16  19
ATOM      1 CL   UNL     1      -0.381  10.155  -3.382  0.00  0.00    -0.084 Cl
ATOM     19  C   UNL     1      -4.278   9.965  -1.118  0.00  0.00    +0.039 A 
ATOM     23  C   UNL     1      -4.234  10.554  -2.382  0.00  0.00    +0.014 A 
ATOM     24  C   UNL     1      -3.117   9.436  -0.554  0.00  0.00    +0.014 A 
ATOM     25  C   UNL     1      -3.029  10.612  -3.082  0.00  0.00    +0.021 A 
ATOM     26  C   UNL     1      -1.911   9.494  -1.254  0.00  0.00    +0.021 A 
ATOM     27  C   UNL     1      -1.868  10.083  -2.518  0.00  0.00    +0.041 A 
ENDBRANCH  16  19
ENDBRANCH   9  13
TORSDOF 5
ENDMDL
