REMARK  Name = 26742544
REMARK  10 active torsions:
REMARK  status: ('A' for Active; 'I' for Inactive)
REMARK    1  A    between atoms: O_3  and  C_20
REMARK    2  A    between atoms: O_3  and  C_25
REMARK    3  A    between atoms: O_4  and  C_22
REMARK    4  A    between atoms: O_4  and  C_28
REMARK    5  A    between atoms: O_5  and  C_24
REMARK    6  A    between atoms: O_5  and  C_29
REMARK    7  A    between atoms: N_7  and  C_17
REMARK    8  A    between atoms: C_17  and  C_19
REMARK    9  A    between atoms: C_18  and  C_20
REMARK   10  A    between atoms: C_19  and  C_21
REMARK                            x       y       z     vdW  Elec       q    Type
REMARK                         _______ _______ _______ _____ _____    ______ ____
ROOT
ATOM      1  O   UNL     1       0.560  -3.295  -0.480  0.00  0.00    -0.276 OA
ATOM      2  O   UNL     1      -3.678   2.058  -2.026  0.00  0.00    -0.273 OA
ATOM      6  N   UNL     1      -3.972   0.115  -0.787  0.00  0.00    -0.299 N 
ATOM      7  N   UNL     1      -0.033  -1.892   1.269  0.00  0.00    -0.301 N 
ATOM      8  C   UNL     1      -3.245  -1.490   0.971  0.00  0.00    +0.011 C 
ATOM      9  C   UNL     1      -2.774  -2.443  -0.153  0.00  0.00    +0.004 C 
ATOM     10  C   UNL     1      -2.401  -1.670  -1.432  0.00  0.00    +0.023 C 
ATOM     11  C   UNL     1      -4.375  -0.584   0.440  0.00  0.00    +0.111 C 
ATOM     12  C   UNL     1      -2.137  -0.630   1.608  0.00  0.00    +0.024 C 
ATOM     13  C   UNL     1      -1.690  -3.437   0.281  0.00  0.00    +0.100 C 
ATOM     14  C   UNL     1      -3.545  -0.761  -1.878  0.00  0.00    +0.108 C 
ATOM     15  C   UNL     1      -1.024  -1.452   2.249  0.00  0.00    +0.108 C 
ATOM     16  C   UNL     1      -0.281  -2.874   0.318  0.00  0.00    +0.216 C 
ATOM     18  C   UNL     1      -3.998   1.496  -0.975  0.00  0.00    +0.241 C 
ENDROOT
BRANCH   7  17
ATOM     17  C   UNL     1       1.268  -1.237   1.319  0.00  0.00    +0.112 C 
BRANCH  17  19
ATOM     19  C   UNL     1       1.324   0.021   0.456  0.00  0.00    +0.058 C 
BRANCH  19  21
ATOM     21  C   UNL     1       2.675   0.691   0.480  0.00  0.00    -0.001 A 
ATOM     22  C   UNL     1       3.745   0.167  -0.246  0.00  0.00    +0.165 A 
ATOM     23  C   UNL     1       2.848   1.849   1.239  0.00  0.00    +0.007 A 
ATOM     24  C   UNL     1       4.988   0.800  -0.212  0.00  0.00    +0.162 A 
ATOM     26  C   UNL     1       4.091   2.482   1.273  0.00  0.00    +0.004 A 
ATOM     27  C   UNL     1       5.160   1.958   0.547  0.00  0.00    +0.049 A 
BRANCH  22   4
ATOM      4  O   UNL     1       3.581  -0.964  -0.990  0.00  0.00    -0.491 OA
ATOM     28  C   UNL     1       3.170  -0.793  -2.344  0.00  0.00    +0.277 C 
ENDBRANCH  22   4
BRANCH  24   5
ATOM      5  O   UNL     1       6.041   0.300  -0.917  0.00  0.00    -0.491 OA
ATOM     29  C   UNL     1       7.275   1.008  -0.827  0.00  0.00    +0.277 C 
ENDBRANCH  24   5
ENDBRANCH  19  21
ENDBRANCH  17  19
ENDBRANCH   7  17
BRANCH  18  20
ATOM     20  C   UNL     1      -4.448   2.330   0.198  0.00  0.00    +0.255 C 
BRANCH  20   3
ATOM      3  O   UNL     1      -4.361   3.674  -0.207  0.00  0.00    -0.374 OA
ATOM     25  C   UNL     1      -4.763   4.572   0.826  0.00  0.00    +0.194 C 
ENDBRANCH  20   3
ENDBRANCH  18  20
TORSDOF 7
