MODEL 1
REMARK VINA RESULT:      -6.5      0.000      0.000
REMARK  Name = 75536439
REMARK  7 active torsions:
REMARK  status: ('A' for Active; 'I' for Inactive)
REMARK    1  A    between atoms: O_2  and  C_10
REMARK    2  A    between atoms: N_4  and  C_18
REMARK    3  A    between atoms: N_6  and  C_14
REMARK    4  A    between atoms: C_8  and  C_13
REMARK    5  A    between atoms: C_11  and  C_14
REMARK    6  A    between atoms: C_13  and  C_15
REMARK    7  A    between atoms: C_18  and  C_21
REMARK                            x       y       z     vdW  Elec       q    Type
REMARK                         _______ _______ _______ _____ _____    ______ ____
ROOT
ATOM     13  C   UNL     1      11.623   8.706  17.261  0.00  0.00    +0.090 C 
ENDROOT
BRANCH  13   8
ATOM      1  O   UNL     1      10.748   8.245  19.429  0.00  0.00    -0.369 OA
ATOM      8  C   UNL     1      11.973   8.460  18.724  0.00  0.00    +0.125 C 
ATOM      9  C   UNL     1      12.897   7.251  18.866  0.00  0.00    +0.034 C 
ATOM     10  C   UNL     1      11.829   6.815  21.101  0.00  0.00    +0.145 C 
ATOM     11  C   UNL     1      10.889   7.997  20.834  0.00  0.00    +0.160 C 
ATOM     12  C   UNL     1      13.146   6.935  20.338  0.00  0.00    +0.036 C 
BRANCH  10   2
ATOM      2  O   UNL     1      11.187   5.610  20.674  0.00  0.00    -0.389 OA
ATOM     23  H   UNL     1      11.141   5.631  19.702  0.00  0.00    +0.210 HD
ENDBRANCH  10   2
BRANCH  11  14
ATOM     14  C   UNL     1      11.300   9.266  21.578  0.00  0.00    +0.112 C 
BRANCH  14   6
ATOM      6  N   UNL     1      11.338   9.036  23.014  0.00  0.00    -0.328 NA
ATOM     25  H   UNL     1      10.610   8.368  23.270  0.00  0.00    +0.118 HD
ATOM     26  H   UNL     1      12.224   8.606  23.270  0.00  0.00    +0.118 HD
ENDBRANCH  14   6
ENDBRANCH  11  14
ENDBRANCH  13   8
BRANCH  13  15
ATOM      3  O   UNL     1      14.355   9.232  14.968  0.00  0.00    -0.358 OA
ATOM      7  N   UNL     1      13.282   8.494  15.455  0.00  0.00    -0.083 NA
ATOM     15  C   UNL     1      12.810   9.207  16.481  0.00  0.00    +0.086 A 
ATOM     21  C   UNL     1      14.497  10.359  15.710  0.00  0.00    +0.151 A 
ATOM     22  C   UNL     1      13.538  10.392  16.687  0.00  0.00    +0.072 A 
BRANCH  21  18
ATOM     18  C   UNL     1      15.591  11.261  15.329  0.00  0.00    +0.161 C 
BRANCH  18   4
ATOM      4  N   UNL     1      15.663  11.504  13.890  0.00  0.00    -0.293 NA
ATOM      5  N   UNL     1      15.851  13.224  11.565  0.00  0.00    -0.314 NA
ATOM     16  C   UNL     1      14.514  12.299  13.437  0.00  0.00    +0.100 C 
ATOM     17  C   UNL     1      16.924  12.168  13.535  0.00  0.00    +0.100 C 
ATOM     19  C   UNL     1      14.597  12.561  11.932  0.00  0.00    +0.096 C 
ATOM     20  C   UNL     1      16.991  12.432  12.029  0.00  0.00    +0.096 C 
ATOM     24  H   UNL     1      15.898  13.329  10.552  0.00  0.00    +0.122 HD
ENDBRANCH  18   4
ENDBRANCH  21  18
ENDBRANCH  13  15
TORSDOF 7
ENDMDL
MODEL 2
REMARK VINA RESULT:      -6.1      5.851      8.255
REMARK  Name = 75536439
REMARK  7 active torsions:
REMARK  status: ('A' for Active; 'I' for Inactive)
REMARK    1  A    between atoms: O_2  and  C_10
REMARK    2  A    between atoms: N_4  and  C_18
REMARK    3  A    between atoms: N_6  and  C_14
REMARK    4  A    between atoms: C_8  and  C_13
REMARK    5  A    between atoms: C_11  and  C_14
REMARK    6  A    between atoms: C_13  and  C_15
REMARK    7  A    between atoms: C_18  and  C_21
REMARK                            x       y       z     vdW  Elec       q    Type
REMARK                         _______ _______ _______ _____ _____    ______ ____
ROOT
ATOM     13  C   UNL     1      14.700   6.631  20.489  0.00  0.00    +0.090 C 
ENDROOT
BRANCH  13   8
ATOM      1  O   UNL     1      13.197   7.044  18.686  0.00  0.00    -0.369 OA
ATOM      8  C   UNL     1      14.077   7.702  19.601  0.00  0.00    +0.125 C 
ATOM      9  C   UNL     1      13.315   8.727  20.439  0.00  0.00    +0.034 C 
ATOM     10  C   UNL     1      11.740   9.007  18.498  0.00  0.00    +0.145 C 
ATOM     11  C   UNL     1      12.519   7.908  17.764  0.00  0.00    +0.160 C 
ATOM     12  C   UNL     1      12.593   9.727  19.539  0.00  0.00    +0.036 C 
BRANCH  10   2
ATOM      2  O   UNL     1      10.633   8.410  19.178  0.00  0.00    -0.389 OA
ATOM     23  H   UNL     1      10.696   7.447  19.053  0.00  0.00    +0.210 HD
ENDBRANCH  10   2
BRANCH  11  14
ATOM     14  C   UNL     1      13.484   8.459  16.715  0.00  0.00    +0.112 C 
BRANCH  14   6
ATOM      6  N   UNL     1      12.763   8.910  15.535  0.00  0.00    -0.328 NA
ATOM     25  H   UNL     1      11.859   9.292  15.814  0.00  0.00    +0.118 HD
ATOM     26  H   UNL     1      13.272   9.672  15.092  0.00  0.00    +0.118 HD
ENDBRANCH  14   6
ENDBRANCH  11  14
ENDBRANCH  13   8
BRANCH  13  15
ATOM      3  O   UNL     1      18.001   5.900  19.238  0.00  0.00    -0.358 OA
ATOM      7  N   UNL     1      16.614   5.837  19.162  0.00  0.00    -0.083 NA
ATOM     15  C   UNL     1      16.179   6.493  20.241  0.00  0.00    +0.086 A 
ATOM     21  C   UNL     1      18.357   6.588  20.352  0.00  0.00    +0.151 A 
ATOM     22  C   UNL     1      17.234   6.988  21.026  0.00  0.00    +0.072 A 
BRANCH  21  18
ATOM     18  C   UNL     1      19.797   6.751  20.589  0.00  0.00    +0.161 C 
BRANCH  18   4
ATOM      4  N   UNL     1      20.383   5.653  21.354  0.00  0.00    -0.293 NA
ATOM      5  N   UNL     1      22.593   3.974  22.187  0.00  0.00    -0.314 NA
ATOM     16  C   UNL     1      20.945   4.634  20.457  0.00  0.00    +0.100 C 
ATOM     17  C   UNL     1      21.409   6.150  22.279  0.00  0.00    +0.100 C 
ATOM     19  C   UNL     1      21.568   3.491  21.261  0.00  0.00    +0.096 C 
ATOM     20  C   UNL     1      22.029   4.996  23.071  0.00  0.00    +0.096 C 
ATOM     24  H   UNL     1      22.943   3.196  22.746  0.00  0.00    +0.122 HD
ENDBRANCH  18   4
ENDBRANCH  21  18
ENDBRANCH  13  15
TORSDOF 7
ENDMDL
MODEL 3
REMARK VINA RESULT:      -6.0      5.638      7.196
REMARK  Name = 75536439
REMARK  7 active torsions:
REMARK  status: ('A' for Active; 'I' for Inactive)
REMARK    1  A    between atoms: O_2  and  C_10
REMARK    2  A    between atoms: N_4  and  C_18
REMARK    3  A    between atoms: N_6  and  C_14
REMARK    4  A    between atoms: C_8  and  C_13
REMARK    5  A    between atoms: C_11  and  C_14
REMARK    6  A    between atoms: C_13  and  C_15
REMARK    7  A    between atoms: C_18  and  C_21
REMARK                            x       y       z     vdW  Elec       q    Type
REMARK                         _______ _______ _______ _____ _____    ______ ____
ROOT
ATOM     13  C   UNL     1      14.830   7.264  18.772  0.00  0.00    +0.090 C 
ENDROOT
BRANCH  13   8
ATOM      1  O   UNL     1      13.344   8.904  19.657  0.00  0.00    -0.369 OA
ATOM      8  C   UNL     1      13.821   7.572  19.871  0.00  0.00    +0.125 C 
ATOM      9  C   UNL     1      12.663   6.575  19.841  0.00  0.00    +0.034 C 
ATOM     10  C   UNL     1      11.175   8.416  20.690  0.00  0.00    +0.145 C 
ATOM     11  C   UNL     1      12.377   9.366  20.609  0.00  0.00    +0.160 C 
ATOM     12  C   UNL     1      11.596   6.959  20.863  0.00  0.00    +0.036 C 
BRANCH  10   2
ATOM      2  O   UNL     1      10.429   8.513  19.474  0.00  0.00    -0.389 OA
ATOM     23  H   UNL     1      10.030   7.643  19.304  0.00  0.00    +0.210 HD
ENDBRANCH  10   2
BRANCH  11  14
ATOM     14  C   UNL     1      13.025   9.627  21.968  0.00  0.00    +0.112 C 
BRANCH  14   6
ATOM      6  N   UNL     1      12.015   9.892  22.981  0.00  0.00    -0.328 NA
ATOM     25  H   UNL     1      12.442  10.379  23.768  0.00  0.00    +0.118 HD
ATOM     26  H   UNL     1      11.307  10.520  22.604  0.00  0.00    +0.118 HD
ENDBRANCH  14   6
ENDBRANCH  11  14
ENDBRANCH  13   8
BRANCH  13  15
ATOM      3  O   UNL     1      17.933   5.591  19.523  0.00  0.00    -0.358 OA
ATOM      7  N   UNL     1      16.779   5.763  18.767  0.00  0.00    -0.083 NA
ATOM     15  C   UNL     1      16.142   6.788  19.338  0.00  0.00    +0.086 A 
ATOM     21  C   UNL     1      17.956   6.512  20.521  0.00  0.00    +0.151 A 
ATOM     22  C   UNL     1      16.838   7.300  20.447  0.00  0.00    +0.072 A 
BRANCH  21  18
ATOM     18  C   UNL     1      19.115   6.474  21.421  0.00  0.00    +0.161 C 
BRANCH  18   4
ATOM      4  N   UNL     1      20.394   6.459  20.715  0.00  0.00    -0.293 NA
ATOM      5  N   UNL     1      23.288   6.546  20.607  0.00  0.00    -0.314 NA
ATOM     16  C   UNL     1      21.126   7.713  20.933  0.00  0.00    +0.100 C 
ATOM     17  C   UNL     1      21.205   5.308  21.130  0.00  0.00    +0.100 C 
ATOM     19  C   UNL     1      22.469   7.690  20.201  0.00  0.00    +0.096 C 
ATOM     20  C   UNL     1      22.549   5.300  20.396  0.00  0.00    +0.096 C 
ATOM     24  H   UNL     1      24.147   6.530  20.057  0.00  0.00    +0.122 HD
ENDBRANCH  18   4
ENDBRANCH  21  18
ENDBRANCH  13  15
TORSDOF 7
ENDMDL
MODEL 4
REMARK VINA RESULT:      -6.0      5.814      8.679
REMARK  Name = 75536439
REMARK  7 active torsions:
REMARK  status: ('A' for Active; 'I' for Inactive)
REMARK    1  A    between atoms: O_2  and  C_10
REMARK    2  A    between atoms: N_4  and  C_18
REMARK    3  A    between atoms: N_6  and  C_14
REMARK    4  A    between atoms: C_8  and  C_13
REMARK    5  A    between atoms: C_11  and  C_14
REMARK    6  A    between atoms: C_13  and  C_15
REMARK    7  A    between atoms: C_18  and  C_21
REMARK                            x       y       z     vdW  Elec       q    Type
REMARK                         _______ _______ _______ _____ _____    ______ ____
ROOT
ATOM     13  C   UNL     1      18.219   5.939  20.078  0.00  0.00    +0.090 C 
ENDROOT
BRANCH  13   8
ATOM      1  O   UNL     1      19.120   6.609  22.180  0.00  0.00    -0.369 OA
ATOM      8  C   UNL     1      19.409   6.583  20.779  0.00  0.00    +0.125 C 
ATOM      9  C   UNL     1      20.690   5.796  20.508  0.00  0.00    +0.034 C 
ATOM     10  C   UNL     1      21.493   6.495  22.787  0.00  0.00    +0.145 C 
ATOM     11  C   UNL     1      20.141   7.189  23.002  0.00  0.00    +0.160 C 
ATOM     12  C   UNL     1      21.855   6.372  21.309  0.00  0.00    +0.036 C 
BRANCH  10   2
ATOM      2  O   UNL     1      21.422   5.174  23.330  0.00  0.00    -0.389 OA
ATOM     23  H   UNL     1      21.504   4.547  22.590  0.00  0.00    +0.210 HD
ENDBRANCH  10   2
BRANCH  11  14
ATOM     14  C   UNL     1      20.211   8.703  22.807  0.00  0.00    +0.112 C 
BRANCH  14   6
ATOM      6  N   UNL     1      18.877   9.278  22.730  0.00  0.00    -0.328 NA
ATOM     25  H   UNL     1      18.503   9.146  21.791  0.00  0.00    +0.118 HD
ATOM     26  H   UNL     1      18.251   8.779  23.360  0.00  0.00    +0.118 HD
ENDBRANCH  14   6
ENDBRANCH  11  14
ENDBRANCH  13   8
BRANCH  13  15
ATOM      3  O   UNL     1      15.920   8.712  20.219  0.00  0.00    -0.358 OA
ATOM      7  N   UNL     1      17.170   8.138  20.420  0.00  0.00    -0.083 NA
ATOM     15  C   UNL     1      17.041   6.875  20.009  0.00  0.00    +0.086 A 
ATOM     21  C   UNL     1      15.080   7.782  19.697  0.00  0.00    +0.151 A 
ATOM     22  C   UNL     1      15.745   6.594  19.543  0.00  0.00    +0.072 A 
BRANCH  21  18
ATOM     18  C   UNL     1      13.706   8.221  19.421  0.00  0.00    +0.161 C 
BRANCH  18   4
ATOM      4  N   UNL     1      12.787   7.970  20.528  0.00  0.00    -0.293 NA
ATOM      5  N   UNL     1      10.168   7.415  21.639  0.00  0.00    -0.314 NA
ATOM     16  C   UNL     1      11.753   9.010  20.595  0.00  0.00    +0.100 C 
ATOM     17  C   UNL     1      12.176   6.640  20.407  0.00  0.00    +0.100 C 
ATOM     19  C   UNL     1      10.786   8.739  21.749  0.00  0.00    +0.096 C 
ATOM     20  C   UNL     1      11.205   6.383  21.562  0.00  0.00    +0.096 C 
ATOM     24  H   UNL     1       9.578   7.245  22.453  0.00  0.00    +0.122 HD
ENDBRANCH  18   4
ENDBRANCH  21  18
ENDBRANCH  13  15
TORSDOF 7
ENDMDL
MODEL 5
REMARK VINA RESULT:      -5.9      5.546      7.101
REMARK  Name = 75536439
REMARK  7 active torsions:
REMARK  status: ('A' for Active; 'I' for Inactive)
REMARK    1  A    between atoms: O_2  and  C_10
REMARK    2  A    between atoms: N_4  and  C_18
REMARK    3  A    between atoms: N_6  and  C_14
REMARK    4  A    between atoms: C_8  and  C_13
REMARK    5  A    between atoms: C_11  and  C_14
REMARK    6  A    between atoms: C_13  and  C_15
REMARK    7  A    between atoms: C_18  and  C_21
REMARK                            x       y       z     vdW  Elec       q    Type
REMARK                         _______ _______ _______ _____ _____    ______ ____
ROOT
ATOM     13  C   UNL     1      14.563   7.509  18.365  0.00  0.00    +0.090 C 
ENDROOT
BRANCH  13   8
ATOM      1  O   UNL     1      13.616   7.117  20.516  0.00  0.00    -0.369 OA
ATOM      8  C   UNL     1      13.488   7.942  19.355  0.00  0.00    +0.125 C 
ATOM      9  C   UNL     1      13.647   9.416  19.721  0.00  0.00    +0.034 C 
ATOM     10  C   UNL     1      12.720   8.859  21.991  0.00  0.00    +0.145 C 
ATOM     11  C   UNL     1      12.673   7.387  21.562  0.00  0.00    +0.160 C 
ATOM     12  C   UNL     1      12.646   9.813  20.802  0.00  0.00    +0.036 C 
BRANCH  10   2
ATOM      2  O   UNL     1      13.956   9.101  22.669  0.00  0.00    -0.389 OA
ATOM     23  H   UNL     1      13.801   8.966  23.620  0.00  0.00    +0.210 HD
ENDBRANCH  10   2
BRANCH  11  14
ATOM     14  C   UNL     1      11.270   6.924  21.171  0.00  0.00    +0.112 C 
BRANCH  14   6
ATOM      6  N   UNL     1      11.249   5.491  20.920  0.00  0.00    -0.328 NA
ATOM     25  H   UNL     1      12.204   5.135  20.896  0.00  0.00    +0.118 HD
ATOM     26  H   UNL     1      10.785   5.014  21.691  0.00  0.00    +0.118 HD
ENDBRANCH  14   6
ENDBRANCH  11  14
ENDBRANCH  13   8
BRANCH  13  15
ATOM      3  O   UNL     1      17.450   5.701  19.544  0.00  0.00    -0.358 OA
ATOM      7  N   UNL     1      16.344   5.848  18.715  0.00  0.00    -0.083 NA
ATOM     15  C   UNL     1      15.800   7.015  19.068  0.00  0.00    +0.086 A 
ATOM     21  C   UNL     1      17.539   6.777  20.367  0.00  0.00    +0.151 A 
ATOM     22  C   UNL     1      16.512   7.645  20.104  0.00  0.00    +0.072 A 
BRANCH  21  18
ATOM     18  C   UNL     1      18.659   6.786  21.316  0.00  0.00    +0.161 C 
BRANCH  18   4
ATOM      4  N   UNL     1      19.966   6.719  20.665  0.00  0.00    -0.293 NA
ATOM      5  N   UNL     1      22.863   6.654  20.684  0.00  0.00    -0.314 NA
ATOM     16  C   UNL     1      20.752   7.927  20.947  0.00  0.00    +0.100 C 
ATOM     17  C   UNL     1      20.696   5.517  21.085  0.00  0.00    +0.100 C 
ATOM     19  C   UNL     1      22.124   7.850  20.273  0.00  0.00    +0.096 C 
ATOM     20  C   UNL     1      22.069   5.455  20.410  0.00  0.00    +0.096 C 
ATOM     24  H   UNL     1      23.744   6.604  20.172  0.00  0.00    +0.122 HD
ENDBRANCH  18   4
ENDBRANCH  21  18
ENDBRANCH  13  15
TORSDOF 7
ENDMDL
MODEL 6
REMARK VINA RESULT:      -5.9      6.312      9.126
REMARK  Name = 75536439
REMARK  7 active torsions:
REMARK  status: ('A' for Active; 'I' for Inactive)
REMARK    1  A    between atoms: O_2  and  C_10
REMARK    2  A    between atoms: N_4  and  C_18
REMARK    3  A    between atoms: N_6  and  C_14
REMARK    4  A    between atoms: C_8  and  C_13
REMARK    5  A    between atoms: C_11  and  C_14
REMARK    6  A    between atoms: C_13  and  C_15
REMARK    7  A    between atoms: C_18  and  C_21
REMARK                            x       y       z     vdW  Elec       q    Type
REMARK                         _______ _______ _______ _____ _____    ______ ____
ROOT
ATOM     13  C   UNL     1      18.469   7.973  21.170  0.00  0.00    +0.090 C 
ENDROOT
BRANCH  13   8
ATOM      1  O   UNL     1      20.437   6.825  20.474  0.00  0.00    -0.369 OA
ATOM      8  C   UNL     1      19.473   6.883  21.528  0.00  0.00    +0.125 C 
ATOM      9  C   UNL     1      20.152   7.187  22.863  0.00  0.00    +0.034 C 
ATOM     10  C   UNL     1      22.202   6.029  21.978  0.00  0.00    +0.145 C 
ATOM     11  C   UNL     1      21.468   5.843  20.645  0.00  0.00    +0.160 C 
ATOM     12  C   UNL     1      21.241   6.160  23.157  0.00  0.00    +0.036 C 
BRANCH  10   2
ATOM      2  O   UNL     1      22.977   7.230  21.912  0.00  0.00    -0.389 OA
ATOM     23  H   UNL     1      23.629   7.119  21.199  0.00  0.00    +0.210 HD
ENDBRANCH  10   2
BRANCH  11  14
ATOM     14  C   UNL     1      20.917   4.429  20.460  0.00  0.00    +0.112 C 
BRANCH  14   6
ATOM      6  N   UNL     1      21.937   3.434  20.750  0.00  0.00    -0.328 NA
ATOM     25  H   UNL     1      21.937   2.723  20.019  0.00  0.00    +0.118 HD
ATOM     26  H   UNL     1      22.858   3.868  20.726  0.00  0.00    +0.118 HD
ENDBRANCH  14   6
ENDBRANCH  11  14
ENDBRANCH  13   8
BRANCH  13  15
ATOM      3  O   UNL     1      16.138   6.036  19.219  0.00  0.00    -0.358 OA
ATOM      7  N   UNL     1      17.391   6.252  19.781  0.00  0.00    -0.083 NA
ATOM     15  C   UNL     1      17.284   7.416  20.427  0.00  0.00    +0.086 A 
ATOM     21  C   UNL     1      15.319   7.069  19.541  0.00  0.00    +0.151 A 
ATOM     22  C   UNL     1      16.000   7.975  20.311  0.00  0.00    +0.072 A 
BRANCH  21  18
ATOM     18  C   UNL     1      13.946   7.002  19.025  0.00  0.00    +0.161 C 
BRANCH  18   4
ATOM      4  N   UNL     1      12.947   7.469  19.984  0.00  0.00    -0.293 NA
ATOM      5  N   UNL     1      10.248   7.650  21.024  0.00  0.00    -0.314 NA
ATOM     16  C   UNL     1      11.930   8.293  19.320  0.00  0.00    +0.100 C 
ATOM     17  C   UNL     1      12.322   6.336  20.679  0.00  0.00    +0.100 C 
ATOM     19  C   UNL     1      10.880   8.771  20.324  0.00  0.00    +0.096 C 
ATOM     20  C   UNL     1      11.268   6.827  21.676  0.00  0.00    +0.096 C 
ATOM     24  H   UNL     1       9.599   8.007  21.725  0.00  0.00    +0.122 HD
ENDBRANCH  18   4
ENDBRANCH  21  18
ENDBRANCH  13  15
TORSDOF 7
ENDMDL
MODEL 7
REMARK VINA RESULT:      -5.7      6.169      8.043
REMARK  Name = 75536439
REMARK  7 active torsions:
REMARK  status: ('A' for Active; 'I' for Inactive)
REMARK    1  A    between atoms: O_2  and  C_10
REMARK    2  A    between atoms: N_4  and  C_18
REMARK    3  A    between atoms: N_6  and  C_14
REMARK    4  A    between atoms: C_8  and  C_13
REMARK    5  A    between atoms: C_11  and  C_14
REMARK    6  A    between atoms: C_13  and  C_15
REMARK    7  A    between atoms: C_18  and  C_21
REMARK                            x       y       z     vdW  Elec       q    Type
REMARK                         _______ _______ _______ _____ _____    ______ ____
ROOT
ATOM     13  C   UNL     1      18.323   8.062  21.153  0.00  0.00    +0.090 C 
ENDROOT
BRANCH  13   8
ATOM      1  O   UNL     1      20.302   6.917  20.481  0.00  0.00    -0.369 OA
ATOM      8  C   UNL     1      19.320   6.969  21.519  0.00  0.00    +0.125 C 
ATOM      9  C   UNL     1      19.977   7.262  22.868  0.00  0.00    +0.034 C 
ATOM     10  C   UNL     1      22.041   6.109  22.009  0.00  0.00    +0.145 C 
ATOM     11  C   UNL     1      21.329   5.933  20.662  0.00  0.00    +0.160 C 
ATOM     12  C   UNL     1      21.060   6.231  23.173  0.00  0.00    +0.036 C 
BRANCH  10   2
ATOM      2  O   UNL     1      22.817   7.309  21.965  0.00  0.00    -0.389 OA
ATOM     23  H   UNL     1      22.320   7.962  21.442  0.00  0.00    +0.210 HD
ENDBRANCH  10   2
BRANCH  11  14
ATOM     14  C   UNL     1      20.780   4.522  20.457  0.00  0.00    +0.112 C 
BRANCH  14   6
ATOM      6  N   UNL     1      21.788   3.523  20.778  0.00  0.00    -0.328 NA
ATOM     25  H   UNL     1      21.675   2.716  20.164  0.00  0.00    +0.118 HD
ATOM     26  H   UNL     1      22.716   3.898  20.591  0.00  0.00    +0.118 HD
ENDBRANCH  14   6
ENDBRANCH  11  14
ENDBRANCH  13   8
BRANCH  13  15
ATOM      3  O   UNL     1      15.898   6.083  19.366  0.00  0.00    -0.358 OA
ATOM      7  N   UNL     1      17.165   6.291  19.898  0.00  0.00    -0.083 NA
ATOM     15  C   UNL     1      17.109   7.499  20.464  0.00  0.00    +0.086 A 
ATOM     21  C   UNL     1      15.121   7.166  19.625  0.00  0.00    +0.151 A 
ATOM     22  C   UNL     1      15.844   8.097  20.322  0.00  0.00    +0.072 A 
BRANCH  21  18
ATOM     18  C   UNL     1      13.740   7.115  19.130  0.00  0.00    +0.161 C 
BRANCH  18   4
ATOM      4  N   UNL     1      13.469   8.089  18.075  0.00  0.00    -0.293 NA
ATOM      5  N   UNL     1      12.592   8.846  15.419  0.00  0.00    -0.314 NA
ATOM     16  C   UNL     1      14.302   7.825  16.895  0.00  0.00    +0.100 C 
ATOM     17  C   UNL     1      12.046   8.086  17.714  0.00  0.00    +0.100 C 
ATOM     19  C   UNL     1      14.009   8.840  15.788  0.00  0.00    +0.096 C 
ATOM     20  C   UNL     1      11.767   9.099  16.601  0.00  0.00    +0.096 C 
ATOM     24  H   UNL     1      12.424   9.573  14.724  0.00  0.00    +0.122 HD
ENDBRANCH  18   4
ENDBRANCH  21  18
ENDBRANCH  13  15
TORSDOF 7
ENDMDL
MODEL 8
REMARK VINA RESULT:      -5.6     26.413     28.074
REMARK  Name = 75536439
REMARK  7 active torsions:
REMARK  status: ('A' for Active; 'I' for Inactive)
REMARK    1  A    between atoms: O_2  and  C_10
REMARK    2  A    between atoms: N_4  and  C_18
REMARK    3  A    between atoms: N_6  and  C_14
REMARK    4  A    between atoms: C_8  and  C_13
REMARK    5  A    between atoms: C_11  and  C_14
REMARK    6  A    between atoms: C_13  and  C_15
REMARK    7  A    between atoms: C_18  and  C_21
REMARK                            x       y       z     vdW  Elec       q    Type
REMARK                         _______ _______ _______ _____ _____    ______ ____
ROOT
ATOM     13  C   UNL     1      -2.603 -11.393  12.024  0.00  0.00    +0.090 C 
ENDROOT
BRANCH  13   8
ATOM      1  O   UNL     1      -4.096  -9.612  11.498  0.00  0.00    -0.369 OA
ATOM      8  C   UNL     1      -3.891 -11.013  11.302  0.00  0.00    +0.125 C 
ATOM      9  C   UNL     1      -3.796 -11.341   9.813  0.00  0.00    +0.034 C 
ATOM     10  C   UNL     1      -5.306  -9.378   9.378  0.00  0.00    +0.145 C 
ATOM     11  C   UNL     1      -5.275  -9.077  10.882  0.00  0.00    +0.160 C 
ATOM     12  C   UNL     1      -5.037 -10.849   9.074  0.00  0.00    +0.036 C 
BRANCH  10   2
ATOM      2  O   UNL     1      -4.288  -8.606   8.734  0.00  0.00    -0.389 OA
ATOM     23  H   UNL     1      -4.725  -8.024   8.089  0.00  0.00    +0.210 HD
ENDBRANCH  10   2
BRANCH  11  14
ATOM     14  C   UNL     1      -6.536  -9.543  11.609  0.00  0.00    +0.112 C 
BRANCH  14   6
ATOM      6  N   UNL     1      -6.661  -8.888  12.901  0.00  0.00    -0.328 NA
ATOM     25  H   UNL     1      -5.783  -8.424  13.134  0.00  0.00    +0.118 HD
ATOM     26  H   UNL     1      -7.367  -8.156  12.849  0.00  0.00    +0.118 HD
ENDBRANCH  14   6
ENDBRANCH  11  14
ENDBRANCH  13   8
BRANCH  13  15
ATOM      3  O   UNL     1      -2.195 -10.222  15.408  0.00  0.00    -0.358 OA
ATOM      7  N   UNL     1      -1.843 -10.246  14.064  0.00  0.00    -0.083 NA
ATOM     15  C   UNL     1      -2.689 -11.112  13.501  0.00  0.00    +0.086 A 
ATOM     21  C   UNL     1      -3.236 -11.068  15.614  0.00  0.00    +0.151 A 
ATOM     22  C   UNL     1      -3.589 -11.661  14.430  0.00  0.00    +0.072 A 
BRANCH  21  18
ATOM     18  C   UNL     1      -3.739 -11.167  16.990  0.00  0.00    +0.161 C 
BRANCH  18   4
ATOM      4  N   UNL     1      -5.180 -10.949  17.093  0.00  0.00    -0.293 NA
ATOM      5  N   UNL     1      -7.517  -9.490  17.992  0.00  0.00    -0.314 NA
ATOM     16  C   UNL     1      -5.618 -11.002  18.494  0.00  0.00    +0.100 C 
ATOM     17  C   UNL     1      -5.560  -9.670  16.480  0.00  0.00    +0.100 C 
ATOM     19  C   UNL     1      -7.125 -10.764  18.599  0.00  0.00    +0.096 C 
ATOM     20  C   UNL     1      -7.069  -9.440  16.599  0.00  0.00    +0.096 C 
ATOM     24  H   UNL     1      -8.531  -9.393  18.027  0.00  0.00    +0.122 HD
ENDBRANCH  18   4
ENDBRANCH  21  18
ENDBRANCH  13  15
TORSDOF 7
ENDMDL
MODEL 9
REMARK VINA RESULT:      -5.6      6.993      9.245
REMARK  Name = 75536439
REMARK  7 active torsions:
REMARK  status: ('A' for Active; 'I' for Inactive)
REMARK    1  A    between atoms: O_2  and  C_10
REMARK    2  A    between atoms: N_4  and  C_18
REMARK    3  A    between atoms: N_6  and  C_14
REMARK    4  A    between atoms: C_8  and  C_13
REMARK    5  A    between atoms: C_11  and  C_14
REMARK    6  A    between atoms: C_13  and  C_15
REMARK    7  A    between atoms: C_18  and  C_21
REMARK                            x       y       z     vdW  Elec       q    Type
REMARK                         _______ _______ _______ _____ _____    ______ ____
ROOT
ATOM     13  C   UNL     1      19.781   5.272  20.363  0.00  0.00    +0.090 C 
ENDROOT
BRANCH  13   8
ATOM      1  O   UNL     1      20.967   5.367  22.428  0.00  0.00    -0.369 OA
ATOM      8  C   UNL     1      20.712   6.109  21.232  0.00  0.00    +0.125 C 
ATOM      9  C   UNL     1      22.017   6.410  20.498  0.00  0.00    +0.034 C 
ATOM     10  C   UNL     1      23.172   6.393  22.731  0.00  0.00    +0.145 C 
ATOM     11  C   UNL     1      21.832   6.011  23.372  0.00  0.00    +0.160 C 
ATOM     12  C   UNL     1      22.993   7.143  21.414  0.00  0.00    +0.036 C 
BRANCH  10   2
ATOM      2  O   UNL     1      23.909   5.198  22.457  0.00  0.00    -0.389 OA
ATOM     23  H   UNL     1      23.747   4.579  23.190  0.00  0.00    +0.210 HD
ENDBRANCH  10   2
BRANCH  11  14
ATOM     14  C   UNL     1      21.133   7.192  24.043  0.00  0.00    +0.112 C 
BRANCH  14   6
ATOM      6  N   UNL     1      20.030   6.737  24.875  0.00  0.00    -0.328 NA
ATOM     25  H   UNL     1      19.684   5.845  24.523  0.00  0.00    +0.118 HD
ATOM     26  H   UNL     1      20.362   6.561  25.821  0.00  0.00    +0.118 HD
ENDBRANCH  14   6
ENDBRANCH  11  14
ENDBRANCH  13   8
BRANCH  13  15
ATOM      3  O   UNL     1      16.583   6.446  19.186  0.00  0.00    -0.358 OA
ATOM      7  N   UNL     1      17.719   5.653  19.076  0.00  0.00    -0.083 NA
ATOM     15  C   UNL     1      18.457   5.955  20.147  0.00  0.00    +0.086 A 
ATOM     21  C   UNL     1      16.670   7.198  20.312  0.00  0.00    +0.151 A 
ATOM     22  C   UNL     1      17.844   6.923  20.961  0.00  0.00    +0.072 A 
BRANCH  21  18
ATOM     18  C   UNL     1      15.545   8.101  20.586  0.00  0.00    +0.161 C 
BRANCH  18   4
ATOM      4  N   UNL     1      14.254   7.554  20.175  0.00  0.00    -0.293 NA
ATOM      5  N   UNL     1      11.373   7.669  19.879  0.00  0.00    -0.314 NA
ATOM     16  C   UNL     1      13.363   7.392  21.331  0.00  0.00    +0.100 C 
ATOM     17  C   UNL     1      13.628   8.404  19.155  0.00  0.00    +0.100 C 
ATOM     19  C   UNL     1      12.009   6.829  20.897  0.00  0.00    +0.096 C 
ATOM     20  C   UNL     1      12.270   7.834  18.734  0.00  0.00    +0.096 C 
ATOM     24  H   UNL     1      10.504   7.234  19.571  0.00  0.00    +0.122 HD
ENDBRANCH  18   4
ENDBRANCH  21  18
ENDBRANCH  13  15
TORSDOF 7
ENDMDL
MODEL 10
REMARK VINA RESULT:      -5.5     12.819     15.130
REMARK  Name = 75536439
REMARK  7 active torsions:
REMARK  status: ('A' for Active; 'I' for Inactive)
REMARK    1  A    between atoms: O_2  and  C_10
REMARK    2  A    between atoms: N_4  and  C_18
REMARK    3  A    between atoms: N_6  and  C_14
REMARK    4  A    between atoms: C_8  and  C_13
REMARK    5  A    between atoms: C_11  and  C_14
REMARK    6  A    between atoms: C_13  and  C_15
REMARK    7  A    between atoms: C_18  and  C_21
REMARK                            x       y       z     vdW  Elec       q    Type
REMARK                         _______ _______ _______ _____ _____    ______ ____
ROOT
ATOM     13  C   UNL     1      11.505   6.292   4.633  0.00  0.00    +0.090 C 
ENDROOT
BRANCH  13   8
ATOM      1  O   UNL     1      10.940   6.360   6.947  0.00  0.00    -0.369 OA
ATOM      8  C   UNL     1      10.368   6.214   5.645  0.00  0.00    +0.125 C 
ATOM      9  C   UNL     1       9.333   7.307   5.385  0.00  0.00    +0.034 C 
ATOM     10  C   UNL     1       8.892   7.351   7.860  0.00  0.00    +0.145 C 
ATOM     11  C   UNL     1      10.005   6.310   8.033  0.00  0.00    +0.160 C 
ATOM     12  C   UNL     1       8.261   7.302   6.471  0.00  0.00    +0.036 C 
BRANCH  10   2
ATOM      2  O   UNL     1       9.450   8.655   8.041  0.00  0.00    -0.389 OA
ATOM     23  H   UNL     1       8.784   9.198   8.498  0.00  0.00    +0.210 HD
ENDBRANCH  10   2
BRANCH  11  14
ATOM     14  C   UNL     1       9.471   4.892   8.233  0.00  0.00    +0.112 C 
BRANCH  14   6
ATOM      6  N   UNL     1      10.563   3.943   8.383  0.00  0.00    -0.328 NA
ATOM     25  H   UNL     1      10.915   3.978   9.340  0.00  0.00    +0.118 HD
ATOM     26  H   UNL     1      10.218   2.996   8.240  0.00  0.00    +0.118 HD
ENDBRANCH  14   6
ENDBRANCH  11  14
ENDBRANCH  13   8
BRANCH  13  15
ATOM      3  O   UNL     1      10.663   3.858   2.111  0.00  0.00    -0.358 OA
ATOM      7  N   UNL     1      10.922   4.229   3.425  0.00  0.00    -0.083 NA
ATOM     15  C   UNL     1      11.179   5.538   3.370  0.00  0.00    +0.086 A 
ATOM     21  C   UNL     1      10.771   4.948   1.308  0.00  0.00    +0.151 A 
ATOM     22  C   UNL     1      11.098   6.045   2.062  0.00  0.00    +0.072 A 
BRANCH  21  18
ATOM     18  C   UNL     1      10.527   4.735  -0.123  0.00  0.00    +0.161 C 
BRANCH  18   4
ATOM      4  N   UNL     1      11.593   3.985  -0.784  0.00  0.00    -0.293 NA
ATOM      5  N   UNL     1      13.461   3.509  -2.948  0.00  0.00    -0.314 NA
ATOM     16  C   UNL     1      11.140   3.464  -2.080  0.00  0.00    +0.100 C 
ATOM     17  C   UNL     1      12.790   4.818  -0.952  0.00  0.00    +0.100 C 
ATOM     19  C   UNL     1      12.261   2.688  -2.774  0.00  0.00    +0.096 C 
ATOM     20  C   UNL     1      13.902   4.034  -1.654  0.00  0.00    +0.096 C 
ATOM     24  H   UNL     1      14.205   2.945  -3.358  0.00  0.00    +0.122 HD
ENDBRANCH  18   4
ENDBRANCH  21  18
ENDBRANCH  13  15
TORSDOF 7
ENDMDL
