MODEL 1
REMARK VINA RESULT:      -6.1      0.000      0.000
REMARK  Name = 75367059
REMARK  10 active torsions:
REMARK  status: ('A' for Active; 'I' for Inactive)
REMARK    1  A    between atoms: O_2  and  C_11
REMARK    2  A    between atoms: N_4  and  C_6
REMARK    3  A    between atoms: N_4  and  C_7
REMARK    4  A    between atoms: N_5  and  C_14
REMARK    5  A    between atoms: C_12  and  C_14
REMARK    6  A    between atoms: C_15  and  C_16
REMARK    7  A    between atoms: C_15  and  C_18
REMARK    8  A    between atoms: C_15  and  C_19
REMARK    9  A    between atoms: C_15  and  C_20
REMARK   10  A    between atoms: C_16  and  C_17
REMARK                            x       y       z     vdW  Elec       q    Type
REMARK                         _______ _______ _______ _____ _____    ______ ____
ROOT
ATOM      1  O   UNL     1      10.931   8.724  20.206  0.00  0.00    -0.371 OA
ATOM      7  C   UNL     1      12.392   6.931  19.665  0.00  0.00    +0.111 C 
ATOM     11  C   UNL     1      12.089   6.892  21.152  0.00  0.00    +0.164 C 
ATOM     12  C   UNL     1      10.803   7.705  21.210  0.00  0.00    +0.165 C 
ATOM     13  C   UNL     1      11.999   8.358  19.316  0.00  0.00    +0.181 C 
ENDROOT
BRANCH  11   2
ATOM      2  O   UNL     1      11.905   5.577  21.638  0.00  0.00    -0.388 OA
ATOM     22  H   UNL     1      11.169   5.586  22.273  0.00  0.00    +0.210 HD
ENDBRANCH  11   2
BRANCH   7   4
ATOM      4  N   UNL     1      13.778   6.630  19.343  0.00  0.00    -0.306 NA
ATOM     21  H   UNL     1      13.969   6.975  18.402  0.00  0.00    +0.123 HD
BRANCH   4   6
ATOM      6  C   UNL     1      14.649   7.217  20.350  0.00  0.00    +0.054 C 
ATOM      8  C   UNL     1      15.575   8.255  19.680  0.00  0.00    +0.019 C 
ATOM      9  C   UNL     1      15.898   6.325  20.525  0.00  0.00    +0.019 C 
ATOM     10  C   UNL     1      16.726   7.630  20.502  0.00  0.00    +0.003 C 
ENDBRANCH   4   6
ENDBRANCH   7   4
BRANCH  12  14
ATOM     14  C   UNL     1      10.559   8.347  22.565  0.00  0.00    +0.138 C 
BRANCH  14   5
ATOM      3  O   UNL     1      12.626  10.355  22.856  0.00  0.00    -0.276 OA
ATOM      5  N   UNL     1      10.411   9.780  22.452  0.00  0.00    -0.313 N 
ATOM     17  C   UNL     1      11.463  10.666  22.608  0.00  0.00    +0.214 C 
ATOM     23  H   UNL     1       9.485  10.139  22.238  0.00  0.00    +0.149 HD
BRANCH  17  16
ATOM     16  C   UNL     1      11.046  12.119  22.450  0.00  0.00    +0.102 C 
BRANCH  16  15
ATOM     15  C   UNL     1      11.101  12.953  23.752  0.00  0.00    -0.029 C 
ATOM     18  C   UNL     1      10.889  12.073  24.994  0.00  0.00    +0.011 C 
ATOM     19  C   UNL     1      12.444  13.693  23.879  0.00  0.00    +0.011 C 
ATOM     20  C   UNL     1       9.971  13.999  23.697  0.00  0.00    +0.011 C 
ENDBRANCH  16  15
ENDBRANCH  17  16
ENDBRANCH  14   5
ENDBRANCH  12  14
TORSDOF 7
ENDMDL
MODEL 2
REMARK VINA RESULT:      -5.7      1.634      2.285
REMARK  Name = 75367059
REMARK  10 active torsions:
REMARK  status: ('A' for Active; 'I' for Inactive)
REMARK    1  A    between atoms: O_2  and  C_11
REMARK    2  A    between atoms: N_4  and  C_6
REMARK    3  A    between atoms: N_4  and  C_7
REMARK    4  A    between atoms: N_5  and  C_14
REMARK    5  A    between atoms: C_12  and  C_14
REMARK    6  A    between atoms: C_15  and  C_16
REMARK    7  A    between atoms: C_15  and  C_18
REMARK    8  A    between atoms: C_15  and  C_19
REMARK    9  A    between atoms: C_15  and  C_20
REMARK   10  A    between atoms: C_16  and  C_17
REMARK                            x       y       z     vdW  Elec       q    Type
REMARK                         _______ _______ _______ _____ _____    ______ ____
ROOT
ATOM      1  O   UNL     1      13.457   9.176  18.962  0.00  0.00    -0.371 OA
ATOM      7  C   UNL     1      14.243   6.948  19.206  0.00  0.00    +0.111 C 
ATOM     11  C   UNL     1      12.931   7.096  19.955  0.00  0.00    +0.164 C 
ATOM     12  C   UNL     1      12.343   8.325  19.277  0.00  0.00    +0.165 C 
ATOM     13  C   UNL     1      14.664   8.400  19.050  0.00  0.00    +0.181 C 
ENDROOT
BRANCH  11   2
ATOM      2  O   UNL     1      12.093   5.965  19.817  0.00  0.00    -0.388 OA
ATOM     22  H   UNL     1      12.120   5.675  18.890  0.00  0.00    +0.210 HD
ENDBRANCH  11   2
BRANCH   7   4
ATOM      4  N   UNL     1      15.229   6.144  19.910  0.00  0.00    -0.306 NA
ATOM     21  H   UNL     1      15.191   5.195  19.538  0.00  0.00    +0.123 HD
BRANCH   4   6
ATOM      6  C   UNL     1      16.543   6.755  19.772  0.00  0.00    +0.054 C 
ATOM      8  C   UNL     1      17.497   5.759  19.079  0.00  0.00    +0.019 C 
ATOM      9  C   UNL     1      17.353   6.519  21.065  0.00  0.00    +0.019 C 
ATOM     10  C   UNL     1      18.542   6.151  20.149  0.00  0.00    +0.003 C 
ENDBRANCH   4   6
ENDBRANCH   7   4
BRANCH  12  14
ATOM     14  C   UNL     1      11.353   9.077  20.150  0.00  0.00    +0.138 C 
BRANCH  14   5
ATOM      3  O   UNL     1      10.477   9.887  22.789  0.00  0.00    -0.276 OA
ATOM      5  N   UNL     1      12.027   9.976  21.060  0.00  0.00    -0.313 N 
ATOM     17  C   UNL     1      11.528  10.305  22.309  0.00  0.00    +0.214 C 
ATOM     23  H   UNL     1      12.914  10.369  20.758  0.00  0.00    +0.149 HD
BRANCH  17  16
ATOM     16  C   UNL     1      12.419  11.274  23.068  0.00  0.00    +0.102 C 
BRANCH  16  15
ATOM     15  C   UNL     1      12.218  12.763  22.697  0.00  0.00    -0.029 C 
ATOM     18  C   UNL     1      10.896  12.983  21.944  0.00  0.00    +0.011 C 
ATOM     19  C   UNL     1      12.243  13.655  23.951  0.00  0.00    +0.011 C 
ATOM     20  C   UNL     1      13.379  13.186  21.776  0.00  0.00    +0.011 C 
ENDBRANCH  16  15
ENDBRANCH  17  16
ENDBRANCH  14   5
ENDBRANCH  12  14
TORSDOF 7
ENDMDL
MODEL 3
REMARK VINA RESULT:      -5.5      1.804      2.253
REMARK  Name = 75367059
REMARK  10 active torsions:
REMARK  status: ('A' for Active; 'I' for Inactive)
REMARK    1  A    between atoms: O_2  and  C_11
REMARK    2  A    between atoms: N_4  and  C_6
REMARK    3  A    between atoms: N_4  and  C_7
REMARK    4  A    between atoms: N_5  and  C_14
REMARK    5  A    between atoms: C_12  and  C_14
REMARK    6  A    between atoms: C_15  and  C_16
REMARK    7  A    between atoms: C_15  and  C_18
REMARK    8  A    between atoms: C_15  and  C_19
REMARK    9  A    between atoms: C_15  and  C_20
REMARK   10  A    between atoms: C_16  and  C_17
REMARK                            x       y       z     vdW  Elec       q    Type
REMARK                         _______ _______ _______ _____ _____    ______ ____
ROOT
ATOM      1  O   UNL     1      12.126   8.388  19.345  0.00  0.00    -0.371 OA
ATOM      7  C   UNL     1      13.427   7.033  20.800  0.00  0.00    +0.111 C 
ATOM     11  C   UNL     1      13.725   8.494  21.084  0.00  0.00    +0.164 C 
ATOM     12  C   UNL     1      12.491   9.165  20.497  0.00  0.00    +0.165 C 
ATOM     13  C   UNL     1      12.798   7.119  19.418  0.00  0.00    +0.181 C 
ENDROOT
BRANCH  11   2
ATOM      2  O   UNL     1      13.867   8.765  22.465  0.00  0.00    -0.388 OA
ATOM     22  H   UNL     1      13.860   9.729  22.590  0.00  0.00    +0.210 HD
ENDBRANCH  11   2
BRANCH   7   4
ATOM      4  N   UNL     1      14.603   6.180  20.835  0.00  0.00    -0.306 NA
ATOM     21  H   UNL     1      14.404   5.340  20.292  0.00  0.00    +0.123 HD
BRANCH   4   6
ATOM      6  C   UNL     1      15.755   6.917  20.337  0.00  0.00    +0.054 C 
ATOM      8  C   UNL     1      16.413   6.120  19.190  0.00  0.00    +0.019 C 
ATOM      9  C   UNL     1      16.992   6.567  21.192  0.00  0.00    +0.019 C 
ATOM     10  C   UNL     1      17.768   6.442  19.861  0.00  0.00    +0.003 C 
ENDBRANCH   4   6
ENDBRANCH   7   4
BRANCH  12  14
ATOM     14  C   UNL     1      12.729  10.608  20.088  0.00  0.00    +0.138 C 
BRANCH  14   5
ATOM      3  O   UNL     1      14.012  11.798  22.395  0.00  0.00    -0.276 OA
ATOM      5  N   UNL     1      12.147  11.530  21.036  0.00  0.00    -0.313 N 
ATOM     17  C   UNL     1      12.843  12.049  22.114  0.00  0.00    +0.214 C 
ATOM     23  H   UNL     1      11.182  11.810  20.885  0.00  0.00    +0.149 HD
BRANCH  17  16
ATOM     16  C   UNL     1      12.005  12.989  22.966  0.00  0.00    +0.102 C 
BRANCH  16  15
ATOM     15  C   UNL     1      11.574  12.410  24.335  0.00  0.00    -0.029 C 
ATOM     18  C   UNL     1      12.752  12.356  25.321  0.00  0.00    +0.011 C 
ATOM     19  C   UNL     1      10.434  13.238  24.952  0.00  0.00    +0.011 C 
ATOM     20  C   UNL     1      11.064  10.974  24.106  0.00  0.00    +0.011 C 
ENDBRANCH  16  15
ENDBRANCH  17  16
ENDBRANCH  14   5
ENDBRANCH  12  14
TORSDOF 7
ENDMDL
MODEL 4
REMARK VINA RESULT:      -5.5      2.210      3.039
REMARK  Name = 75367059
REMARK  10 active torsions:
REMARK  status: ('A' for Active; 'I' for Inactive)
REMARK    1  A    between atoms: O_2  and  C_11
REMARK    2  A    between atoms: N_4  and  C_6
REMARK    3  A    between atoms: N_4  and  C_7
REMARK    4  A    between atoms: N_5  and  C_14
REMARK    5  A    between atoms: C_12  and  C_14
REMARK    6  A    between atoms: C_15  and  C_16
REMARK    7  A    between atoms: C_15  and  C_18
REMARK    8  A    between atoms: C_15  and  C_19
REMARK    9  A    between atoms: C_15  and  C_20
REMARK   10  A    between atoms: C_16  and  C_17
REMARK                            x       y       z     vdW  Elec       q    Type
REMARK                         _______ _______ _______ _____ _____    ______ ____
ROOT
ATOM      1  O   UNL     1      10.479   8.364  19.974  0.00  0.00    -0.371 OA
ATOM      7  C   UNL     1      12.426   7.435  18.979  0.00  0.00    +0.111 C 
ATOM     11  C   UNL     1      12.603   7.459  20.486  0.00  0.00    +0.164 C 
ATOM     12  C   UNL     1      11.156   7.556  20.950  0.00  0.00    +0.165 C 
ATOM     13  C   UNL     1      11.297   8.437  18.794  0.00  0.00    +0.181 C 
ENDROOT
BRANCH  11   2
ATOM      2  O   UNL     1      13.239   6.296  20.980  0.00  0.00    -0.388 OA
ATOM     22  H   UNL     1      13.408   5.699  20.231  0.00  0.00    +0.210 HD
ENDBRANCH  11   2
BRANCH   7   4
ATOM      4  N   UNL     1      13.628   7.794  18.244  0.00  0.00    -0.306 NA
ATOM     21  H   UNL     1      13.868   7.018  17.627  0.00  0.00    +0.123 HD
BRANCH   4   6
ATOM      6  C   UNL     1      13.407   9.041  17.528  0.00  0.00    +0.054 C 
ATOM      8  C   UNL     1      14.002   8.925  16.108  0.00  0.00    +0.019 C 
ATOM      9  C   UNL     1      14.553  10.024  17.849  0.00  0.00    +0.019 C 
ATOM     10  C   UNL     1      14.594  10.335  16.336  0.00  0.00    +0.003 C 
ENDBRANCH   4   6
ENDBRANCH   7   4
BRANCH  12  14
ATOM     14  C   UNL     1      11.007   8.180  22.327  0.00  0.00    +0.138 C 
BRANCH  14   5
ATOM      3  O   UNL     1      10.773  10.994  22.969  0.00  0.00    -0.276 OA
ATOM      5  N   UNL     1      12.080   9.107  22.606  0.00  0.00    -0.313 N 
ATOM     17  C   UNL     1      11.870  10.443  22.905  0.00  0.00    +0.214 C 
ATOM     23  H   UNL     1      13.029   8.745  22.587  0.00  0.00    +0.149 HD
BRANCH  17  16
ATOM     16  C   UNL     1      13.160  11.208  23.150  0.00  0.00    +0.102 C 
BRANCH  16  15
ATOM     15  C   UNL     1      13.836  11.761  21.872  0.00  0.00    -0.029 C 
ATOM     18  C   UNL     1      12.870  11.758  20.677  0.00  0.00    +0.011 C 
ATOM     19  C   UNL     1      14.359  13.190  22.097  0.00  0.00    +0.011 C 
ATOM     20  C   UNL     1      15.033  10.852  21.534  0.00  0.00    +0.011 C 
ENDBRANCH  16  15
ENDBRANCH  17  16
ENDBRANCH  14   5
ENDBRANCH  12  14
TORSDOF 7
ENDMDL
MODEL 5
REMARK VINA RESULT:      -5.4     26.115     28.014
REMARK  Name = 75367059
REMARK  10 active torsions:
REMARK  status: ('A' for Active; 'I' for Inactive)
REMARK    1  A    between atoms: O_2  and  C_11
REMARK    2  A    between atoms: N_4  and  C_6
REMARK    3  A    between atoms: N_4  and  C_7
REMARK    4  A    between atoms: N_5  and  C_14
REMARK    5  A    between atoms: C_12  and  C_14
REMARK    6  A    between atoms: C_15  and  C_16
REMARK    7  A    between atoms: C_15  and  C_18
REMARK    8  A    between atoms: C_15  and  C_19
REMARK    9  A    between atoms: C_15  and  C_20
REMARK   10  A    between atoms: C_16  and  C_17
REMARK                            x       y       z     vdW  Elec       q    Type
REMARK                         _______ _______ _______ _____ _____    ______ ____
ROOT
ATOM      1  O   UNL     1      -5.644 -11.412  18.196  0.00  0.00    -0.371 OA
ATOM      7  C   UNL     1      -7.338 -10.026  17.275  0.00  0.00    +0.111 C 
ATOM     11  C   UNL     1      -6.023  -9.731  16.577  0.00  0.00    +0.164 C 
ATOM     12  C   UNL     1      -5.239 -11.001  16.880  0.00  0.00    +0.165 C 
ATOM     13  C   UNL     1      -6.858 -10.721  18.538  0.00  0.00    +0.181 C 
ENDROOT
BRANCH  11   2
ATOM      2  O   UNL     1      -6.177  -9.526  15.186  0.00  0.00    -0.388 OA
ATOM     22  H   UNL     1      -5.840  -8.640  14.968  0.00  0.00    +0.210 HD
ENDBRANCH  11   2
BRANCH   7   4
ATOM      4  N   UNL     1      -8.132  -8.839  17.549  0.00  0.00    -0.306 NA
ATOM     21  H   UNL     1      -7.611  -8.024  17.223  0.00  0.00    +0.123 HD
BRANCH   4   6
ATOM      6  C   UNL     1      -9.436  -8.968  16.916  0.00  0.00    +0.054 C 
ATOM      8  C   UNL     1     -10.100  -7.577  16.831  0.00  0.00    +0.019 C 
ATOM      9  C   UNL     1     -10.489  -9.325  17.988  0.00  0.00    +0.019 C 
ATOM     10  C   UNL     1     -11.395  -8.262  17.326  0.00  0.00    +0.003 C 
ENDBRANCH   4   6
ENDBRANCH   7   4
BRANCH  12  14
ATOM     14  C   UNL     1      -3.734 -10.800  16.846  0.00  0.00    +0.138 C 
BRANCH  14   5
ATOM      3  O   UNL     1      -2.172 -12.212  14.858  0.00  0.00    -0.276 OA
ATOM      5  N   UNL     1      -3.296 -10.304  15.561  0.00  0.00    -0.313 N 
ATOM     17  C   UNL     1      -2.548 -11.057  14.672  0.00  0.00    +0.214 C 
ATOM     23  H   UNL     1      -3.566  -9.358  15.308  0.00  0.00    +0.149 HD
BRANCH  17  16
ATOM     16  C   UNL     1      -2.208 -10.306  13.396  0.00  0.00    +0.102 C 
BRANCH  16  15
ATOM     15  C   UNL     1      -3.039 -10.722  12.159  0.00  0.00    -0.029 C 
ATOM     18  C   UNL     1      -2.785 -12.189  11.777  0.00  0.00    +0.011 C 
ATOM     19  C   UNL     1      -4.544 -10.516  12.408  0.00  0.00    +0.011 C 
ATOM     20  C   UNL     1      -2.615  -9.830  10.976  0.00  0.00    +0.011 C 
ENDBRANCH  16  15
ENDBRANCH  17  16
ENDBRANCH  14   5
ENDBRANCH  12  14
TORSDOF 7
ENDMDL
MODEL 6
REMARK VINA RESULT:      -5.3     25.476     27.539
REMARK  Name = 75367059
REMARK  10 active torsions:
REMARK  status: ('A' for Active; 'I' for Inactive)
REMARK    1  A    between atoms: O_2  and  C_11
REMARK    2  A    between atoms: N_4  and  C_6
REMARK    3  A    between atoms: N_4  and  C_7
REMARK    4  A    between atoms: N_5  and  C_14
REMARK    5  A    between atoms: C_12  and  C_14
REMARK    6  A    between atoms: C_15  and  C_16
REMARK    7  A    between atoms: C_15  and  C_18
REMARK    8  A    between atoms: C_15  and  C_19
REMARK    9  A    between atoms: C_15  and  C_20
REMARK   10  A    between atoms: C_16  and  C_17
REMARK                            x       y       z     vdW  Elec       q    Type
REMARK                         _______ _______ _______ _____ _____    ______ ____
ROOT
ATOM      1  O   UNL     1     -16.040   6.507  23.589  0.00  0.00    -0.371 OA
ATOM      7  C   UNL     1     -15.245   4.298  23.947  0.00  0.00    +0.111 C 
ATOM     11  C   UNL     1     -14.700   4.813  22.628  0.00  0.00    +0.164 C 
ATOM     12  C   UNL     1     -14.842   6.317  22.818  0.00  0.00    +0.165 C 
ATOM     13  C   UNL     1     -16.406   5.250  24.184  0.00  0.00    +0.181 C 
ENDROOT
BRANCH  11   2
ATOM      2  O   UNL     1     -13.354   4.434  22.407  0.00  0.00    -0.388 OA
ATOM     22  H   UNL     1     -12.884   4.469  23.258  0.00  0.00    +0.210 HD
ENDBRANCH  11   2
BRANCH   7   4
ATOM      4  N   UNL     1     -15.656   2.904  23.905  0.00  0.00    -0.306 NA
ATOM     21  H   UNL     1     -15.183   2.409  24.661  0.00  0.00    +0.123 HD
BRANCH   4   6
ATOM      6  C   UNL     1     -17.106   2.821  23.991  0.00  0.00    +0.054 C 
ATOM      8  C   UNL     1     -17.496   1.578  24.820  0.00  0.00    +0.019 C 
ATOM      9  C   UNL     1     -17.648   2.075  22.753  0.00  0.00    +0.019 C 
ATOM     10  C   UNL     1     -18.554   1.291  23.730  0.00  0.00    +0.003 C 
ENDBRANCH   4   6
ENDBRANCH   7   4
BRANCH  12  14
ATOM     14  C   UNL     1     -14.947   7.080  21.510  0.00  0.00    +0.138 C 
BRANCH  14   5
ATOM      3  O   UNL     1     -12.579   8.742  21.637  0.00  0.00    -0.276 OA
ATOM      5  N   UNL     1     -13.742   6.950  20.723  0.00  0.00    -0.313 N 
ATOM     17  C   UNL     1     -12.655   7.797  20.855  0.00  0.00    +0.214 C 
ATOM     23  H   UNL     1     -13.702   6.189  20.051  0.00  0.00    +0.149 HD
BRANCH  17  16
ATOM     16  C   UNL     1     -11.516   7.455  19.909  0.00  0.00    +0.102 C 
BRANCH  16  15
ATOM     15  C   UNL     1     -11.257   8.507  18.803  0.00  0.00    -0.029 C 
ATOM     18  C   UNL     1     -12.555   9.213  18.381  0.00  0.00    +0.011 C 
ATOM     19  C   UNL     1     -10.236   9.559  19.269  0.00  0.00    +0.011 C 
ATOM     20  C   UNL     1     -10.678   7.776  17.576  0.00  0.00    +0.011 C 
ENDBRANCH  16  15
ENDBRANCH  17  16
ENDBRANCH  14   5
ENDBRANCH  12  14
TORSDOF 7
ENDMDL
MODEL 7
REMARK VINA RESULT:      -5.3      2.906      5.127
REMARK  Name = 75367059
REMARK  10 active torsions:
REMARK  status: ('A' for Active; 'I' for Inactive)
REMARK    1  A    between atoms: O_2  and  C_11
REMARK    2  A    between atoms: N_4  and  C_6
REMARK    3  A    between atoms: N_4  and  C_7
REMARK    4  A    between atoms: N_5  and  C_14
REMARK    5  A    between atoms: C_12  and  C_14
REMARK    6  A    between atoms: C_15  and  C_16
REMARK    7  A    between atoms: C_15  and  C_18
REMARK    8  A    between atoms: C_15  and  C_19
REMARK    9  A    between atoms: C_15  and  C_20
REMARK   10  A    between atoms: C_16  and  C_17
REMARK                            x       y       z     vdW  Elec       q    Type
REMARK                         _______ _______ _______ _____ _____    ______ ____
ROOT
ATOM      1  O   UNL     1      11.946   8.435  19.610  0.00  0.00    -0.371 OA
ATOM      7  C   UNL     1      13.327   7.007  20.913  0.00  0.00    +0.111 C 
ATOM     11  C   UNL     1      13.631   8.451  21.269  0.00  0.00    +0.164 C 
ATOM     12  C   UNL     1      12.365   9.145  20.786  0.00  0.00    +0.165 C 
ATOM     13  C   UNL     1      12.629   7.169  19.572  0.00  0.00    +0.181 C 
ENDROOT
BRANCH  11   2
ATOM      2  O   UNL     1      13.841   8.639  22.655  0.00  0.00    -0.388 OA
ATOM     22  H   UNL     1      12.994   8.890  23.061  0.00  0.00    +0.210 HD
ENDBRANCH  11   2
BRANCH   7   4
ATOM      4  N   UNL     1      14.508   6.163  20.837  0.00  0.00    -0.306 NA
ATOM     21  H   UNL     1      14.291   5.363  20.242  0.00  0.00    +0.123 HD
BRANCH   4   6
ATOM      6  C   UNL     1      15.634   6.944  20.349  0.00  0.00    +0.054 C 
ATOM      8  C   UNL     1      16.287   6.207  19.159  0.00  0.00    +0.019 C 
ATOM      9  C   UNL     1      16.894   6.587  21.167  0.00  0.00    +0.019 C 
ATOM     10  C   UNL     1      17.648   6.532  19.818  0.00  0.00    +0.003 C 
ENDBRANCH   4   6
ENDBRANCH   7   4
BRANCH  12  14
ATOM     14  C   UNL     1      12.574  10.612  20.453  0.00  0.00    +0.138 C 
BRANCH  14   5
ATOM      3  O   UNL     1      15.140  10.815  19.126  0.00  0.00    -0.276 OA
ATOM      5  N   UNL     1      12.818  10.804  19.042  0.00  0.00    -0.313 N 
ATOM     17  C   UNL     1      14.088  10.890  18.496  0.00  0.00    +0.214 C 
ATOM     23  H   UNL     1      12.009  10.869  18.432  0.00  0.00    +0.149 HD
BRANCH  17  16
ATOM     16  C   UNL     1      14.075  11.101  16.991  0.00  0.00    +0.102 C 
BRANCH  16  15
ATOM     15  C   UNL     1      13.964   9.802  16.157  0.00  0.00    -0.029 C 
ATOM     18  C   UNL     1      14.382   8.569  16.975  0.00  0.00    +0.011 C 
ATOM     19  C   UNL     1      12.532   9.602  15.633  0.00  0.00    +0.011 C 
ATOM     20  C   UNL     1      14.912   9.929  14.949  0.00  0.00    +0.011 C 
ENDBRANCH  16  15
ENDBRANCH  17  16
ENDBRANCH  14   5
ENDBRANCH  12  14
TORSDOF 7
ENDMDL
MODEL 8
REMARK VINA RESULT:      -5.3      4.271      6.409
REMARK  Name = 75367059
REMARK  10 active torsions:
REMARK  status: ('A' for Active; 'I' for Inactive)
REMARK    1  A    between atoms: O_2  and  C_11
REMARK    2  A    between atoms: N_4  and  C_6
REMARK    3  A    between atoms: N_4  and  C_7
REMARK    4  A    between atoms: N_5  and  C_14
REMARK    5  A    between atoms: C_12  and  C_14
REMARK    6  A    between atoms: C_15  and  C_16
REMARK    7  A    between atoms: C_15  and  C_18
REMARK    8  A    between atoms: C_15  and  C_19
REMARK    9  A    between atoms: C_15  and  C_20
REMARK   10  A    between atoms: C_16  and  C_17
REMARK                            x       y       z     vdW  Elec       q    Type
REMARK                         _______ _______ _______ _____ _____    ______ ____
ROOT
ATOM      1  O   UNL     1      18.183   7.073  21.625  0.00  0.00    -0.371 OA
ATOM      7  C   UNL     1      19.591   5.965  20.066  0.00  0.00    +0.111 C 
ATOM     11  C   UNL     1      18.153   5.544  19.822  0.00  0.00    +0.164 C 
ATOM     12  C   UNL     1      17.397   6.685  20.487  0.00  0.00    +0.165 C 
ATOM     13  C   UNL     1      19.504   6.525  21.476  0.00  0.00    +0.181 C 
ENDROOT
BRANCH  11   2
ATOM      2  O   UNL     1      17.842   5.435  18.447  0.00  0.00    -0.388 OA
ATOM     22  H   UNL     1      17.244   6.164  18.210  0.00  0.00    +0.210 HD
ENDBRANCH  11   2
BRANCH   7   4
ATOM      4  N   UNL     1      20.546   4.875  19.947  0.00  0.00    -0.306 NA
ATOM     21  H   UNL     1      21.016   4.959  19.045  0.00  0.00    +0.123 HD
BRANCH   4   6
ATOM      6  C   UNL     1      21.469   4.911  21.072  0.00  0.00    +0.054 C 
ATOM      8  C   UNL     1      22.917   4.965  20.541  0.00  0.00    +0.019 C 
ATOM      9  C   UNL     1      21.768   3.468  21.532  0.00  0.00    +0.019 C 
ATOM     10  C   UNL     1      23.254   3.892  21.602  0.00  0.00    +0.003 C 
ENDBRANCH   4   6
ENDBRANCH   7   4
BRANCH  12  14
ATOM     14  C   UNL     1      15.999   6.297  20.938  0.00  0.00    +0.138 C 
BRANCH  14   5
ATOM      3  O   UNL     1      14.758   8.473  22.390  0.00  0.00    -0.276 OA
ATOM      5  N   UNL     1      15.007   7.226  20.445  0.00  0.00    -0.313 N 
ATOM     17  C   UNL     1      14.469   8.241  21.219  0.00  0.00    +0.214 C 
ATOM     23  H   UNL     1      14.708   7.123  19.480  0.00  0.00    +0.149 HD
BRANCH  17  16
ATOM     16  C   UNL     1      13.441   9.075  20.473  0.00  0.00    +0.102 C 
BRANCH  16  15
ATOM     15  C   UNL     1      11.968   8.754  20.826  0.00  0.00    -0.029 C 
ATOM     18  C   UNL     1      11.100   8.631  19.564  0.00  0.00    +0.011 C 
ATOM     19  C   UNL     1      11.865   7.454  21.642  0.00  0.00    +0.011 C 
ATOM     20  C   UNL     1      11.421   9.911  21.683  0.00  0.00    +0.011 C 
ENDBRANCH  16  15
ENDBRANCH  17  16
ENDBRANCH  14   5
ENDBRANCH  12  14
TORSDOF 7
ENDMDL
MODEL 9
REMARK VINA RESULT:      -5.3     26.092     27.629
REMARK  Name = 75367059
REMARK  10 active torsions:
REMARK  status: ('A' for Active; 'I' for Inactive)
REMARK    1  A    between atoms: O_2  and  C_11
REMARK    2  A    between atoms: N_4  and  C_6
REMARK    3  A    between atoms: N_4  and  C_7
REMARK    4  A    between atoms: N_5  and  C_14
REMARK    5  A    between atoms: C_12  and  C_14
REMARK    6  A    between atoms: C_15  and  C_16
REMARK    7  A    between atoms: C_15  and  C_18
REMARK    8  A    between atoms: C_15  and  C_19
REMARK    9  A    between atoms: C_15  and  C_20
REMARK   10  A    between atoms: C_16  and  C_17
REMARK                            x       y       z     vdW  Elec       q    Type
REMARK                         _______ _______ _______ _____ _____    ______ ____
ROOT
ATOM      1  O   UNL     1      -4.185 -10.588  14.437  0.00  0.00    -0.371 OA
ATOM      7  C   UNL     1      -3.857 -10.581  16.790  0.00  0.00    +0.111 C 
ATOM     11  C   UNL     1      -2.678 -11.270  16.128  0.00  0.00    +0.164 C 
ATOM     12  C   UNL     1      -2.780 -10.727  14.709  0.00  0.00    +0.165 C 
ATOM     13  C   UNL     1      -4.899 -10.640  15.684  0.00  0.00    +0.181 C 
ENDROOT
BRANCH  11   2
ATOM      2  O   UNL     1      -1.442 -10.939  16.731  0.00  0.00    -0.388 OA
ATOM     22  H   UNL     1      -0.924 -11.756  16.833  0.00  0.00    +0.210 HD
ENDBRANCH  11   2
BRANCH   7   4
ATOM      4  N   UNL     1      -4.296 -11.226  18.017  0.00  0.00    -0.306 NA
ATOM     21  H   UNL     1      -3.816 -10.783  18.800  0.00  0.00    +0.123 HD
BRANCH   4   6
ATOM      6  C   UNL     1      -5.745 -11.142  18.119  0.00  0.00    +0.054 C 
ATOM      8  C   UNL     1      -6.126 -10.603  19.515  0.00  0.00    +0.019 C 
ATOM      9  C   UNL     1      -6.303 -12.508  18.575  0.00  0.00    +0.019 C 
ATOM     10  C   UNL     1      -7.198 -11.716  19.556  0.00  0.00    +0.003 C 
ENDBRANCH   4   6
ENDBRANCH   7   4
BRANCH  12  14
ATOM     14  C   UNL     1      -2.145 -11.636  13.671  0.00  0.00    +0.138 C 
BRANCH  14   5
ATOM      3  O   UNL     1      -1.882  -9.914  11.358  0.00  0.00    -0.276 OA
ATOM      5  N   UNL     1      -2.925 -11.677  12.455  0.00  0.00    -0.313 N 
ATOM     17  C   UNL     1      -2.725 -10.807  11.396  0.00  0.00    +0.214 C 
ATOM     23  H   UNL     1      -3.645 -12.390  12.384  0.00  0.00    +0.149 HD
BRANCH  17  16
ATOM     16  C   UNL     1      -3.679 -11.051  10.239  0.00  0.00    +0.102 C 
BRANCH  16  15
ATOM     15  C   UNL     1      -4.714  -9.923  10.005  0.00  0.00    -0.029 C 
ATOM     18  C   UNL     1      -5.170  -9.294  11.332  0.00  0.00    +0.011 C 
ATOM     19  C   UNL     1      -4.139  -8.825   9.094  0.00  0.00    +0.011 C 
ATOM     20  C   UNL     1      -5.942 -10.540   9.309  0.00  0.00    +0.011 C 
ENDBRANCH  16  15
ENDBRANCH  17  16
ENDBRANCH  14   5
ENDBRANCH  12  14
TORSDOF 7
ENDMDL
MODEL 10
REMARK VINA RESULT:      -5.2     27.582     29.561
REMARK  Name = 75367059
REMARK  10 active torsions:
REMARK  status: ('A' for Active; 'I' for Inactive)
REMARK    1  A    between atoms: O_2  and  C_11
REMARK    2  A    between atoms: N_4  and  C_6
REMARK    3  A    between atoms: N_4  and  C_7
REMARK    4  A    between atoms: N_5  and  C_14
REMARK    5  A    between atoms: C_12  and  C_14
REMARK    6  A    between atoms: C_15  and  C_16
REMARK    7  A    between atoms: C_15  and  C_18
REMARK    8  A    between atoms: C_15  and  C_19
REMARK    9  A    between atoms: C_15  and  C_20
REMARK   10  A    between atoms: C_16  and  C_17
REMARK                            x       y       z     vdW  Elec       q    Type
REMARK                         _______ _______ _______ _____ _____    ______ ____
ROOT
ATOM      1  O   UNL     1     -16.873   3.283  27.099  0.00  0.00    -0.371 OA
ATOM      7  C   UNL     1     -16.546   3.078  24.755  0.00  0.00    +0.111 C 
ATOM     11  C   UNL     1     -16.568   1.693  25.376  0.00  0.00    +0.164 C 
ATOM     12  C   UNL     1     -17.289   1.971  26.688  0.00  0.00    +0.165 C 
ATOM     13  C   UNL     1     -16.275   3.948  25.973  0.00  0.00    +0.181 C 
ENDROOT
BRANCH  11   2
ATOM      2  O   UNL     1     -17.262   0.750  24.582  0.00  0.00    -0.388 OA
ATOM     22  H   UNL     1     -17.402  -0.052  25.113  0.00  0.00    +0.210 HD
ENDBRANCH  11   2
BRANCH   7   4
ATOM      4  N   UNL     1     -15.544   3.235  23.714  0.00  0.00    -0.306 NA
ATOM     21  H   UNL     1     -15.924   2.857  22.845  0.00  0.00    +0.123 HD
BRANCH   4   6
ATOM      6  C   UNL     1     -15.168   4.636  23.606  0.00  0.00    +0.054 C 
ATOM      8  C   UNL     1     -15.437   5.126  22.167  0.00  0.00    +0.019 C 
ATOM      9  C   UNL     1     -13.662   4.737  23.281  0.00  0.00    +0.019 C 
ATOM     10  C   UNL     1     -14.048   5.804  22.232  0.00  0.00    +0.003 C 
ENDBRANCH   4   6
ENDBRANCH   7   4
BRANCH  12  14
ATOM     14  C   UNL     1     -16.962   0.964  27.777  0.00  0.00    +0.138 C 
BRANCH  14   5
ATOM      3  O   UNL     1     -15.982  -0.231  30.226  0.00  0.00    -0.276 OA
ATOM      5  N   UNL     1     -15.826   1.386  28.564  0.00  0.00    -0.313 N 
ATOM     17  C   UNL     1     -15.431   0.748  29.728  0.00  0.00    +0.214 C 
ATOM     23  H   UNL     1     -15.296   2.185  28.230  0.00  0.00    +0.149 HD
BRANCH  17  16
ATOM     16  C   UNL     1     -14.214   1.389  30.374  0.00  0.00    +0.102 C 
BRANCH  16  15
ATOM     15  C   UNL     1     -14.528   2.293  31.589  0.00  0.00    -0.029 C 
ATOM     18  C   UNL     1     -13.355   3.234  31.910  0.00  0.00    +0.011 C 
ATOM     19  C   UNL     1     -15.796   3.129  31.345  0.00  0.00    +0.011 C 
ATOM     20  C   UNL     1     -14.771   1.385  32.810  0.00  0.00    +0.011 C 
ENDBRANCH  16  15
ENDBRANCH  17  16
ENDBRANCH  14   5
ENDBRANCH  12  14
TORSDOF 7
ENDMDL
