REMARK  Name = 51136981
REMARK  10 active torsions:
REMARK  status: ('A' for Active; 'I' for Inactive)
REMARK    1  A    between atoms: O_5  and  C_15
REMARK    2  A    between atoms: O_6  and  C_22
REMARK    3  A    between atoms: N_8  and  C_13
REMARK    4  A    between atoms: N_9  and  C_23
REMARK    5  A    between atoms: N_10  and  C_19
REMARK    6  A    between atoms: N_11  and  C_34
REMARK    7  A    between atoms: C_14  and  C_19
REMARK    8  A    between atoms: C_16  and  C_22
REMARK    9  A    between atoms: C_24  and  C_29
REMARK   10  A    between atoms: C_27  and  C_31
REMARK                            x       y       z     vdW  Elec       q    Type
REMARK                         _______ _______ _______ _____ _____    ______ ____
ROOT
ATOM      4  O   UNL     1      -3.301   2.115  -0.809  0.00  0.00    -0.365 OA
ATOM     13  C   UNL     1      -0.922   2.114  -0.744  0.00  0.00    +0.118 C 
ATOM     14  C   UNL     1      -2.172   1.236  -0.610  0.00  0.00    +0.155 C 
ATOM     15  C   UNL     1      -1.430   3.495  -0.363  0.00  0.00    +0.165 C 
ATOM     16  C   UNL     1      -2.822   3.463  -0.983  0.00  0.00    +0.174 C 
ENDROOT
BRANCH  13   8
ATOM      8  N   UNL     1       0.257   1.667  -0.023  0.00  0.00    -0.292 NA
ATOM      9  N   UNL     1       2.965   0.806   0.269  0.00  0.00    -0.327 N 
ATOM     17  C   UNL     1       0.665   0.332  -0.479  0.00  0.00    +0.104 C 
ATOM     18  C   UNL     1       1.362   2.616  -0.204  0.00  0.00    +0.104 C 
ATOM     20  C   UNL     1       1.872  -0.174   0.314  0.00  0.00    +0.120 C 
ATOM     21  C   UNL     1       2.594   2.186   0.597  0.00  0.00    +0.120 C 
BRANCH   9  23
ATOM     23  C   UNL     1       4.263   0.355   0.532  0.00  0.00    +0.030 A 
ATOM     25  C   UNL     1       4.837  -0.629  -0.272  0.00  0.00    +0.035 A 
ATOM     26  C   UNL     1       4.984   0.891   1.600  0.00  0.00    +0.023 A 
ATOM     27  C   UNL     1       6.131  -1.078  -0.009  0.00  0.00    +0.057 A 
ATOM     28  C   UNL     1       6.278   0.442   1.863  0.00  0.00    +0.002 A 
ATOM     30  C   UNL     1       6.852  -0.543   1.059  0.00  0.00    +0.012 A 
BRANCH  27  31
ATOM      1  F   UNL     1       8.011  -2.456  -0.479  0.00  0.00    -0.166 F 
ATOM      2  F   UNL     1       6.049  -3.307  -0.876  0.00  0.00    -0.166 F 
ATOM      3  F   UNL     1       6.848  -1.771  -2.184  0.00  0.00    -0.166 F 
ATOM     31  C   UNL     1       6.744  -2.131  -0.870  0.00  0.00    +0.417 C 
ENDBRANCH  27  31
ENDBRANCH   9  23
ENDBRANCH  13   8
BRANCH  15   5
ATOM      5  O   UNL     1      -1.519   3.647   1.047  0.00  0.00    -0.388 OA
ATOM     35  H   UNL     1      -1.744   4.575   1.230  0.00  0.00    +0.210 HD
ENDBRANCH  15   5
BRANCH  14  19
ATOM     19  C   UNL     1      -2.376   0.536   0.729  0.00  0.00    +0.137 C 
BRANCH  19  10
ATOM      7  O   UNL     1      -2.626  -2.218  -0.044  0.00  0.00    -0.270 OA
ATOM     10  N   UNL     1      -3.576  -0.245   0.726  0.00  0.00    -0.309 N 
ATOM     24  C   UNL     1      -3.607  -1.581   0.333  0.00  0.00    +0.247 C 
ATOM     36  H   UNL     1      -4.439   0.213   1.002  0.00  0.00    +0.149 HD
BRANCH  24  29
ATOM     11  N   UNL     1      -6.611  -3.581  -0.060  0.00  0.00    -0.274 N 
ATOM     12  N   UNL     1      -7.090  -2.777   0.905  0.00  0.00    -0.179 NA
ATOM     29  C   UNL     1      -4.936  -2.245   0.361  0.00  0.00    +0.074 A 
ATOM     32  C   UNL     1      -5.326  -3.304  -0.422  0.00  0.00    +0.121 A 
ATOM     33  C   UNL     1      -6.061  -1.963   1.158  0.00  0.00    +0.147 A 
ATOM     34  C   UNL     1      -7.450  -4.620  -0.608  0.00  0.00    +0.172 C 
ENDBRANCH  24  29
ENDBRANCH  19  10
ENDBRANCH  14  19
BRANCH  16  22
ATOM     22  C   UNL     1      -3.826   4.432  -0.385  0.00  0.00    +0.190 C 
BRANCH  22   6
ATOM      6  O   UNL     1      -5.062   4.292  -1.068  0.00  0.00    -0.392 OA
ATOM     37  H   UNL     1      -5.683   4.925  -0.668  0.00  0.00    +0.210 HD
ENDBRANCH  22   6
ENDBRANCH  16  22
TORSDOF 9
