MODEL 1
REMARK VINA RESULT:      -5.6      0.000      0.000
REMARK  Name = 75536903
REMARK  5 active torsions:
REMARK  status: ('A' for Active; 'I' for Inactive)
REMARK    1  A    between atoms: O_2  and  C_8
REMARK    2  A    between atoms: O_2  and  C_15
REMARK    3  A    between atoms: O_4  and  C_18
REMARK    4  A    between atoms: O_4  and  C_24
REMARK    5  A    between atoms: C_13  and  C_14
REMARK                            x       y       z     vdW  Elec       q    Type
REMARK                         _______ _______ _______ _____ _____    ______ ____
ROOT
ATOM      1  O   UNL     1      -8.485 -11.177  19.011  0.00  0.00    -0.375 OA
ATOM      3  O   UNL     1      -3.718 -11.929  18.892  0.00  0.00    -0.270 OA
ATOM      5  N   UNL     1      -5.527 -10.652  18.120  0.00  0.00    -0.292 N 
ATOM      8  C   UNL     1      -7.726  -9.791  17.152  0.00  0.00    +0.218 C 
ATOM      9  C   UNL     1      -6.218 -10.012  16.995  0.00  0.00    +0.155 C 
ATOM     10  C   UNL     1      -6.148 -10.592  19.444  0.00  0.00    +0.136 C 
ATOM     11  C   UNL     1      -8.475 -11.046  17.592  0.00  0.00    +0.206 C 
ATOM     12  C   UNL     1      -7.259 -11.626  19.575  0.00  0.00    +0.179 C 
ATOM     13  C   UNL     1      -4.316 -11.352  17.983  0.00  0.00    +0.247 C 
ENDROOT
BRANCH  13  14
ATOM     14  C   UNL     1      -3.691 -11.411  16.653  0.00  0.00    +0.040 A 
ATOM     16  C   UNL     1      -4.127 -12.350  15.718  0.00  0.00    +0.058 A 
ATOM     17  C   UNL     1      -2.661 -10.528  16.326  0.00  0.00    +0.013 A 
ATOM     18  C   UNL     1      -3.534 -12.407  14.457  0.00  0.00    +0.121 A 
ATOM     19  C   UNL     1      -2.068 -10.585  15.065  0.00  0.00    +0.004 A 
ATOM     20  C   UNL     1      -2.505 -11.524  14.130  0.00  0.00    +0.045 A 
BRANCH  18   4
ATOM      4  O   UNL     1      -3.961 -13.322  13.545  0.00  0.00    -0.495 OA
ATOM     24  C   UNL     1      -3.144 -13.520  12.392  0.00  0.00    +0.277 C 
ENDBRANCH  18   4
ENDBRANCH  13  14
BRANCH   8   2
ATOM      2  O   UNL     1      -8.216  -9.380  15.875  0.00  0.00    -0.468 OA
BRANCH   2  15
ATOM      6  N   UNL     1      -9.633  -7.837  16.883  0.00  0.00    -0.219 NA
ATOM      7  N   UNL     1     -11.474  -8.211  14.801  0.00  0.00    -0.256 NA
ATOM     15  C   UNL     1      -9.397  -8.690  15.867  0.00  0.00    +0.234 A 
ATOM     21  C   UNL     1     -10.302  -8.873  14.844  0.00  0.00    +0.177 A 
ATOM     22  C   UNL     1     -10.806  -7.175  16.841  0.00  0.00    +0.134 A 
ATOM     23  C   UNL     1     -11.711  -7.359  15.818  0.00  0.00    +0.130 A 
ENDBRANCH   2  15
ENDBRANCH   8   2
TORSDOF 4
ENDMDL
MODEL 2
REMARK VINA RESULT:      -5.6     18.650     20.363
REMARK  Name = 75536903
REMARK  5 active torsions:
REMARK  status: ('A' for Active; 'I' for Inactive)
REMARK    1  A    between atoms: O_2  and  C_8
REMARK    2  A    between atoms: O_2  and  C_15
REMARK    3  A    between atoms: O_4  and  C_18
REMARK    4  A    between atoms: O_4  and  C_24
REMARK    5  A    between atoms: C_13  and  C_14
REMARK                            x       y       z     vdW  Elec       q    Type
REMARK                         _______ _______ _______ _____ _____    ______ ____
ROOT
ATOM      1  O   UNL     1     -11.747  10.532  14.959  0.00  0.00    -0.375 OA
ATOM      3  O   UNL     1      -9.819   9.262  19.198  0.00  0.00    -0.270 OA
ATOM      5  N   UNL     1     -11.348   8.741  17.499  0.00  0.00    -0.292 N 
ATOM      8  C   UNL     1     -13.195   8.729  15.737  0.00  0.00    +0.218 C 
ATOM      9  C   UNL     1     -12.694   8.297  17.118  0.00  0.00    +0.155 C 
ATOM     10  C   UNL     1     -10.411   9.111  16.437  0.00  0.00    +0.136 C 
ATOM     11  C   UNL     1     -13.037  10.226  15.480  0.00  0.00    +0.206 C 
ATOM     12  C   UNL     1     -10.697  10.514  15.918  0.00  0.00    +0.179 C 
ATOM     13  C   UNL     1     -10.926   8.865  18.833  0.00  0.00    +0.247 C 
ENDROOT
BRANCH  13  14
ATOM     14  C   UNL     1     -11.867   8.492  19.900  0.00  0.00    +0.040 A 
ATOM     16  C   UNL     1     -11.974   7.162  20.304  0.00  0.00    +0.058 A 
ATOM     17  C   UNL     1     -12.655   9.471  20.508  0.00  0.00    +0.013 A 
ATOM     18  C   UNL     1     -12.867   6.809  21.315  0.00  0.00    +0.121 A 
ATOM     19  C   UNL     1     -13.548   9.117  21.519  0.00  0.00    +0.004 A 
ATOM     20  C   UNL     1     -13.654   7.787  21.923  0.00  0.00    +0.045 A 
BRANCH  18   4
ATOM      4  O   UNL     1     -12.970   5.511  21.710  0.00  0.00    -0.495 OA
ATOM     24  C   UNL     1     -14.193   5.114  22.329  0.00  0.00    +0.277 C 
ENDBRANCH  18   4
ENDBRANCH  13  14
BRANCH   8   2
ATOM      2  O   UNL     1     -14.581   8.390  15.677  0.00  0.00    -0.468 OA
BRANCH   2  15
ATOM      6  N   UNL     1     -16.077   6.740  15.011  0.00  0.00    -0.219 NA
ATOM      7  N   UNL     1     -14.457   6.213  12.783  0.00  0.00    -0.256 NA
ATOM     15  C   UNL     1     -14.936   7.420  14.781  0.00  0.00    +0.234 A 
ATOM     21  C   UNL     1     -14.140   7.161  13.686  0.00  0.00    +0.177 A 
ATOM     22  C   UNL     1     -16.393   5.792  14.107  0.00  0.00    +0.134 A 
ATOM     23  C   UNL     1     -15.597   5.533  13.013  0.00  0.00    +0.130 A 
ENDBRANCH   2  15
ENDBRANCH   8   2
TORSDOF 4
ENDMDL
MODEL 3
REMARK VINA RESULT:      -5.5      1.000      1.522
REMARK  Name = 75536903
REMARK  5 active torsions:
REMARK  status: ('A' for Active; 'I' for Inactive)
REMARK    1  A    between atoms: O_2  and  C_8
REMARK    2  A    between atoms: O_2  and  C_15
REMARK    3  A    between atoms: O_4  and  C_18
REMARK    4  A    between atoms: O_4  and  C_24
REMARK    5  A    between atoms: C_13  and  C_14
REMARK                            x       y       z     vdW  Elec       q    Type
REMARK                         _______ _______ _______ _____ _____    ______ ____
ROOT
ATOM      1  O   UNL     1      -8.690 -10.759  19.086  0.00  0.00    -0.375 OA
ATOM      3  O   UNL     1      -4.014 -11.926  18.808  0.00  0.00    -0.270 OA
ATOM      5  N   UNL     1      -5.761 -10.598  17.983  0.00  0.00    -0.292 N 
ATOM      8  C   UNL     1      -7.942  -9.670  17.035  0.00  0.00    +0.218 C 
ATOM      9  C   UNL     1      -6.469 -10.037  16.826  0.00  0.00    +0.155 C 
ATOM     10  C   UNL     1      -6.292 -10.330  19.321  0.00  0.00    +0.136 C 
ATOM     11  C   UNL     1      -8.759 -10.796  17.664  0.00  0.00    +0.206 C 
ATOM     12  C   UNL     1      -7.470 -11.242  19.636  0.00  0.00    +0.179 C 
ATOM     13  C   UNL     1      -4.620 -11.410  17.869  0.00  0.00    +0.247 C 
ENDROOT
BRANCH  13  14
ATOM     14  C   UNL     1      -4.087 -11.679  16.524  0.00  0.00    +0.040 A 
ATOM     16  C   UNL     1      -3.223 -10.765  15.921  0.00  0.00    +0.058 A 
ATOM     17  C   UNL     1      -4.446 -12.848  15.852  0.00  0.00    +0.013 A 
ATOM     18  C   UNL     1      -2.718 -11.020  14.646  0.00  0.00    +0.121 A 
ATOM     19  C   UNL     1      -3.941 -13.101  14.577  0.00  0.00    +0.004 A 
ATOM     20  C   UNL     1      -3.077 -12.188  13.974  0.00  0.00    +0.045 A 
BRANCH  18   4
ATOM      4  O   UNL     1      -1.874 -10.129  14.058  0.00  0.00    -0.495 OA
ATOM     24  C   UNL     1      -1.761 -10.181  12.637  0.00  0.00    +0.277 C 
ENDBRANCH  18   4
ENDBRANCH  13  14
BRANCH   8   2
ATOM      2  O   UNL     1      -8.478  -9.371  15.745  0.00  0.00    -0.468 OA
BRANCH   2  15
ATOM      6  N   UNL     1      -9.764  -7.677  16.682  0.00  0.00    -0.219 NA
ATOM      7  N   UNL     1     -11.672  -8.048  14.661  0.00  0.00    -0.256 NA
ATOM     15  C   UNL     1      -9.609  -8.603  15.716  0.00  0.00    +0.234 A 
ATOM     21  C   UNL     1     -10.546  -8.785  14.723  0.00  0.00    +0.177 A 
ATOM     22  C   UNL     1     -10.890  -6.939  16.621  0.00  0.00    +0.134 A 
ATOM     23  C   UNL     1     -11.828  -7.122  15.628  0.00  0.00    +0.130 A 
ENDBRANCH   2  15
ENDBRANCH   8   2
TORSDOF 4
ENDMDL
MODEL 4
REMARK VINA RESULT:      -5.5     25.553     28.295
REMARK  Name = 75536903
REMARK  5 active torsions:
REMARK  status: ('A' for Active; 'I' for Inactive)
REMARK    1  A    between atoms: O_2  and  C_8
REMARK    2  A    between atoms: O_2  and  C_15
REMARK    3  A    between atoms: O_4  and  C_18
REMARK    4  A    between atoms: O_4  and  C_24
REMARK    5  A    between atoms: C_13  and  C_14
REMARK                            x       y       z     vdW  Elec       q    Type
REMARK                         _______ _______ _______ _____ _____    ______ ____
ROOT
ATOM      1  O   UNL     1      13.652   8.701   2.434  0.00  0.00    -0.375 OA
ATOM      3  O   UNL     1      13.168   8.805   7.235  0.00  0.00    -0.270 OA
ATOM      5  N   UNL     1      13.000   7.539   5.270  0.00  0.00    -0.292 N 
ATOM      8  C   UNL     1      12.492   6.616   2.945  0.00  0.00    +0.218 C 
ATOM      9  C   UNL     1      12.236   6.587   4.455  0.00  0.00    +0.155 C 
ATOM     10  C   UNL     1      14.247   8.078   4.725  0.00  0.00    +0.136 C 
ATOM     11  C   UNL     1      12.405   8.018   2.347  0.00  0.00    +0.206 C 
ATOM     12  C   UNL     1      13.970   9.197   3.729  0.00  0.00    +0.179 C 
ATOM     13  C   UNL     1      12.576   7.986   6.533  0.00  0.00    +0.247 C 
ENDROOT
BRANCH  13  14
ATOM     14  C   UNL     1      11.323   7.443   7.081  0.00  0.00    +0.040 A 
ATOM     16  C   UNL     1      11.320   6.202   7.718  0.00  0.00    +0.058 A 
ATOM     17  C   UNL     1      10.137   8.169   6.962  0.00  0.00    +0.013 A 
ATOM     18  C   UNL     1      10.133   5.688   8.236  0.00  0.00    +0.121 A 
ATOM     19  C   UNL     1       8.950   7.653   7.481  0.00  0.00    +0.004 A 
ATOM     20  C   UNL     1       8.948   6.413   8.119  0.00  0.00    +0.045 A 
BRANCH  18   4
ATOM      4  O   UNL     1      10.131   4.478   8.860  0.00  0.00    -0.495 OA
ATOM     24  C   UNL     1       9.273   4.331   9.991  0.00  0.00    +0.277 C 
ENDBRANCH  18   4
ENDBRANCH  13  14
BRANCH   8   2
ATOM      2  O   UNL     1      11.495   5.790   2.342  0.00  0.00    -0.468 OA
BRANCH   2  15
ATOM      6  N   UNL     1      11.144   4.747   0.295  0.00  0.00    -0.219 NA
ATOM      7  N   UNL     1      13.569   3.374   0.611  0.00  0.00    -0.256 NA
ATOM     15  C   UNL     1      11.923   4.917   1.381  0.00  0.00    +0.234 A 
ATOM     21  C   UNL     1      13.115   4.242   1.536  0.00  0.00    +0.177 A 
ATOM     22  C   UNL     1      11.598   3.879  -0.630  0.00  0.00    +0.134 A 
ATOM     23  C   UNL     1      12.789   3.204  -0.475  0.00  0.00    +0.130 A 
ENDBRANCH   2  15
ENDBRANCH   8   2
TORSDOF 4
ENDMDL
MODEL 5
REMARK VINA RESULT:      -5.4      3.233      6.573
REMARK  Name = 75536903
REMARK  5 active torsions:
REMARK  status: ('A' for Active; 'I' for Inactive)
REMARK    1  A    between atoms: O_2  and  C_8
REMARK    2  A    between atoms: O_2  and  C_15
REMARK    3  A    between atoms: O_4  and  C_18
REMARK    4  A    between atoms: O_4  and  C_24
REMARK    5  A    between atoms: C_13  and  C_14
REMARK                            x       y       z     vdW  Elec       q    Type
REMARK                         _______ _______ _______ _____ _____    ______ ____
ROOT
ATOM      1  O   UNL     1      -1.845 -14.298  13.678  0.00  0.00    -0.375 OA
ATOM      3  O   UNL     1      -5.145 -15.176  17.091  0.00  0.00    -0.270 OA
ATOM      5  N   UNL     1      -4.445 -13.773  15.348  0.00  0.00    -0.292 N 
ATOM      8  C   UNL     1      -3.170 -12.250  13.744  0.00  0.00    +0.218 C 
ATOM      9  C   UNL     1      -4.216 -12.411  14.852  0.00  0.00    +0.155 C 
ATOM     10  C   UNL     1      -4.076 -14.898  14.488  0.00  0.00    +0.136 C 
ATOM     11  C   UNL     1      -1.841 -12.928  14.069  0.00  0.00    +0.206 C 
ATOM     12  C   UNL     1      -2.576 -15.161  14.542  0.00  0.00    +0.179 C 
ATOM     13  C   UNL     1      -4.966 -14.052  16.623  0.00  0.00    +0.247 C 
ENDROOT
BRANCH  13  14
ATOM     14  C   UNL     1      -5.337 -12.921  17.487  0.00  0.00    +0.040 A 
ATOM     16  C   UNL     1      -6.545 -12.254  17.284  0.00  0.00    +0.058 A 
ATOM     17  C   UNL     1      -4.480 -12.513  18.511  0.00  0.00    +0.013 A 
ATOM     18  C   UNL     1      -6.897 -11.182  18.103  0.00  0.00    +0.121 A 
ATOM     19  C   UNL     1      -4.832 -11.441  19.329  0.00  0.00    +0.004 A 
ATOM     20  C   UNL     1      -6.040 -10.775  19.126  0.00  0.00    +0.045 A 
BRANCH  18   4
ATOM      4  O   UNL     1      -8.076 -10.532  17.906  0.00  0.00    -0.495 OA
ATOM     24  C   UNL     1      -8.010  -9.216  17.359  0.00  0.00    +0.277 C 
ENDBRANCH  18   4
ENDBRANCH  13  14
BRANCH   8   2
ATOM      2  O   UNL     1      -2.951 -10.848  13.586  0.00  0.00    -0.468 OA
BRANCH   2  15
ATOM      6  N   UNL     1      -4.717  -9.971  12.354  0.00  0.00    -0.219 NA
ATOM      7  N   UNL     1      -2.956  -9.499  10.222  0.00  0.00    -0.256 NA
ATOM     15  C   UNL     1      -3.408 -10.284  12.427  0.00  0.00    +0.234 A 
ATOM     21  C   UNL     1      -2.543 -10.052  11.379  0.00  0.00    +0.177 A 
ATOM     22  C   UNL     1      -5.130  -9.418  11.197  0.00  0.00    +0.134 A 
ATOM     23  C   UNL     1      -4.265  -9.186  10.149  0.00  0.00    +0.130 A 
ENDBRANCH   2  15
ENDBRANCH   8   2
TORSDOF 4
ENDMDL
MODEL 6
REMARK VINA RESULT:      -5.3      1.934      2.724
REMARK  Name = 75536903
REMARK  5 active torsions:
REMARK  status: ('A' for Active; 'I' for Inactive)
REMARK    1  A    between atoms: O_2  and  C_8
REMARK    2  A    between atoms: O_2  and  C_15
REMARK    3  A    between atoms: O_4  and  C_18
REMARK    4  A    between atoms: O_4  and  C_24
REMARK    5  A    between atoms: C_13  and  C_14
REMARK                            x       y       z     vdW  Elec       q    Type
REMARK                         _______ _______ _______ _____ _____    ______ ____
ROOT
ATOM      1  O   UNL     1     -11.649 -11.006  18.357  0.00  0.00    -0.375 OA
ATOM      3  O   UNL     1      -7.423 -12.290  20.305  0.00  0.00    -0.270 OA
ATOM      5  N   UNL     1      -8.574 -10.790  18.919  0.00  0.00    -0.292 N 
ATOM      8  C   UNL     1     -10.019  -9.650  17.150  0.00  0.00    +0.218 C 
ATOM      9  C   UNL     1      -8.627 -10.036  17.661  0.00  0.00    +0.155 C 
ATOM     10  C   UNL     1      -9.717 -10.707  19.829  0.00  0.00    +0.136 C 
ATOM     11  C   UNL     1     -10.991 -10.827  17.107  0.00  0.00    +0.206 C 
ATOM     12  C   UNL     1     -10.852 -11.612  19.368  0.00  0.00    +0.179 C 
ATOM     13  C   UNL     1      -7.496 -11.618  19.277  0.00  0.00    +0.247 C 
ENDROOT
BRANCH  13  14
ATOM     14  C   UNL     1      -6.347 -11.700  18.362  0.00  0.00    +0.040 A 
ATOM     16  C   UNL     1      -6.271 -12.734  17.429  0.00  0.00    +0.058 A 
ATOM     17  C   UNL     1      -5.331 -10.745  18.429  0.00  0.00    +0.013 A 
ATOM     18  C   UNL     1      -5.181 -12.812  16.562  0.00  0.00    +0.121 A 
ATOM     19  C   UNL     1      -4.242 -10.824  17.562  0.00  0.00    +0.004 A 
ATOM     20  C   UNL     1      -4.167 -11.857  16.628  0.00  0.00    +0.045 A 
BRANCH  18   4
ATOM      4  O   UNL     1      -5.107 -13.820  15.650  0.00  0.00    -0.495 OA
ATOM     24  C   UNL     1      -4.685 -13.474  14.332  0.00  0.00    +0.277 C 
ENDBRANCH  18   4
ENDBRANCH  13  14
BRANCH   8   2
ATOM      2  O   UNL     1      -9.845  -9.141  15.827  0.00  0.00    -0.468 OA
BRANCH   2  15
ATOM      6  N   UNL     1     -10.471  -6.945  16.265  0.00  0.00    -0.219 NA
ATOM      7  N   UNL     1     -12.169  -7.016  14.034  0.00  0.00    -0.256 NA
ATOM     15  C   UNL     1     -10.588  -8.043  15.492  0.00  0.00    +0.234 A 
ATOM     21  C   UNL     1     -11.422  -8.077  14.395  0.00  0.00    +0.177 A 
ATOM     22  C   UNL     1     -11.218  -5.884  15.904  0.00  0.00    +0.134 A 
ATOM     23  C   UNL     1     -12.053  -5.919  14.808  0.00  0.00    +0.130 A 
ENDBRANCH   2  15
ENDBRANCH   8   2
TORSDOF 4
ENDMDL
MODEL 7
REMARK VINA RESULT:      -5.2      2.487      3.462
REMARK  Name = 75536903
REMARK  5 active torsions:
REMARK  status: ('A' for Active; 'I' for Inactive)
REMARK    1  A    between atoms: O_2  and  C_8
REMARK    2  A    between atoms: O_2  and  C_15
REMARK    3  A    between atoms: O_4  and  C_18
REMARK    4  A    between atoms: O_4  and  C_24
REMARK    5  A    between atoms: C_13  and  C_14
REMARK                            x       y       z     vdW  Elec       q    Type
REMARK                         _______ _______ _______ _____ _____    ______ ____
ROOT
ATOM      1  O   UNL     1      -5.703 -11.776  17.669  0.00  0.00    -0.375 OA
ATOM      3  O   UNL     1      -1.798 -11.617  14.835  0.00  0.00    -0.270 OA
ATOM      5  N   UNL     1      -3.958 -10.806  15.254  0.00  0.00    -0.292 N 
ATOM      8  C   UNL     1      -6.447 -10.498  15.729  0.00  0.00    +0.218 C 
ATOM      9  C   UNL     1      -5.282 -10.446  14.735  0.00  0.00    +0.155 C 
ATOM     10  C   UNL     1      -3.726 -10.712  16.696  0.00  0.00    +0.136 C 
ATOM     11  C   UNL     1      -6.519 -11.812  16.502  0.00  0.00    +0.206 C 
ATOM     12  C   UNL     1      -4.308 -11.915  17.425  0.00  0.00    +0.179 C 
ATOM     13  C   UNL     1      -2.912 -11.275  14.440  0.00  0.00    +0.247 C 
ENDROOT
BRANCH  13  14
ATOM     14  C   UNL     1      -3.146 -11.369  12.990  0.00  0.00    +0.040 A 
ATOM     16  C   UNL     1      -3.007 -10.239  12.186  0.00  0.00    +0.058 A 
ATOM     17  C   UNL     1      -3.507 -12.591  12.420  0.00  0.00    +0.013 A 
ATOM     18  C   UNL     1      -3.228 -10.329  10.812  0.00  0.00    +0.121 A 
ATOM     19  C   UNL     1      -3.729 -12.680  11.047  0.00  0.00    +0.004 A 
ATOM     20  C   UNL     1      -3.589 -11.550  10.242  0.00  0.00    +0.045 A 
BRANCH  18   4
ATOM      4  O   UNL     1      -3.091  -9.226  10.026  0.00  0.00    -0.495 OA
ATOM     24  C   UNL     1      -4.122  -8.975   9.073  0.00  0.00    +0.277 C 
ENDBRANCH  18   4
ENDBRANCH  13  14
BRANCH   8   2
ATOM      2  O   UNL     1      -7.645 -10.340  14.967  0.00  0.00    -0.468 OA
BRANCH   2  15
ATOM      6  N   UNL     1      -8.427  -8.842  16.564  0.00  0.00    -0.219 NA
ATOM      7  N   UNL     1     -11.058  -9.519  15.867  0.00  0.00    -0.256 NA
ATOM     15  C   UNL     1      -8.700  -9.748  15.604  0.00  0.00    +0.234 A 
ATOM     21  C   UNL     1      -9.993 -10.080  15.262  0.00  0.00    +0.177 A 
ATOM     22  C   UNL     1      -9.492  -8.280  17.169  0.00  0.00    +0.134 A 
ATOM     23  C   UNL     1     -10.785  -8.613  16.827  0.00  0.00    +0.130 A 
ENDBRANCH   2  15
ENDBRANCH   8   2
TORSDOF 4
ENDMDL
MODEL 8
REMARK VINA RESULT:      -5.2     23.016     24.678
REMARK  Name = 75536903
REMARK  5 active torsions:
REMARK  status: ('A' for Active; 'I' for Inactive)
REMARK    1  A    between atoms: O_2  and  C_8
REMARK    2  A    between atoms: O_2  and  C_15
REMARK    3  A    between atoms: O_4  and  C_18
REMARK    4  A    between atoms: O_4  and  C_24
REMARK    5  A    between atoms: C_13  and  C_14
REMARK                            x       y       z     vdW  Elec       q    Type
REMARK                         _______ _______ _______ _____ _____    ______ ____
ROOT
ATOM      1  O   UNL     1      -8.430  -8.278  39.920  0.00  0.00    -0.375 OA
ATOM      3  O   UNL     1      -4.298  -8.419  42.413  0.00  0.00    -0.270 OA
ATOM      5  N   UNL     1      -6.053  -7.101  41.588  0.00  0.00    -0.292 N 
ATOM      8  C   UNL     1      -7.828  -5.928  40.179  0.00  0.00    +0.218 C 
ATOM      9  C   UNL     1      -6.485  -5.872  40.912  0.00  0.00    +0.155 C 
ATOM     10  C   UNL     1      -7.068  -8.092  41.945  0.00  0.00    +0.136 C 
ATOM     11  C   UNL     1      -7.950  -7.124  39.237  0.00  0.00    +0.206 C 
ATOM     12  C   UNL     1      -7.465  -8.931  40.737  0.00  0.00    +0.179 C 
ATOM     13  C   UNL     1      -4.708  -7.390  41.877  0.00  0.00    +0.247 C 
ENDROOT
BRANCH  13  14
ATOM     14  C   UNL     1      -3.688  -6.392  41.518  0.00  0.00    +0.040 A 
ATOM     16  C   UNL     1      -2.899  -6.577  40.383  0.00  0.00    +0.058 A 
ATOM     17  C   UNL     1      -3.508  -5.261  42.316  0.00  0.00    +0.013 A 
ATOM     18  C   UNL     1      -1.932  -5.632  40.044  0.00  0.00    +0.121 A 
ATOM     19  C   UNL     1      -2.540  -4.316  41.976  0.00  0.00    +0.004 A 
ATOM     20  C   UNL     1      -1.753  -4.501  40.840  0.00  0.00    +0.045 A 
BRANCH  18   4
ATOM      4  O   UNL     1      -1.164  -5.812  38.935  0.00  0.00    -0.495 OA
ATOM     24  C   UNL     1      -1.752  -5.484  37.677  0.00  0.00    +0.277 C 
ENDBRANCH  18   4
ENDBRANCH  13  14
BRANCH   8   2
ATOM      2  O   UNL     1      -7.932  -4.724  39.417  0.00  0.00    -0.468 OA
BRANCH   2  15
ATOM      6  N   UNL     1      -8.722  -2.590  39.894  0.00  0.00    -0.219 NA
ATOM      7  N   UNL     1     -11.316  -3.632  40.116  0.00  0.00    -0.256 NA
ATOM     15  C   UNL     1      -8.982  -3.900  39.715  0.00  0.00    +0.234 A 
ATOM     21  C   UNL     1     -10.257  -4.412  39.824  0.00  0.00    +0.177 A 
ATOM     22  C   UNL     1      -9.781  -1.810  40.186  0.00  0.00    +0.134 A 
ATOM     23  C   UNL     1     -11.055  -2.322  40.295  0.00  0.00    +0.130 A 
ENDBRANCH   2  15
ENDBRANCH   8   2
TORSDOF 4
ENDMDL
MODEL 9
REMARK VINA RESULT:      -5.1      2.876      5.232
REMARK  Name = 75536903
REMARK  5 active torsions:
REMARK  status: ('A' for Active; 'I' for Inactive)
REMARK    1  A    between atoms: O_2  and  C_8
REMARK    2  A    between atoms: O_2  and  C_15
REMARK    3  A    between atoms: O_4  and  C_18
REMARK    4  A    between atoms: O_4  and  C_24
REMARK    5  A    between atoms: C_13  and  C_14
REMARK                            x       y       z     vdW  Elec       q    Type
REMARK                         _______ _______ _______ _____ _____    ______ ____
ROOT
ATOM      1  O   UNL     1      -4.913 -14.099  16.051  0.00  0.00    -0.375 OA
ATOM      3  O   UNL     1      -2.960 -13.966  11.638  0.00  0.00    -0.270 OA
ATOM      5  N   UNL     1      -3.029 -13.030  13.787  0.00  0.00    -0.292 N 
ATOM      8  C   UNL     1      -3.685 -11.991  16.024  0.00  0.00    +0.218 C 
ATOM      9  C   UNL     1      -3.075 -11.829  14.628  0.00  0.00    +0.155 C 
ATOM     10  C   UNL     1      -3.088 -14.339  14.439  0.00  0.00    +0.136 C 
ATOM     11  C   UNL     1      -5.047 -12.681  16.008  0.00  0.00    +0.206 C 
ATOM     12  C   UNL     1      -4.518 -14.697  14.822  0.00  0.00    +0.179 C 
ATOM     13  C   UNL     1      -2.969 -12.987  12.383  0.00  0.00    +0.247 C 
ENDROOT
BRANCH  13  14
ATOM     14  C   UNL     1      -2.909 -11.671  11.728  0.00  0.00    +0.040 A 
ATOM     16  C   UNL     1      -3.925 -11.278  10.857  0.00  0.00    +0.058 A 
ATOM     17  C   UNL     1      -1.835 -10.815  11.978  0.00  0.00    +0.013 A 
ATOM     18  C   UNL     1      -3.868 -10.031  10.236  0.00  0.00    +0.121 A 
ATOM     19  C   UNL     1      -1.779  -9.568  11.356  0.00  0.00    +0.004 A 
ATOM     20  C   UNL     1      -2.795  -9.176  10.486  0.00  0.00    +0.045 A 
BRANCH  18   4
ATOM      4  O   UNL     1      -4.860  -9.647   9.387  0.00  0.00    -0.495 OA
ATOM     24  C   UNL     1      -6.060 -10.418   9.399  0.00  0.00    +0.277 C 
ENDBRANCH  18   4
ENDBRANCH  13  14
BRANCH   8   2
ATOM      2  O   UNL     1      -3.836 -10.677  16.562  0.00  0.00    -0.468 OA
BRANCH   2  15
ATOM      6  N   UNL     1      -5.428 -10.640  18.255  0.00  0.00    -0.219 NA
ATOM      7  N   UNL     1      -7.200  -9.329  16.521  0.00  0.00    -0.256 NA
ATOM     15  C   UNL     1      -5.088 -10.330  16.988  0.00  0.00    +0.234 A 
ATOM     21  C   UNL     1      -5.959  -9.686  16.137  0.00  0.00    +0.177 A 
ATOM     22  C   UNL     1      -6.669 -10.284  18.640  0.00  0.00    +0.134 A 
ATOM     23  C   UNL     1      -7.540  -9.640  17.788  0.00  0.00    +0.130 A 
ENDBRANCH   2  15
ENDBRANCH   8   2
TORSDOF 4
ENDMDL
MODEL 10
REMARK VINA RESULT:      -5.1     26.089     28.319
REMARK  Name = 75536903
REMARK  5 active torsions:
REMARK  status: ('A' for Active; 'I' for Inactive)
REMARK    1  A    between atoms: O_2  and  C_8
REMARK    2  A    between atoms: O_2  and  C_15
REMARK    3  A    between atoms: O_4  and  C_18
REMARK    4  A    between atoms: O_4  and  C_24
REMARK    5  A    between atoms: C_13  and  C_14
REMARK                            x       y       z     vdW  Elec       q    Type
REMARK                         _______ _______ _______ _____ _____    ______ ____
ROOT
ATOM      1  O   UNL     1      20.790  -3.383  29.551  0.00  0.00    -0.375 OA
ATOM      3  O   UNL     1      21.004  -0.818  25.467  0.00  0.00    -0.270 OA
ATOM      5  N   UNL     1      19.645  -1.743  27.139  0.00  0.00    -0.292 N 
ATOM      8  C   UNL     1      18.463  -3.244  28.831  0.00  0.00    +0.218 C 
ATOM      9  C   UNL     1      18.435  -2.493  27.497  0.00  0.00    +0.155 C 
ATOM     10  C   UNL     1      20.562  -1.349  28.209  0.00  0.00    +0.136 C 
ATOM     11  C   UNL     1      19.702  -4.120  29.003  0.00  0.00    +0.206 C 
ATOM     12  C   UNL     1      21.445  -2.515  28.632  0.00  0.00    +0.179 C 
ATOM     13  C   UNL     1      19.986  -1.417  25.815  0.00  0.00    +0.247 C 
ENDROOT
BRANCH  13  14
ATOM     14  C   UNL     1      19.064  -1.813  24.739  0.00  0.00    +0.040 A 
ATOM     16  C   UNL     1      19.197  -3.060  24.129  0.00  0.00    +0.058 A 
ATOM     17  C   UNL     1      18.056  -0.940  24.328  0.00  0.00    +0.013 A 
ATOM     18  C   UNL     1      18.323  -3.434  23.109  0.00  0.00    +0.121 A 
ATOM     19  C   UNL     1      17.182  -1.315  23.308  0.00  0.00    +0.004 A 
ATOM     20  C   UNL     1      17.315  -2.562  22.699  0.00  0.00    +0.045 A 
BRANCH  18   4
ATOM      4  O   UNL     1      18.452  -4.652  22.515  0.00  0.00    -0.495 OA
ATOM     24  C   UNL     1      17.805  -5.756  23.147  0.00  0.00    +0.277 C 
ENDBRANCH  18   4
ENDBRANCH  13  14
BRANCH   8   2
ATOM      2  O   UNL     1      17.300  -4.072  28.862  0.00  0.00    -0.468 OA
BRANCH   2  15
ATOM      6  N   UNL     1      16.583  -2.821  30.686  0.00  0.00    -0.219 NA
ATOM      7  N   UNL     1      14.815  -4.888  31.370  0.00  0.00    -0.256 NA
ATOM     15  C   UNL     1      16.494  -3.953  29.960  0.00  0.00    +0.234 A 
ATOM     21  C   UNL     1      15.624  -4.968  30.296  0.00  0.00    +0.177 A 
ATOM     22  C   UNL     1      15.774  -2.741  31.760  0.00  0.00    +0.134 A 
ATOM     23  C   UNL     1      14.905  -3.756  32.097  0.00  0.00    +0.130 A 
ENDBRANCH   2  15
ENDBRANCH   8   2
TORSDOF 4
ENDMDL
