REMARK  Name = 11941480
REMARK  6 active torsions:
REMARK  status: ('A' for Active; 'I' for Inactive)
REMARK    1  A    between atoms: N_8  and  C_11
REMARK    2  A    between atoms: N_10  and  C_24
REMARK    3  A    between atoms: C_22  and  C_25
REMARK    4  A    between atoms: C_24  and  C_26
REMARK    5  A    between atoms: C_24  and  C_27
REMARK    6  A    between atoms: C_30  and  C_33
REMARK                            x       y       z     vdW  Elec       q    Type
REMARK                         _______ _______ _______ _____ _____    ______ ____
ROOT
ATOM      4  O   UNL     1      -3.686  -3.272   0.720  0.00  0.00    -0.273 OA
ATOM      5  O   UNL     1      -0.016  -1.477  -2.608  0.00  0.00    -0.270 OA
ATOM      7  N   UNL     1      -1.981  -1.428  -1.414  0.00  0.00    -0.284 N 
ATOM      9  N   UNL     1      -1.447  -2.983   1.026  0.00  0.00    -0.283 N 
ATOM     11  C   UNL     1      -4.128  -0.832  -0.621  0.00  0.00    +0.105 C 
ATOM     12  C   UNL     1      -2.720  -1.253  -0.177  0.00  0.00    +0.183 C 
ATOM     13  C   UNL     1      -4.260  -1.445  -2.016  0.00  0.00    +0.043 C 
ATOM     14  C   UNL     1      -2.851  -1.346  -2.579  0.00  0.00    +0.111 C 
ATOM     15  C   UNL     1      -2.672  -2.599   0.521  0.00  0.00    +0.240 C 
ATOM     16  C   UNL     1      -0.609  -1.492  -1.530  0.00  0.00    +0.249 C 
ATOM     17  C   UNL     1       0.193  -1.612  -0.284  0.00  0.00    +0.059 A 
ATOM     18  C   UNL     1      -0.187  -2.376   0.832  0.00  0.00    +0.046 A 
ATOM     20  C   UNL     1       1.481  -1.047  -0.329  0.00  0.00    +0.023 A 
ATOM     21  C   UNL     1       0.758  -2.611   1.846  0.00  0.00    +0.024 A 
ATOM     22  C   UNL     1       2.388  -1.251   0.709  0.00  0.00    -0.017 A 
ATOM     23  C   UNL     1       2.031  -2.045   1.792  0.00  0.00    +0.010 A 
ATOM     35  H   UNL     1      -1.471  -3.755   1.688  0.00  0.00    +0.155 HD
ENDROOT
BRANCH  11   8
ATOM      6  O   UNL     1      -5.099   0.903   1.470  0.00  0.00    -0.253 OA
ATOM      8  N   UNL     1      -4.246   0.607  -0.669  0.00  0.00    -0.294 N 
ATOM     10  N   UNL     1      -4.736   2.724   0.079  0.00  0.00    -0.297 N 
ATOM     19  C   UNL     1      -4.728   1.368   0.393  0.00  0.00    +0.300 C 
ATOM     34  H   UNL     1      -3.906   1.095  -1.492  0.00  0.00    +0.151 HD
ATOM     36  H   UNL     1      -4.340   3.017  -0.809  0.00  0.00    +0.150 HD
BRANCH  10  24
ATOM     24  C   UNL     1      -5.188   3.739   1.002  0.00  0.00    +0.068 C 
ATOM     26  C   UNL     1      -5.814   4.902   0.245  0.00  0.00    +0.027 C 
ATOM     27  C   UNL     1      -4.039   4.209   1.885  0.00  0.00    +0.027 C 
ENDBRANCH  10  24
ENDBRANCH  11   8
BRANCH  22  25
ATOM     25  C   UNL     1       3.707  -0.658   0.647  0.00  0.00    -0.017 A 
ATOM     28  C   UNL     1       3.895   0.558  -0.009  0.00  0.00    +0.021 A 
ATOM     29  C   UNL     1       4.790  -1.303   1.245  0.00  0.00    +0.008 A 
ATOM     30  C   UNL     1       5.166   1.129  -0.068  0.00  0.00    +0.055 A 
ATOM     31  C   UNL     1       6.061  -0.732   1.186  0.00  0.00    +0.001 A 
ATOM     32  C   UNL     1       6.249   0.484   0.530  0.00  0.00    +0.012 A 
BRANCH  30  33
ATOM      1  F   UNL     1       6.662   2.869  -0.744  0.00  0.00    -0.166 F 
ATOM      2  F   UNL     1       5.027   2.399  -2.090  0.00  0.00    -0.166 F 
ATOM      3  F   UNL     1       4.630   3.440  -0.223  0.00  0.00    -0.166 F 
ATOM     33  C   UNL     1       5.369   2.431  -0.768  0.00  0.00    +0.417 C 
ENDBRANCH  30  33
ENDBRANCH  22  25
TORSDOF 4
