REMARK  Name = 56775585
REMARK  7 active torsions:
REMARK  status: ('A' for Active; 'I' for Inactive)
REMARK    1  A    between atoms: O_3  and  C_20
REMARK    2  A    between atoms: N_4  and  C_7
REMARK    3  A    between atoms: N_4  and  C_11
REMARK    4  A    between atoms: C_7  and  C_10
REMARK    5  A    between atoms: C_10  and  C_12
REMARK    6  A    between atoms: C_11  and  C_13
REMARK    7  A    between atoms: C_15  and  C_20
REMARK                            x       y       z     vdW  Elec       q    Type
REMARK                         _______ _______ _______ _____ _____    ______ ____
ROOT
ATOM      4  N   UNL     1      -0.561   0.814   0.254  0.00  0.00    -0.302 NA
ATOM     25  H   UNL     1      -0.932  -0.013   0.719  0.00  0.00    +0.123 HD
ENDROOT
BRANCH   4   7
ATOM      1  O   UNL     1      -1.376   3.633   1.016  0.00  0.00    -0.376 OA
ATOM      7  C   UNL     1      -1.558   1.826  -0.105  0.00  0.00    +0.072 C 
ATOM      8  C   UNL     1      -2.140   2.416   1.174  0.00  0.00    +0.184 C 
ATOM      9  C   UNL     1      -0.859   3.172  -0.253  0.00  0.00    +0.184 C 
BRANCH   7  10
ATOM     10  C   UNL     1      -2.489   1.370  -1.185  0.00  0.00    +0.085 C 
BRANCH  10  12
ATOM      2  O   UNL     1      -5.209  -0.544   0.228  0.00  0.00    -0.357 OA
ATOM      5  N   UNL     1      -4.605   0.654  -0.133  0.00  0.00    -0.083 NA
ATOM     12  C   UNL     1      -3.432   0.303  -0.668  0.00  0.00    +0.086 A 
ATOM     14  C   UNL     1      -3.243  -1.090  -0.671  0.00  0.00    +0.073 A 
ATOM     15  C   UNL     1      -4.388  -1.575  -0.097  0.00  0.00    +0.163 A 
BRANCH  15  20
ATOM     20  C   UNL     1      -4.874  -2.924   0.218  0.00  0.00    +0.232 C 
BRANCH  20   3
ATOM      3  O   UNL     1      -4.773  -3.172   1.623  0.00  0.00    -0.387 OA
ATOM     26  H   UNL     1      -5.106  -4.073   1.776  0.00  0.00    +0.210 HD
ENDBRANCH  20   3
ENDBRANCH  15  20
ENDBRANCH  10  12
ENDBRANCH   7  10
ENDBRANCH   4   7
BRANCH   4  11
ATOM     11  C   UNL     1       0.173   0.417  -0.951  0.00  0.00    +0.118 C 
BRANCH  11  13
ATOM      6  N   UNL     1       2.974  -2.043  -0.421  0.00  0.00    -0.255 NA
ATOM     13  C   UNL     1       1.521  -0.129  -0.644  0.00  0.00    -0.015 A 
ATOM     16  C   UNL     1       2.574   0.707  -0.299  0.00  0.00    +0.016 A 
ATOM     17  C   UNL     1       1.772  -1.485  -0.690  0.00  0.00    +0.116 A 
ATOM     18  C   UNL     1       3.836   0.170  -0.013  0.00  0.00    +0.001 A 
ATOM     19  C   UNL     1       3.994  -1.230  -0.087  0.00  0.00    +0.071 A 
ATOM     21  C   UNL     1       4.922   0.989   0.339  0.00  0.00    +0.010 A 
ATOM     22  C   UNL     1       5.248  -1.763   0.198  0.00  0.00    +0.028 A 
ATOM     23  C   UNL     1       6.165   0.429   0.619  0.00  0.00    +0.001 A 
ATOM     24  C   UNL     1       6.328  -0.949   0.548  0.00  0.00    +0.002 A 
ENDBRANCH  11  13
ENDBRANCH   4  11
TORSDOF 7
