MODEL 1
REMARK VINA RESULT:      -7.7      0.000      0.000
REMARK  Name = 11941479
REMARK  6 active torsions:
REMARK  status: ('A' for Active; 'I' for Inactive)
REMARK    1  A    between atoms: S_1  and  C_24
REMARK    2  A    between atoms: S_1  and  C_31
REMARK    3  A    between atoms: N_9  and  C_11
REMARK    4  A    between atoms: C_19  and  C_24
REMARK    5  A    between atoms: C_22  and  C_25
REMARK    6  A    between atoms: C_28  and  C_32
REMARK                            x       y       z     vdW  Elec       q    Type
REMARK                         _______ _______ _______ _____ _____    ______ ____
ROOT
ATOM      5  O   UNL     1     -16.580   1.821  24.235  0.00  0.00    -0.273 OA
ATOM      6  O   UNL     1     -17.443   7.018  24.203  0.00  0.00    -0.270 OA
ATOM      8  N   UNL     1     -16.977   4.967  25.132  0.00  0.00    -0.284 N 
ATOM     10  N   UNL     1     -15.565   3.466  23.032  0.00  0.00    -0.283 N 
ATOM     11  C   UNL     1     -16.626   3.216  26.684  0.00  0.00    +0.104 C 
ATOM     12  C   UNL     1     -16.072   3.866  25.408  0.00  0.00    +0.183 C 
ATOM     13  C   UNL     1     -18.117   3.557  26.638  0.00  0.00    +0.043 C 
ATOM     14  C   UNL     1     -18.143   4.938  26.003  0.00  0.00    +0.111 C 
ATOM     15  C   UNL     1     -16.136   2.969  24.184  0.00  0.00    +0.240 C 
ATOM     16  C   UNL     1     -16.722   6.024  24.284  0.00  0.00    +0.249 C 
ATOM     17  C   UNL     1     -15.526   5.944  23.406  0.00  0.00    +0.059 A 
ATOM     18  C   UNL     1     -15.079   4.769  22.781  0.00  0.00    +0.046 A 
ATOM     20  C   UNL     1     -14.930   7.174  23.072  0.00  0.00    +0.023 A 
ATOM     21  C   UNL     1     -14.091   4.863  21.786  0.00  0.00    +0.024 A 
ATOM     22  C   UNL     1     -13.918   7.242  22.116  0.00  0.00    -0.017 A 
ATOM     23  C   UNL     1     -13.507   6.088  21.462  0.00  0.00    +0.010 A 
ATOM     34  H   UNL     1     -15.398   2.782  22.298  0.00  0.00    +0.155 HD
ENDROOT
BRANCH  22  25
ATOM     25  C   UNL     1     -13.314   8.515  21.787  0.00  0.00    -0.017 A 
ATOM     26  C   UNL     1     -12.370   8.595  20.763  0.00  0.00    +0.021 A 
ATOM     27  C   UNL     1     -13.674   9.663  22.494  0.00  0.00    +0.008 A 
ATOM     28  C   UNL     1     -11.788   9.822  20.445  0.00  0.00    +0.055 A 
ATOM     29  C   UNL     1     -13.091  10.890  22.177  0.00  0.00    +0.001 A 
ATOM     30  C   UNL     1     -12.148  10.969  21.152  0.00  0.00    +0.012 A 
BRANCH  28  32
ATOM      2  F   UNL     1      -9.569   9.366  19.675  0.00  0.00    -0.166 F 
ATOM      3  F   UNL     1     -11.160   9.266  18.205  0.00  0.00    -0.166 F 
ATOM      4  F   UNL     1     -10.517  11.195  18.977  0.00  0.00    -0.166 F 
ATOM     32  C   UNL     1     -10.780   9.908  19.348  0.00  0.00    +0.417 C 
ENDBRANCH  28  32
ENDBRANCH  22  25
BRANCH  11   9
ATOM      7  O   UNL     1     -15.565   1.768  28.954  0.00  0.00    -0.275 OA
ATOM      9  N   UNL     1     -15.998   3.772  27.860  0.00  0.00    -0.309 N 
ATOM     19  C   UNL     1     -15.517   2.995  28.902  0.00  0.00    +0.223 C 
ATOM     33  H   UNL     1     -15.854   4.778  27.894  0.00  0.00    +0.149 HD
BRANCH  19  24
ATOM     24  C   UNL     1     -14.923   3.816  30.023  0.00  0.00    +0.164 C 
BRANCH  24   1
ATOM      1  S   UNL     1     -13.598   2.866  30.806  0.00  0.00    -0.155 S 
ATOM     31  C   UNL     1     -14.477   2.364  32.305  0.00  0.00    +0.085 C 
ENDBRANCH  24   1
ENDBRANCH  19  24
ENDBRANCH  11   9
TORSDOF 5
ENDMDL
MODEL 2
REMARK VINA RESULT:      -7.5     26.656     29.235
REMARK  Name = 11941479
REMARK  6 active torsions:
REMARK  status: ('A' for Active; 'I' for Inactive)
REMARK    1  A    between atoms: S_1  and  C_24
REMARK    2  A    between atoms: S_1  and  C_31
REMARK    3  A    between atoms: N_9  and  C_11
REMARK    4  A    between atoms: C_19  and  C_24
REMARK    5  A    between atoms: C_22  and  C_25
REMARK    6  A    between atoms: C_28  and  C_32
REMARK                            x       y       z     vdW  Elec       q    Type
REMARK                         _______ _______ _______ _____ _____    ______ ____
ROOT
ATOM      5  O   UNL     1      12.089   6.276  19.270  0.00  0.00    -0.273 OA
ATOM      6  O   UNL     1      15.172   9.245  22.342  0.00  0.00    -0.270 OA
ATOM      8  N   UNL     1      14.314   8.447  20.364  0.00  0.00    -0.284 N 
ATOM     10  N   UNL     1      11.538   7.686  20.972  0.00  0.00    -0.283 N 
ATOM     11  C   UNL     1      13.990   7.976  18.068  0.00  0.00    +0.104 C 
ATOM     12  C   UNL     1      13.266   8.378  19.361  0.00  0.00    +0.183 C 
ATOM     13  C   UNL     1      15.217   7.212  18.570  0.00  0.00    +0.043 C 
ATOM     14  C   UNL     1      15.579   7.936  19.857  0.00  0.00    +0.111 C 
ATOM     15  C   UNL     1      12.285   7.336  19.867  0.00  0.00    +0.240 C 
ATOM     16  C   UNL     1      14.214   9.067  21.591  0.00  0.00    +0.249 C 
ATOM     17  C   UNL     1      12.872   9.521  22.038  0.00  0.00    +0.059 A 
ATOM     18  C   UNL     1      11.679   8.815  21.809  0.00  0.00    +0.046 A 
ATOM     20  C   UNL     1      12.857  10.647  22.882  0.00  0.00    +0.023 A 
ATOM     21  C   UNL     1      10.514   9.214  22.486  0.00  0.00    +0.024 A 
ATOM     22  C   UNL     1      11.681  11.056  23.508  0.00  0.00    -0.017 A 
ATOM     23  C   UNL     1      10.510  10.332  23.320  0.00  0.00    +0.010 A 
ATOM     34  H   UNL     1      10.730   7.096  21.157  0.00  0.00    +0.155 HD
ENDROOT
BRANCH  22  25
ATOM     25  C   UNL     1      11.682  12.218  24.369  0.00  0.00    -0.017 A 
ATOM     26  C   UNL     1      12.722  12.410  25.280  0.00  0.00    +0.021 A 
ATOM     27  C   UNL     1      10.645  13.147  24.291  0.00  0.00    +0.008 A 
ATOM     28  C   UNL     1      12.724  13.530  26.111  0.00  0.00    +0.055 A 
ATOM     29  C   UNL     1      10.647  14.267  25.123  0.00  0.00    +0.001 A 
ATOM     30  C   UNL     1      11.687  14.459  26.032  0.00  0.00    +0.012 A 
BRANCH  28  32
ATOM      2  F   UNL     1      14.896  14.425  26.563  0.00  0.00    -0.166 F 
ATOM      3  F   UNL     1      13.468  14.437  28.196  0.00  0.00    -0.166 F 
ATOM      4  F   UNL     1      14.356  12.561  27.544  0.00  0.00    -0.166 F 
ATOM     32  C   UNL     1      13.837  13.736  27.083  0.00  0.00    +0.417 C 
ENDBRANCH  28  32
ENDBRANCH  22  25
BRANCH  11   9
ATOM      7  O   UNL     1      13.541   8.455  15.250  0.00  0.00    -0.275 OA
ATOM      9  N   UNL     1      14.374   9.142  17.308  0.00  0.00    -0.309 N 
ATOM     19  C   UNL     1      14.115   9.284  15.953  0.00  0.00    +0.223 C 
ATOM     33  H   UNL     1      14.805   9.916  17.806  0.00  0.00    +0.149 HD
BRANCH  19  24
ATOM     24  C   UNL     1      14.634  10.584  15.387  0.00  0.00    +0.164 C 
BRANCH  24   1
ATOM      1  S   UNL     1      14.563  11.854  16.673  0.00  0.00    -0.155 S 
ATOM     31  C   UNL     1      16.200  12.581  16.425  0.00  0.00    +0.085 C 
ENDBRANCH  24   1
ENDBRANCH  19  24
ENDBRANCH  11   9
TORSDOF 5
ENDMDL
MODEL 3
REMARK VINA RESULT:      -7.3     17.825     20.116
REMARK  Name = 11941479
REMARK  6 active torsions:
REMARK  status: ('A' for Active; 'I' for Inactive)
REMARK    1  A    between atoms: S_1  and  C_24
REMARK    2  A    between atoms: S_1  and  C_31
REMARK    3  A    between atoms: N_9  and  C_11
REMARK    4  A    between atoms: C_19  and  C_24
REMARK    5  A    between atoms: C_22  and  C_25
REMARK    6  A    between atoms: C_28  and  C_32
REMARK                            x       y       z     vdW  Elec       q    Type
REMARK                         _______ _______ _______ _____ _____    ______ ____
ROOT
ATOM      5  O   UNL     1     -11.053  -9.631  18.966  0.00  0.00    -0.273 OA
ATOM      6  O   UNL     1      -8.693 -11.514  14.648  0.00  0.00    -0.270 OA
ATOM      8  N   UNL     1      -9.989 -10.066  15.877  0.00  0.00    -0.284 N 
ATOM     10  N   UNL     1      -8.863 -10.130  18.594  0.00  0.00    -0.283 N 
ATOM     11  C   UNL     1     -11.499  -8.352  16.493  0.00  0.00    +0.104 C 
ATOM     12  C   UNL     1     -10.140  -8.982  16.831  0.00  0.00    +0.183 C 
ATOM     13  C   UNL     1     -12.279  -9.507  15.862  0.00  0.00    +0.043 C 
ATOM     14  C   UNL     1     -11.210 -10.287  15.115  0.00  0.00    +0.111 C 
ATOM     15  C   UNL     1     -10.088  -9.633  18.201  0.00  0.00    +0.240 C 
ATOM     16  C   UNL     1      -8.811 -10.715  15.577  0.00  0.00    +0.249 C 
ATOM     17  C   UNL     1      -7.628 -10.452  16.436  0.00  0.00    +0.059 A 
ATOM     18  C   UNL     1      -7.685 -10.276  17.829  0.00  0.00    +0.046 A 
ATOM     20  C   UNL     1      -6.376 -10.559  15.804  0.00  0.00    +0.023 A 
ATOM     21  C   UNL     1      -6.485 -10.278  18.562  0.00  0.00    +0.024 A 
ATOM     22  C   UNL     1      -5.195 -10.512  16.542  0.00  0.00    -0.017 A 
ATOM     23  C   UNL     1      -5.249 -10.385  17.924  0.00  0.00    +0.010 A 
ATOM     34  H   UNL     1      -8.776 -10.343  19.585  0.00  0.00    +0.155 HD
ENDROOT
BRANCH  22  25
ATOM     25  C   UNL     1      -3.916 -10.619  15.875  0.00  0.00    -0.017 A 
ATOM     26  C   UNL     1      -3.858 -10.671  14.481  0.00  0.00    +0.021 A 
ATOM     27  C   UNL     1      -2.740 -10.672  16.623  0.00  0.00    +0.008 A 
ATOM     28  C   UNL     1      -2.625 -10.774  13.838  0.00  0.00    +0.055 A 
ATOM     29  C   UNL     1      -1.507 -10.776  15.979  0.00  0.00    +0.001 A 
ATOM     30  C   UNL     1      -1.449 -10.827  14.587  0.00  0.00    +0.012 A 
BRANCH  28  32
ATOM      2  F   UNL     1      -3.650 -10.270  11.736  0.00  0.00    -0.166 F 
ATOM      3  F   UNL     1      -1.484 -10.175  11.822  0.00  0.00    -0.166 F 
ATOM      4  F   UNL     1      -2.489 -12.104  11.871  0.00  0.00    -0.166 F 
ATOM     32  C   UNL     1      -2.563 -10.827  12.348  0.00  0.00    +0.417 C 
ENDBRANCH  28  32
ENDBRANCH  22  25
BRANCH  11   9
ATOM      7  O   UNL     1     -13.473  -6.354  15.795  0.00  0.00    -0.275 OA
ATOM      9  N   UNL     1     -11.344  -7.256  15.565  0.00  0.00    -0.309 N 
ATOM     19  C   UNL     1     -12.351  -6.344  15.293  0.00  0.00    +0.223 C 
ATOM     33  H   UNL     1     -10.433  -7.120  15.136  0.00  0.00    +0.149 HD
BRANCH  19  24
ATOM     24  C   UNL     1     -11.946  -5.306  14.274  0.00  0.00    +0.164 C 
BRANCH  24   1
ATOM      1  S   UNL     1     -13.408  -4.798  13.339  0.00  0.00    -0.155 S 
ATOM     31  C   UNL     1     -12.618  -3.617  12.222  0.00  0.00    +0.085 C 
ENDBRANCH  24   1
ENDBRANCH  19  24
ENDBRANCH  11   9
TORSDOF 5
ENDMDL
MODEL 4
REMARK VINA RESULT:      -7.3     30.604     34.283
REMARK  Name = 11941479
REMARK  6 active torsions:
REMARK  status: ('A' for Active; 'I' for Inactive)
REMARK    1  A    between atoms: S_1  and  C_24
REMARK    2  A    between atoms: S_1  and  C_31
REMARK    3  A    between atoms: N_9  and  C_11
REMARK    4  A    between atoms: C_19  and  C_24
REMARK    5  A    between atoms: C_22  and  C_25
REMARK    6  A    between atoms: C_28  and  C_32
REMARK                            x       y       z     vdW  Elec       q    Type
REMARK                         _______ _______ _______ _____ _____    ______ ____
ROOT
ATOM      5  O   UNL     1      12.296   3.322  -2.033  0.00  0.00    -0.273 OA
ATOM      6  O   UNL     1      11.282   7.846   0.470  0.00  0.00    -0.270 OA
ATOM      8  N   UNL     1      10.985   6.201  -1.109  0.00  0.00    -0.284 N 
ATOM     10  N   UNL     1      11.902   3.717   0.174  0.00  0.00    -0.283 N 
ATOM     11  C   UNL     1      10.256   5.002  -3.014  0.00  0.00    +0.104 C 
ATOM     12  C   UNL     1      10.532   4.881  -1.509  0.00  0.00    +0.183 C 
ATOM     13  C   UNL     1      11.187   6.132  -3.457  0.00  0.00    +0.043 C 
ATOM     14  C   UNL     1      11.199   7.068  -2.259  0.00  0.00    +0.111 C 
ATOM     15  C   UNL     1      11.672   3.938  -1.168  0.00  0.00    +0.240 C 
ATOM     16  C   UNL     1      11.050   6.671   0.185  0.00  0.00    +0.249 C 
ATOM     17  C   UNL     1      10.854   5.701   1.293  0.00  0.00    +0.059 A 
ATOM     18  C   UNL     1      11.336   4.382   1.285  0.00  0.00    +0.046 A 
ATOM     20  C   UNL     1      10.292   6.225   2.472  0.00  0.00    +0.023 A 
ATOM     21  C   UNL     1      11.304   3.641   2.479  0.00  0.00    +0.024 A 
ATOM     22  C   UNL     1      10.227   5.459   3.634  0.00  0.00    -0.017 A 
ATOM     23  C   UNL     1      10.745   4.170   3.643  0.00  0.00    +0.010 A 
ATOM     34  H   UNL     1      12.493   2.918   0.390  0.00  0.00    +0.155 HD
ENDROOT
BRANCH  22  25
ATOM     25  C   UNL     1       9.642   6.012   4.836  0.00  0.00    -0.017 A 
ATOM     26  C   UNL     1       9.883   5.408   6.071  0.00  0.00    +0.021 A 
ATOM     27  C   UNL     1       8.837   7.149   4.763  0.00  0.00    +0.008 A 
ATOM     28  C   UNL     1       9.320   5.941   7.231  0.00  0.00    +0.055 A 
ATOM     29  C   UNL     1       8.273   7.681   5.922  0.00  0.00    +0.001 A 
ATOM     30  C   UNL     1       8.515   7.078   7.156  0.00  0.00    +0.012 A 
BRANCH  28  32
ATOM      2  F   UNL     1       8.643   5.597   9.499  0.00  0.00    -0.166 F 
ATOM      3  F   UNL     1       9.607   3.932   8.497  0.00  0.00    -0.166 F 
ATOM      4  F   UNL     1      10.778   5.667   9.090  0.00  0.00    -0.166 F 
ATOM     32  C   UNL     1       9.580   5.297   8.551  0.00  0.00    +0.417 C 
ENDBRANCH  28  32
ENDBRANCH  22  25
BRANCH  11   9
ATOM      7  O   UNL     1       8.721   4.472  -5.410  0.00  0.00    -0.275 OA
ATOM      9  N   UNL     1       8.872   5.338  -3.258  0.00  0.00    -0.309 N 
ATOM     19  C   UNL     1       8.218   5.043  -4.444  0.00  0.00    +0.223 C 
ATOM     33  H   UNL     1       8.343   5.762  -2.501  0.00  0.00    +0.149 HD
BRANCH  19  24
ATOM     24  C   UNL     1       6.783   5.515  -4.458  0.00  0.00    +0.164 C 
BRANCH  24   1
ATOM      1  S   UNL     1       6.563   6.763  -3.168  0.00  0.00    -0.155 S 
ATOM     31  C   UNL     1       4.757   6.742  -3.079  0.00  0.00    +0.085 C 
ENDBRANCH  24   1
ENDBRANCH  19  24
ENDBRANCH  11   9
TORSDOF 5
ENDMDL
MODEL 5
REMARK VINA RESULT:      -7.2     19.259     21.276
REMARK  Name = 11941479
REMARK  6 active torsions:
REMARK  status: ('A' for Active; 'I' for Inactive)
REMARK    1  A    between atoms: S_1  and  C_24
REMARK    2  A    between atoms: S_1  and  C_31
REMARK    3  A    between atoms: N_9  and  C_11
REMARK    4  A    between atoms: C_19  and  C_24
REMARK    5  A    between atoms: C_22  and  C_25
REMARK    6  A    between atoms: C_28  and  C_32
REMARK                            x       y       z     vdW  Elec       q    Type
REMARK                         _______ _______ _______ _____ _____    ______ ____
ROOT
ATOM      5  O   UNL     1      -6.218 -10.908  20.642  0.00  0.00    -0.273 OA
ATOM      6  O   UNL     1      -6.907 -14.022  16.448  0.00  0.00    -0.270 OA
ATOM      8  N   UNL     1      -7.511 -12.501  18.063  0.00  0.00    -0.284 N 
ATOM     10  N   UNL     1      -5.052 -11.013  18.689  0.00  0.00    -0.283 N 
ATOM     11  C   UNL     1      -8.779 -11.092  19.479  0.00  0.00    +0.104 C 
ATOM     12  C   UNL     1      -7.508 -11.160  18.621  0.00  0.00    +0.183 C 
ATOM     13  C   UNL     1      -9.022 -12.550  19.873  0.00  0.00    +0.043 C 
ATOM     14  C   UNL     1      -8.557 -13.326  18.651  0.00  0.00    +0.111 C 
ATOM     15  C   UNL     1      -6.221 -11.054  19.419  0.00  0.00    +0.240 C 
ATOM     16  C   UNL     1      -6.756 -12.928  16.993  0.00  0.00    +0.249 C 
ATOM     17  C   UNL     1      -5.687 -12.029  16.487  0.00  0.00    +0.059 A 
ATOM     18  C   UNL     1      -4.869 -11.233  17.306  0.00  0.00    +0.046 A 
ATOM     20  C   UNL     1      -5.395 -12.137  15.115  0.00  0.00    +0.023 A 
ATOM     21  C   UNL     1      -3.739 -10.616  16.741  0.00  0.00    +0.024 A 
ATOM     22  C   UNL     1      -4.297 -11.480  14.563  0.00  0.00    -0.017 A 
ATOM     23  C   UNL     1      -3.460 -10.729  15.379  0.00  0.00    +0.010 A 
ATOM     34  H   UNL     1      -4.228 -10.705  19.201  0.00  0.00    +0.155 HD
ENDROOT
BRANCH  22  25
ATOM     25  C   UNL     1      -4.015 -11.598  13.150  0.00  0.00    -0.017 A 
ATOM     26  C   UNL     1      -3.865 -10.451  12.369  0.00  0.00    +0.021 A 
ATOM     27  C   UNL     1      -3.892 -12.859  12.565  0.00  0.00    +0.008 A 
ATOM     28  C   UNL     1      -3.593 -10.565  11.006  0.00  0.00    +0.055 A 
ATOM     29  C   UNL     1      -3.619 -12.972  11.201  0.00  0.00    +0.001 A 
ATOM     30  C   UNL     1      -3.470 -11.825  10.422  0.00  0.00    +0.012 A 
BRANCH  28  32
ATOM      2  F   UNL     1      -4.190  -8.284  10.597  0.00  0.00    -0.166 F 
ATOM      3  F   UNL     1      -2.151  -8.864  10.140  0.00  0.00    -0.166 F 
ATOM      4  F   UNL     1      -3.781  -9.540   8.869  0.00  0.00    -0.166 F 
ATOM     32  C   UNL     1      -3.431  -9.338  10.173  0.00  0.00    +0.417 C 
ENDBRANCH  28  32
ENDBRANCH  22  25
BRANCH  11   9
ATOM      7  O   UNL     1     -11.232  -9.956  20.514  0.00  0.00    -0.275 OA
ATOM      9  N   UNL     1      -9.887 -10.563  18.718  0.00  0.00    -0.309 N 
ATOM     19  C   UNL     1     -11.028 -10.037  19.305  0.00  0.00    +0.223 C 
ATOM     33  H   UNL     1      -9.798 -10.528  17.707  0.00  0.00    +0.149 HD
BRANCH  19  24
ATOM     24  C   UNL     1     -12.047  -9.568  18.294  0.00  0.00    +0.164 C 
BRANCH  24   1
ATOM      1  S   UNL     1     -11.702 -10.357  16.704  0.00  0.00    -0.155 S 
ATOM     31  C   UNL     1     -11.660  -8.874  15.670  0.00  0.00    +0.085 C 
ENDBRANCH  24   1
ENDBRANCH  19  24
ENDBRANCH  11   9
TORSDOF 5
ENDMDL
MODEL 6
REMARK VINA RESULT:      -6.9     18.909     20.922
REMARK  Name = 11941479
REMARK  6 active torsions:
REMARK  status: ('A' for Active; 'I' for Inactive)
REMARK    1  A    between atoms: S_1  and  C_24
REMARK    2  A    between atoms: S_1  and  C_31
REMARK    3  A    between atoms: N_9  and  C_11
REMARK    4  A    between atoms: C_19  and  C_24
REMARK    5  A    between atoms: C_22  and  C_25
REMARK    6  A    between atoms: C_28  and  C_32
REMARK                            x       y       z     vdW  Elec       q    Type
REMARK                         _______ _______ _______ _____ _____    ______ ____
ROOT
ATOM      5  O   UNL     1      -7.300 -12.001  20.095  0.00  0.00    -0.273 OA
ATOM      6  O   UNL     1      -7.378 -13.181  14.961  0.00  0.00    -0.270 OA
ATOM      8  N   UNL     1      -8.130 -12.229  16.914  0.00  0.00    -0.284 N 
ATOM     10  N   UNL     1      -5.710 -11.684  18.496  0.00  0.00    -0.283 N 
ATOM     11  C   UNL     1      -9.484 -11.153  18.528  0.00  0.00    +0.104 C 
ATOM     12  C   UNL     1      -8.064 -11.213  17.948  0.00  0.00    +0.183 C 
ATOM     13  C   UNL     1     -10.036 -12.554  18.263  0.00  0.00    +0.043 C 
ATOM     14  C   UNL     1      -9.402 -12.937  16.935  0.00  0.00    +0.111 C 
ATOM     15  C   UNL     1      -7.018 -11.701  18.934  0.00  0.00    +0.240 C 
ATOM     16  C   UNL     1      -7.204 -12.418  15.911  0.00  0.00    +0.249 C 
ATOM     17  C   UNL     1      -5.918 -11.679  15.998  0.00  0.00    +0.059 A 
ATOM     18  C   UNL     1      -5.222 -11.438  17.193  0.00  0.00    +0.046 A 
ATOM     20  C   UNL     1      -5.312 -11.361  14.769  0.00  0.00    +0.023 A 
ATOM     21  C   UNL     1      -3.906 -10.948  17.125  0.00  0.00    +0.024 A 
ATOM     22  C   UNL     1      -4.024 -10.832  14.722  0.00  0.00    -0.017 A 
ATOM     23  C   UNL     1      -3.314 -10.637  15.901  0.00  0.00    +0.010 A 
ATOM     34  H   UNL     1      -5.005 -11.779  19.223  0.00  0.00    +0.155 HD
ENDROOT
BRANCH  22  25
ATOM     25  C   UNL     1      -3.417 -10.508  13.450  0.00  0.00    -0.017 A 
ATOM     26  C   UNL     1      -4.220 -10.201  12.351  0.00  0.00    +0.021 A 
ATOM     27  C   UNL     1      -2.027 -10.502  13.320  0.00  0.00    +0.008 A 
ATOM     28  C   UNL     1      -3.635  -9.888  11.124  0.00  0.00    +0.055 A 
ATOM     29  C   UNL     1      -1.442 -10.190  12.093  0.00  0.00    +0.001 A 
ATOM     30  C   UNL     1      -2.246  -9.883  10.995  0.00  0.00    +0.012 A 
BRANCH  28  32
ATOM      2  F   UNL     1      -5.641  -8.895  10.282  0.00  0.00    -0.166 F 
ATOM      3  F   UNL     1      -3.877  -8.761   9.028  0.00  0.00    -0.166 F 
ATOM      4  F   UNL     1      -4.897 -10.668   9.266  0.00  0.00    -0.166 F 
ATOM     32  C   UNL     1      -4.494  -9.558   9.950  0.00  0.00    +0.417 C 
ENDBRANCH  28  32
ENDBRANCH  22  25
BRANCH  11   9
ATOM      7  O   UNL     1     -11.865  -9.843  19.524  0.00  0.00    -0.275 OA
ATOM      9  N   UNL     1     -10.272 -10.144  17.858  0.00  0.00    -0.309 N 
ATOM     19  C   UNL     1     -11.404  -9.571  18.417  0.00  0.00    +0.223 C 
ATOM     33  H   UNL     1      -9.946  -9.803  16.959  0.00  0.00    +0.149 HD
BRANCH  19  24
ATOM     24  C   UNL     1     -12.060  -8.558  17.510  0.00  0.00    +0.164 C 
BRANCH  24   1
ATOM      1  S   UNL     1     -10.785  -7.480  16.814  0.00  0.00    -0.155 S 
ATOM     31  C   UNL     1     -11.861  -6.205  16.117  0.00  0.00    +0.085 C 
ENDBRANCH  24   1
ENDBRANCH  19  24
ENDBRANCH  11   9
TORSDOF 5
ENDMDL
MODEL 7
REMARK VINA RESULT:      -6.9     20.383     22.417
REMARK  Name = 11941479
REMARK  6 active torsions:
REMARK  status: ('A' for Active; 'I' for Inactive)
REMARK    1  A    between atoms: S_1  and  C_24
REMARK    2  A    between atoms: S_1  and  C_31
REMARK    3  A    between atoms: N_9  and  C_11
REMARK    4  A    between atoms: C_19  and  C_24
REMARK    5  A    between atoms: C_22  and  C_25
REMARK    6  A    between atoms: C_28  and  C_32
REMARK                            x       y       z     vdW  Elec       q    Type
REMARK                         _______ _______ _______ _____ _____    ______ ____
ROOT
ATOM      5  O   UNL     1      -1.503 -11.248  14.442  0.00  0.00    -0.273 OA
ATOM      6  O   UNL     1      -5.703 -12.846  11.692  0.00  0.00    -0.270 OA
ATOM      8  N   UNL     1      -4.562 -12.064  13.529  0.00  0.00    -0.284 N 
ATOM     10  N   UNL     1      -2.309 -10.516  12.442  0.00  0.00    -0.283 N 
ATOM     11  C   UNL     1      -4.002 -11.420  15.735  0.00  0.00    +0.104 C 
ATOM     12  C   UNL     1      -3.895 -11.003  14.261  0.00  0.00    +0.183 C 
ATOM     13  C   UNL     1      -4.105 -12.944  15.667  0.00  0.00    +0.043 C 
ATOM     14  C   UNL     1      -4.897 -13.187  14.392  0.00  0.00    +0.111 C 
ATOM     15  C   UNL     1      -2.472 -10.975  13.732  0.00  0.00    +0.240 C 
ATOM     16  C   UNL     1      -4.998 -11.989  12.223  0.00  0.00    +0.249 C 
ATOM     17  C   UNL     1      -4.572 -10.821  11.409  0.00  0.00    +0.059 A 
ATOM     18  C   UNL     1      -3.300 -10.229  11.477  0.00  0.00    +0.046 A 
ATOM     20  C   UNL     1      -5.469 -10.417  10.403  0.00  0.00    +0.023 A 
ATOM     21  C   UNL     1      -2.933  -9.295  10.493  0.00  0.00    +0.024 A 
ATOM     22  C   UNL     1      -5.104  -9.455   9.463  0.00  0.00    -0.017 A 
ATOM     23  C   UNL     1      -3.830  -8.902   9.500  0.00  0.00    +0.010 A 
ATOM     34  H   UNL     1      -1.355 -10.275  12.182  0.00  0.00    +0.155 HD
ENDROOT
BRANCH  22  25
ATOM     25  C   UNL     1      -6.039  -9.049   8.438  0.00  0.00    -0.017 A 
ATOM     26  C   UNL     1      -6.975  -8.049   8.702  0.00  0.00    +0.021 A 
ATOM     27  C   UNL     1      -6.008  -9.659   7.182  0.00  0.00    +0.008 A 
ATOM     28  C   UNL     1      -7.877  -7.657   7.713  0.00  0.00    +0.055 A 
ATOM     29  C   UNL     1      -6.910  -9.267   6.194  0.00  0.00    +0.001 A 
ATOM     30  C   UNL     1      -7.845  -8.266   6.459  0.00  0.00    +0.012 A 
BRANCH  28  32
ATOM      2  F   UNL     1      -8.311  -5.380   8.305  0.00  0.00    -0.166 F 
ATOM      3  F   UNL     1      -9.713  -6.328   6.948  0.00  0.00    -0.166 F 
ATOM      4  F   UNL     1      -9.689  -6.890   9.049  0.00  0.00    -0.166 F 
ATOM     32  C   UNL     1      -8.876  -6.585   7.996  0.00  0.00    +0.417 C 
ENDBRANCH  28  32
ENDBRANCH  22  25
BRANCH  11   9
ATOM      7  O   UNL     1      -4.537 -11.139  18.565  0.00  0.00    -0.275 OA
ATOM      9  N   UNL     1      -5.174 -10.842  16.350  0.00  0.00    -0.309 N 
ATOM     19  C   UNL     1      -5.343 -10.750  17.723  0.00  0.00    +0.223 C 
ATOM     33  H   UNL     1      -5.880 -10.436  15.743  0.00  0.00    +0.149 HD
BRANCH  19  24
ATOM     24  C   UNL     1      -6.662 -10.125  18.113  0.00  0.00    +0.164 C 
BRANCH  24   1
ATOM      1  S   UNL     1      -7.538 -11.249  19.226  0.00  0.00    -0.155 S 
ATOM     31  C   UNL     1      -8.549 -12.109  17.999  0.00  0.00    +0.085 C 
ENDBRANCH  24   1
ENDBRANCH  19  24
ENDBRANCH  11   9
TORSDOF 5
ENDMDL
MODEL 8
REMARK VINA RESULT:      -6.9     16.812     19.557
REMARK  Name = 11941479
REMARK  6 active torsions:
REMARK  status: ('A' for Active; 'I' for Inactive)
REMARK    1  A    between atoms: S_1  and  C_24
REMARK    2  A    between atoms: S_1  and  C_31
REMARK    3  A    between atoms: N_9  and  C_11
REMARK    4  A    between atoms: C_19  and  C_24
REMARK    5  A    between atoms: C_22  and  C_25
REMARK    6  A    between atoms: C_28  and  C_32
REMARK                            x       y       z     vdW  Elec       q    Type
REMARK                         _______ _______ _______ _____ _____    ______ ____
ROOT
ATOM      5  O   UNL     1     -14.023  -6.276  15.538  0.00  0.00    -0.273 OA
ATOM      6  O   UNL     1     -11.218 -10.149  13.327  0.00  0.00    -0.270 OA
ATOM      8  N   UNL     1     -12.263  -8.103  13.436  0.00  0.00    -0.284 N 
ATOM     10  N   UNL     1     -12.132  -7.314  16.267  0.00  0.00    -0.283 N 
ATOM     11  C   UNL     1     -13.215  -6.019  12.850  0.00  0.00    +0.104 C 
ATOM     12  C   UNL     1     -12.327  -6.724  13.885  0.00  0.00    +0.183 C 
ATOM     13  C   UNL     1     -14.102  -7.145  12.315  0.00  0.00    +0.043 C 
ATOM     14  C   UNL     1     -13.183  -8.356  12.337  0.00  0.00    +0.111 C 
ATOM     15  C   UNL     1     -12.928  -6.776  15.278  0.00  0.00    +0.240 C 
ATOM     16  C   UNL     1     -11.342  -9.042  13.850  0.00  0.00    +0.249 C 
ATOM     17  C   UNL     1     -10.471  -8.705  15.006  0.00  0.00    +0.059 A 
ATOM     18  C   UNL     1     -10.896  -7.985  16.135  0.00  0.00    +0.046 A 
ATOM     20  C   UNL     1      -9.198  -9.304  15.008  0.00  0.00    +0.023 A 
ATOM     21  C   UNL     1     -10.061  -7.940  17.265  0.00  0.00    +0.024 A 
ATOM     22  C   UNL     1      -8.364  -9.209  16.120  0.00  0.00    -0.017 A 
ATOM     23  C   UNL     1      -8.801  -8.538  17.255  0.00  0.00    +0.010 A 
ATOM     34  H   UNL     1     -12.436  -7.129  17.220  0.00  0.00    +0.155 HD
ENDROOT
BRANCH  22  25
ATOM     25  C   UNL     1      -7.057  -9.829  16.103  0.00  0.00    -0.017 A 
ATOM     26  C   UNL     1      -6.551 -10.423  17.260  0.00  0.00    +0.021 A 
ATOM     27  C   UNL     1      -6.301  -9.832  14.930  0.00  0.00    +0.008 A 
ATOM     28  C   UNL     1      -5.291 -11.021  17.243  0.00  0.00    +0.055 A 
ATOM     29  C   UNL     1      -5.040 -10.429  14.915  0.00  0.00    +0.001 A 
ATOM     30  C   UNL     1      -4.535 -11.023  16.071  0.00  0.00    +0.012 A 
BRANCH  28  32
ATOM      2  F   UNL     1      -5.279 -11.148  19.632  0.00  0.00    -0.166 F 
ATOM      3  F   UNL     1      -4.982 -13.003  18.547  0.00  0.00    -0.166 F 
ATOM      4  F   UNL     1      -3.399 -11.511  18.599  0.00  0.00    -0.166 F 
ATOM     32  C   UNL     1      -4.751 -11.658  18.479  0.00  0.00    +0.417 C 
ENDBRANCH  28  32
ENDBRANCH  22  25
BRANCH  11   9
ATOM      7  O   UNL     1     -12.870  -3.205  12.267  0.00  0.00    -0.275 OA
ATOM      9  N   UNL     1     -12.417  -5.436  11.797  0.00  0.00    -0.309 N 
ATOM     19  C   UNL     1     -12.311  -4.068  11.594  0.00  0.00    +0.223 C 
ATOM     33  H   UNL     1     -11.865  -6.060  11.215  0.00  0.00    +0.149 HD
BRANCH  19  24
ATOM     24  C   UNL     1     -11.433  -3.714  10.417  0.00  0.00    +0.164 C 
BRANCH  24   1
ATOM      1  S   UNL     1     -11.326  -5.142   9.313  0.00  0.00    -0.155 S 
ATOM     31  C   UNL     1      -9.649  -4.879   8.693  0.00  0.00    +0.085 C 
ENDBRANCH  24   1
ENDBRANCH  19  24
ENDBRANCH  11   9
TORSDOF 5
ENDMDL
MODEL 9
REMARK VINA RESULT:      -6.8     33.045     36.469
REMARK  Name = 11941479
REMARK  6 active torsions:
REMARK  status: ('A' for Active; 'I' for Inactive)
REMARK    1  A    between atoms: S_1  and  C_24
REMARK    2  A    between atoms: S_1  and  C_31
REMARK    3  A    between atoms: N_9  and  C_11
REMARK    4  A    between atoms: C_19  and  C_24
REMARK    5  A    between atoms: C_22  and  C_25
REMARK    6  A    between atoms: C_28  and  C_32
REMARK                            x       y       z     vdW  Elec       q    Type
REMARK                         _______ _______ _______ _____ _____    ______ ____
ROOT
ATOM      5  O   UNL     1      11.016   9.332   3.808  0.00  0.00    -0.273 OA
ATOM      6  O   UNL     1      14.203   6.992   7.292  0.00  0.00    -0.270 OA
ATOM      8  N   UNL     1      12.688   7.100   5.565  0.00  0.00    -0.284 N 
ATOM     10  N   UNL     1      13.234   9.654   4.210  0.00  0.00    -0.283 N 
ATOM     11  C   UNL     1      11.091   6.516   3.920  0.00  0.00    +0.104 C 
ATOM     12  C   UNL     1      12.350   7.357   4.177  0.00  0.00    +0.183 C 
ATOM     13  C   UNL     1      10.452   6.400   5.305  0.00  0.00    +0.043 C 
ATOM     14  C   UNL     1      11.649   6.337   6.241  0.00  0.00    +0.111 C 
ATOM     15  C   UNL     1      12.118   8.854   4.083  0.00  0.00    +0.240 C 
ATOM     16  C   UNL     1      13.900   7.373   6.161  0.00  0.00    +0.249 C 
ATOM     17  C   UNL     1      14.883   8.192   5.405  0.00  0.00    +0.059 A 
ATOM     18  C   UNL     1      14.544   9.284   4.590  0.00  0.00    +0.046 A 
ATOM     20  C   UNL     1      16.238   7.930   5.681  0.00  0.00    +0.023 A 
ATOM     21  C   UNL     1      15.568  10.128   4.125  0.00  0.00    +0.024 A 
ATOM     22  C   UNL     1      17.243   8.750   5.172  0.00  0.00    -0.017 A 
ATOM     23  C   UNL     1      16.908   9.858   4.404  0.00  0.00    +0.010 A 
ATOM     34  H   UNL     1      13.115  10.619   3.913  0.00  0.00    +0.155 HD
ENDROOT
BRANCH  22  25
ATOM     25  C   UNL     1      18.631   8.464   5.462  0.00  0.00    -0.017 A 
ATOM     26  C   UNL     1      19.446   7.897   4.482  0.00  0.00    +0.021 A 
ATOM     27  C   UNL     1      19.155   8.754   6.722  0.00  0.00    +0.008 A 
ATOM     28  C   UNL     1      20.785   7.621   4.762  0.00  0.00    +0.055 A 
ATOM     29  C   UNL     1      20.494   8.478   7.002  0.00  0.00    +0.001 A 
ATOM     30  C   UNL     1      21.308   7.912   6.021  0.00  0.00    +0.012 A 
BRANCH  28  32
ATOM      2  F   UNL     1      22.789   7.740   3.460  0.00  0.00    -0.166 F 
ATOM      3  F   UNL     1      22.098   5.763   4.025  0.00  0.00    -0.166 F 
ATOM      4  F   UNL     1      21.024   6.895   2.510  0.00  0.00    -0.166 F 
ATOM     32  C   UNL     1      21.657   7.017   3.713  0.00  0.00    +0.417 C 
ENDBRANCH  28  32
ENDBRANCH  22  25
BRANCH  11   9
ATOM      7  O   UNL     1      11.552   5.814   1.151  0.00  0.00    -0.275 OA
ATOM      9  N   UNL     1      11.438   5.216   3.394  0.00  0.00    -0.309 N 
ATOM     19  C   UNL     1      11.640   4.974   2.044  0.00  0.00    +0.223 C 
ATOM     33  H   UNL     1      11.593   4.460   4.054  0.00  0.00    +0.149 HD
BRANCH  19  24
ATOM     24  C   UNL     1      11.973   3.530   1.748  0.00  0.00    +0.164 C 
BRANCH  24   1
ATOM      1  S   UNL     1      13.286   3.474   0.506  0.00  0.00    -0.155 S 
ATOM     31  C   UNL     1      14.710   3.588   1.614  0.00  0.00    +0.085 C 
ENDBRANCH  24   1
ENDBRANCH  19  24
ENDBRANCH  11   9
TORSDOF 5
ENDMDL
MODEL 10
REMARK VINA RESULT:      -6.4     33.989     36.089
REMARK  Name = 11941479
REMARK  6 active torsions:
REMARK  status: ('A' for Active; 'I' for Inactive)
REMARK    1  A    between atoms: S_1  and  C_24
REMARK    2  A    between atoms: S_1  and  C_31
REMARK    3  A    between atoms: N_9  and  C_11
REMARK    4  A    between atoms: C_19  and  C_24
REMARK    5  A    between atoms: C_22  and  C_25
REMARK    6  A    between atoms: C_28  and  C_32
REMARK                            x       y       z     vdW  Elec       q    Type
REMARK                         _______ _______ _______ _____ _____    ______ ____
ROOT
ATOM      5  O   UNL     1       7.990   8.492  -2.764  0.00  0.00    -0.273 OA
ATOM      6  O   UNL     1       6.917   6.033  -7.298  0.00  0.00    -0.270 OA
ATOM      8  N   UNL     1       8.072   6.459  -5.356  0.00  0.00    -0.284 N 
ATOM     10  N   UNL     1       6.067   7.500  -3.471  0.00  0.00    -0.283 N 
ATOM     11  C   UNL     1       9.730   6.467  -3.668  0.00  0.00    +0.104 C 
ATOM     12  C   UNL     1       8.217   6.385  -3.913  0.00  0.00    +0.183 C 
ATOM     13  C   UNL     1      10.246   7.240  -4.883  0.00  0.00    +0.043 C 
ATOM     14  C   UNL     1       9.334   6.775  -6.008  0.00  0.00    +0.111 C 
ATOM     15  C   UNL     1       7.440   7.568  -3.364  0.00  0.00    +0.240 C 
ATOM     16  C   UNL     1       6.946   6.112  -6.070  0.00  0.00    +0.249 C 
ATOM     17  C   UNL     1       5.694   5.844  -5.315  0.00  0.00    +0.059 A 
ATOM     18  C   UNL     1       5.285   6.561  -4.179  0.00  0.00    +0.046 A 
ATOM     20  C   UNL     1       4.812   4.919  -5.904  0.00  0.00    +0.023 A 
ATOM     21  C   UNL     1       3.975   6.383  -3.700  0.00  0.00    +0.024 A 
ATOM     22  C   UNL     1       3.533   4.721  -5.386  0.00  0.00    -0.017 A 
ATOM     23  C   UNL     1       3.109   5.463  -4.291  0.00  0.00    +0.010 A 
ATOM     34  H   UNL     1       5.551   8.165  -2.899  0.00  0.00    +0.155 HD
ENDROOT
BRANCH  22  25
ATOM     25  C   UNL     1       2.640   3.764  -6.001  0.00  0.00    -0.017 A 
ATOM     26  C   UNL     1       2.209   2.648  -5.282  0.00  0.00    +0.021 A 
ATOM     27  C   UNL     1       2.210   3.954  -7.315  0.00  0.00    +0.008 A 
ATOM     28  C   UNL     1       1.348   1.725  -5.875  0.00  0.00    +0.055 A 
ATOM     29  C   UNL     1       1.349   3.030  -7.908  0.00  0.00    +0.001 A 
ATOM     30  C   UNL     1       0.918   1.916  -7.188  0.00  0.00    +0.012 A 
BRANCH  28  32
ATOM      2  F   UNL     1       1.906  -0.258  -4.659  0.00  0.00    -0.166 F 
ATOM      3  F   UNL     1       0.168   0.851  -3.986  0.00  0.00    -0.166 F 
ATOM      4  F   UNL     1       0.079  -0.286  -5.839  0.00  0.00    -0.166 F 
ATOM     32  C   UNL     1       0.886   0.534  -5.104  0.00  0.00    +0.417 C 
ENDBRANCH  28  32
ENDBRANCH  22  25
BRANCH  11   9
ATOM      7  O   UNL     1       9.788   4.693  -1.382  0.00  0.00    -0.275 OA
ATOM      9  N   UNL     1      10.314   5.148  -3.600  0.00  0.00    -0.309 N 
ATOM     19  C   UNL     1      10.293   4.367  -2.455  0.00  0.00    +0.223 C 
ATOM     33  H   UNL     1      10.709   4.756  -4.450  0.00  0.00    +0.149 HD
BRANCH  19  24
ATOM     24  C   UNL     1      10.987   3.037  -2.636  0.00  0.00    +0.164 C 
BRANCH  24   1
ATOM      1  S   UNL     1      12.772   3.313  -2.717  0.00  0.00    -0.155 S 
ATOM     31  C   UNL     1      13.099   3.486  -0.947  0.00  0.00    +0.085 C 
ENDBRANCH  24   1
ENDBRANCH  19  24
ENDBRANCH  11   9
TORSDOF 5
ENDMDL
