MODEL 1
REMARK VINA RESULT:      -6.4      0.000      0.000
REMARK  Name = 75536519
REMARK  11 active torsions:
REMARK  status: ('A' for Active; 'I' for Inactive)
REMARK    1  A    between atoms: O_2  and  C_7
REMARK    2  A    between atoms: N_4  and  C_6
REMARK    3  A    between atoms: N_4  and  C_12
REMARK    4  A    between atoms: N_5  and  C_10
REMARK    5  A    between atoms: C_8  and  C_10
REMARK    6  A    between atoms: C_11  and  C_13
REMARK    7  A    between atoms: C_11  and  C_15
REMARK    8  A    between atoms: C_11  and  C_16
REMARK    9  A    between atoms: C_11  and  C_17
REMARK   10  A    between atoms: C_12  and  C_18
REMARK   11  A    between atoms: C_13  and  C_14
REMARK                            x       y       z     vdW  Elec       q    Type
REMARK                         _______ _______ _______ _____ _____    ______ ____
ROOT
ATOM      1  O   UNL     1      12.879  10.566  21.559  0.00  0.00    -0.371 OA
ATOM      6  C   UNL     1      12.942   8.987  19.787  0.00  0.00    +0.111 C 
ATOM      7  C   UNL     1      11.709   8.731  20.634  0.00  0.00    +0.164 C 
ATOM      8  C   UNL     1      11.548  10.075  21.330  0.00  0.00    +0.165 C 
ATOM      9  C   UNL     1      13.791   9.819  20.733  0.00  0.00    +0.181 C 
ENDROOT
BRANCH   7   2
ATOM      2  O   UNL     1      10.573   8.399  19.859  0.00  0.00    -0.388 OA
ATOM     26  H   UNL     1      10.248   9.208  19.430  0.00  0.00    +0.210 HD
ENDBRANCH   7   2
BRANCH   6   4
ATOM      4  N   UNL     1      13.610   7.773  19.348  0.00  0.00    -0.305 NA
ATOM     24  H   UNL     1      14.387   8.023  18.734  0.00  0.00    +0.123 HD
BRANCH   4  12
ATOM     12  C   UNL     1      14.130   7.020  20.483  0.00  0.00    +0.116 C 
BRANCH  12  18
ATOM     18  C   UNL     1      15.588   6.683  20.313  0.00  0.00    -0.034 A 
ATOM     19  C   UNL     1      16.057   6.216  19.085  0.00  0.00    +0.005 A 
ATOM     20  C   UNL     1      16.469   6.839  21.382  0.00  0.00    +0.005 A 
ATOM     21  C   UNL     1      17.408   5.904  18.928  0.00  0.00    +0.000 A 
ATOM     22  C   UNL     1      17.819   6.528  21.224  0.00  0.00    +0.000 A 
ATOM     23  C   UNL     1      18.289   6.060  19.997  0.00  0.00    +0.000 A 
ENDBRANCH  12  18
ENDBRANCH   4  12
ENDBRANCH   6   4
BRANCH   8  10
ATOM     10  C   UNL     1      10.801   9.983  22.649  0.00  0.00    +0.138 C 
BRANCH  10   5
ATOM      3  O   UNL     1      11.392  10.994  25.299  0.00  0.00    -0.276 OA
ATOM      5  N   UNL     1      10.493  11.292  23.176  0.00  0.00    -0.313 N 
ATOM     14  C   UNL     1      10.817  11.688  24.463  0.00  0.00    +0.214 C 
ATOM     25  H   UNL     1      10.024  11.947  22.557  0.00  0.00    +0.149 HD
BRANCH  14  13
ATOM     13  C   UNL     1      10.378  13.109  24.776  0.00  0.00    +0.102 C 
BRANCH  13  11
ATOM     11  C   UNL     1      11.508  14.164  24.714  0.00  0.00    -0.029 C 
ATOM     15  C   UNL     1      10.960  15.539  24.298  0.00  0.00    +0.011 C 
ATOM     16  C   UNL     1      12.120  14.290  26.124  0.00  0.00    +0.011 C 
ATOM     17  C   UNL     1      12.619  13.743  23.738  0.00  0.00    +0.011 C 
ENDBRANCH  13  11
ENDBRANCH  14  13
ENDBRANCH  10   5
ENDBRANCH   8  10
TORSDOF 8
ENDMDL
MODEL 2
REMARK VINA RESULT:      -6.3     27.954     29.935
REMARK  Name = 75536519
REMARK  11 active torsions:
REMARK  status: ('A' for Active; 'I' for Inactive)
REMARK    1  A    between atoms: O_2  and  C_7
REMARK    2  A    between atoms: N_4  and  C_6
REMARK    3  A    between atoms: N_4  and  C_12
REMARK    4  A    between atoms: N_5  and  C_10
REMARK    5  A    between atoms: C_8  and  C_10
REMARK    6  A    between atoms: C_11  and  C_13
REMARK    7  A    between atoms: C_11  and  C_15
REMARK    8  A    between atoms: C_11  and  C_16
REMARK    9  A    between atoms: C_11  and  C_17
REMARK   10  A    between atoms: C_12  and  C_18
REMARK   11  A    between atoms: C_13  and  C_14
REMARK                            x       y       z     vdW  Elec       q    Type
REMARK                         _______ _______ _______ _____ _____    ______ ____
ROOT
ATOM      1  O   UNL     1     -12.361  -7.572  16.740  0.00  0.00    -0.371 OA
ATOM      6  C   UNL     1      -9.986  -7.586  16.706  0.00  0.00    +0.111 C 
ATOM      7  C   UNL     1     -10.493  -6.765  15.535  0.00  0.00    +0.164 C 
ATOM      8  C   UNL     1     -11.902  -6.427  16.003  0.00  0.00    +0.165 C 
ATOM      9  C   UNL     1     -11.224  -8.391  17.067  0.00  0.00    +0.181 C 
ENDROOT
BRANCH   7   2
ATOM      2  O   UNL     1      -9.720  -5.601  15.310  0.00  0.00    -0.388 OA
ATOM     26  H   UNL     1     -10.274  -4.950  14.849  0.00  0.00    +0.210 HD
ENDBRANCH   7   2
BRANCH   6   4
ATOM      4  N   UNL     1      -8.843  -8.424  16.379  0.00  0.00    -0.305 NA
ATOM     24  H   UNL     1      -8.022  -7.832  16.253  0.00  0.00    +0.123 HD
BRANCH   4  12
ATOM     12  C   UNL     1      -8.574  -9.384  17.444  0.00  0.00    +0.116 C 
BRANCH  12  18
ATOM     18  C   UNL     1      -7.137  -9.831  17.445  0.00  0.00    -0.034 A 
ATOM     19  C   UNL     1      -6.345  -9.637  16.314  0.00  0.00    +0.005 A 
ATOM     20  C   UNL     1      -6.597 -10.440  18.578  0.00  0.00    +0.005 A 
ATOM     21  C   UNL     1      -5.013 -10.052  16.315  0.00  0.00    +0.000 A 
ATOM     22  C   UNL     1      -5.265 -10.854  18.579  0.00  0.00    +0.000 A 
ATOM     23  C   UNL     1      -4.473 -10.661  17.448  0.00  0.00    +0.000 A 
ENDBRANCH  12  18
ENDBRANCH   4  12
ENDBRANCH   6   4
BRANCH   8  10
ATOM     10  C   UNL     1     -12.859  -6.134  14.861  0.00  0.00    +0.138 C 
BRANCH  10   5
ATOM      3  O   UNL     1     -14.124  -4.036  13.314  0.00  0.00    -0.276 OA
ATOM      5  N   UNL     1     -12.246  -5.295  13.857  0.00  0.00    -0.313 N 
ATOM     14  C   UNL     1     -12.935  -4.312  13.166  0.00  0.00    +0.214 C 
ATOM     25  H   UNL     1     -11.259  -5.438  13.667  0.00  0.00    +0.149 HD
BRANCH  14  13
ATOM     13  C   UNL     1     -12.068  -3.576  12.159  0.00  0.00    +0.102 C 
BRANCH  13  11
ATOM     11  C   UNL     1     -12.328  -3.955  10.681  0.00  0.00    -0.029 C 
ATOM     15  C   UNL     1     -11.212  -3.420   9.768  0.00  0.00    +0.011 C 
ATOM     16  C   UNL     1     -12.345  -5.493  10.579  0.00  0.00    +0.011 C 
ATOM     17  C   UNL     1     -13.684  -3.420  10.193  0.00  0.00    +0.011 C 
ENDBRANCH  13  11
ENDBRANCH  14  13
ENDBRANCH  10   5
ENDBRANCH   8  10
TORSDOF 8
ENDMDL
MODEL 3
REMARK VINA RESULT:      -6.3     34.220     36.050
REMARK  Name = 75536519
REMARK  11 active torsions:
REMARK  status: ('A' for Active; 'I' for Inactive)
REMARK    1  A    between atoms: O_2  and  C_7
REMARK    2  A    between atoms: N_4  and  C_6
REMARK    3  A    between atoms: N_4  and  C_12
REMARK    4  A    between atoms: N_5  and  C_10
REMARK    5  A    between atoms: C_8  and  C_10
REMARK    6  A    between atoms: C_11  and  C_13
REMARK    7  A    between atoms: C_11  and  C_15
REMARK    8  A    between atoms: C_11  and  C_16
REMARK    9  A    between atoms: C_11  and  C_17
REMARK   10  A    between atoms: C_12  and  C_18
REMARK   11  A    between atoms: C_13  and  C_14
REMARK                            x       y       z     vdW  Elec       q    Type
REMARK                         _______ _______ _______ _____ _____    ______ ____
ROOT
ATOM      1  O   UNL     1      -1.774 -15.730  -1.571  0.00  0.00    -0.371 OA
ATOM      6  C   UNL     1      -0.868 -14.296   0.091  0.00  0.00    +0.111 C 
ATOM      7  C   UNL     1      -1.524 -13.452  -0.986  0.00  0.00    +0.164 C 
ATOM      8  C   UNL     1      -2.461 -14.468  -1.623  0.00  0.00    +0.165 C 
ATOM      9  C   UNL     1      -0.690 -15.621  -0.631  0.00  0.00    +0.181 C 
ENDROOT
BRANCH   7   2
ATOM      2  O   UNL     1      -2.228 -12.344  -0.458  0.00  0.00    -0.388 OA
ATOM     26  H   UNL     1      -1.730 -11.537  -0.666  0.00  0.00    +0.210 HD
ENDBRANCH   7   2
BRANCH   6   4
ATOM      4  N   UNL     1       0.387 -13.746   0.580  0.00  0.00    -0.305 NA
ATOM     24  H   UNL     1       0.186 -12.975   1.217  0.00  0.00    +0.123 HD
BRANCH   4  12
ATOM     12  C   UNL     1       1.161 -14.757   1.292  0.00  0.00    +0.116 C 
BRANCH  12  18
ATOM     18  C   UNL     1       2.601 -14.772   0.853  0.00  0.00    -0.034 A 
ATOM     19  C   UNL     1       3.024 -13.936  -0.181  0.00  0.00    +0.005 A 
ATOM     20  C   UNL     1       3.512 -15.621   1.481  0.00  0.00    +0.005 A 
ATOM     21  C   UNL     1       4.359 -13.951  -0.587  0.00  0.00    +0.000 A 
ATOM     22  C   UNL     1       4.846 -15.634   1.074  0.00  0.00    +0.000 A 
ATOM     23  C   UNL     1       5.270 -14.799   0.040  0.00  0.00    +0.000 A 
ENDBRANCH  12  18
ENDBRANCH   4  12
ENDBRANCH   6   4
BRANCH   8  10
ATOM     10  C   UNL     1      -2.816 -14.137  -3.062  0.00  0.00    +0.138 C 
BRANCH  10   5
ATOM      3  O   UNL     1      -0.916 -14.318  -5.241  0.00  0.00    -0.276 OA
ATOM      5  N   UNL     1      -1.980 -13.081  -3.585  0.00  0.00    -0.313 N 
ATOM     14  C   UNL     1      -1.096 -13.263  -4.636  0.00  0.00    +0.214 C 
ATOM     25  H   UNL     1      -2.062 -12.164  -3.157  0.00  0.00    +0.149 HD
BRANCH  14  13
ATOM     13  C   UNL     1      -0.328 -12.001  -4.991  0.00  0.00    +0.102 C 
BRANCH  13  11
ATOM     11  C   UNL     1       1.170 -12.025  -4.602  0.00  0.00    -0.029 C 
ATOM     15  C   UNL     1       2.010 -12.736  -5.676  0.00  0.00    +0.011 C 
ATOM     16  C   UNL     1       1.657 -10.567  -4.490  0.00  0.00    +0.011 C 
ATOM     17  C   UNL     1       1.389 -12.715  -3.246  0.00  0.00    +0.011 C 
ENDBRANCH  13  11
ENDBRANCH  14  13
ENDBRANCH  10   5
ENDBRANCH   8  10
TORSDOF 8
ENDMDL
MODEL 4
REMARK VINA RESULT:      -6.0     25.847     28.408
REMARK  Name = 75536519
REMARK  11 active torsions:
REMARK  status: ('A' for Active; 'I' for Inactive)
REMARK    1  A    between atoms: O_2  and  C_7
REMARK    2  A    between atoms: N_4  and  C_6
REMARK    3  A    between atoms: N_4  and  C_12
REMARK    4  A    between atoms: N_5  and  C_10
REMARK    5  A    between atoms: C_8  and  C_10
REMARK    6  A    between atoms: C_11  and  C_13
REMARK    7  A    between atoms: C_11  and  C_15
REMARK    8  A    between atoms: C_11  and  C_16
REMARK    9  A    between atoms: C_11  and  C_17
REMARK   10  A    between atoms: C_12  and  C_18
REMARK   11  A    between atoms: C_13  and  C_14
REMARK                            x       y       z     vdW  Elec       q    Type
REMARK                         _______ _______ _______ _____ _____    ______ ____
ROOT
ATOM      1  O   UNL     1     -16.369   6.615  20.287  0.00  0.00    -0.371 OA
ATOM      6  C   UNL     1     -14.027   6.705  20.673  0.00  0.00    +0.111 C 
ATOM      7  C   UNL     1     -14.649   5.709  21.633  0.00  0.00    +0.164 C 
ATOM      8  C   UNL     1     -15.956   5.393  20.922  0.00  0.00    +0.165 C 
ATOM      9  C   UNL     1     -15.243   7.511  20.246  0.00  0.00    +0.181 C 
ENDROOT
BRANCH   7   2
ATOM      2  O   UNL     1     -13.853   4.552  21.810  0.00  0.00    -0.388 OA
ATOM     26  H   UNL     1     -13.971   3.978  21.036  0.00  0.00    +0.210 HD
ENDBRANCH   7   2
BRANCH   6   4
ATOM      4  N   UNL     1     -12.989   7.526  21.275  0.00  0.00    -0.305 NA
ATOM     24  H   UNL     1     -13.045   7.442  22.290  0.00  0.00    +0.123 HD
BRANCH   4  12
ATOM     12  C   UNL     1     -11.664   7.102  20.838  0.00  0.00    +0.116 C 
BRANCH  12  18
ATOM     18  C   UNL     1     -11.174   7.911  19.666  0.00  0.00    -0.034 A 
ATOM     19  C   UNL     1     -11.158   7.350  18.389  0.00  0.00    +0.005 A 
ATOM     20  C   UNL     1     -10.737   9.221  19.858  0.00  0.00    +0.005 A 
ATOM     21  C   UNL     1     -10.703   8.100  17.304  0.00  0.00    +0.000 A 
ATOM     22  C   UNL     1     -10.284   9.971  18.773  0.00  0.00    +0.000 A 
ATOM     23  C   UNL     1     -10.266   9.410  17.496  0.00  0.00    +0.000 A 
ENDBRANCH  12  18
ENDBRANCH   4  12
ENDBRANCH   6   4
BRANCH   8  10
ATOM     10  C   UNL     1     -17.049   4.909  21.860  0.00  0.00    +0.138 C 
BRANCH  10   5
ATOM      3  O   UNL     1     -16.710   2.193  22.809  0.00  0.00    -0.276 OA
ATOM      5  N   UNL     1     -16.507   4.486  23.130  0.00  0.00    -0.313 N 
ATOM     14  C   UNL     1     -16.383   3.156  23.498  0.00  0.00    +0.214 C 
ATOM     25  H   UNL     1     -16.197   5.210  23.771  0.00  0.00    +0.149 HD
BRANCH  14  13
ATOM     13  C   UNL     1     -15.792   2.976  24.886  0.00  0.00    +0.102 C 
BRANCH  13  11
ATOM     11  C   UNL     1     -16.805   2.526  25.967  0.00  0.00    -0.029 C 
ATOM     15  C   UNL     1     -16.816   0.995  26.111  0.00  0.00    +0.011 C 
ATOM     16  C   UNL     1     -16.370   3.139  27.313  0.00  0.00    +0.011 C 
ATOM     17  C   UNL     1     -18.226   3.017  25.646  0.00  0.00    +0.011 C 
ENDBRANCH  13  11
ENDBRANCH  14  13
ENDBRANCH  10   5
ENDBRANCH   8  10
TORSDOF 8
ENDMDL
MODEL 5
REMARK VINA RESULT:      -6.0      1.745      2.844
REMARK  Name = 75536519
REMARK  11 active torsions:
REMARK  status: ('A' for Active; 'I' for Inactive)
REMARK    1  A    between atoms: O_2  and  C_7
REMARK    2  A    between atoms: N_4  and  C_6
REMARK    3  A    between atoms: N_4  and  C_12
REMARK    4  A    between atoms: N_5  and  C_10
REMARK    5  A    between atoms: C_8  and  C_10
REMARK    6  A    between atoms: C_11  and  C_13
REMARK    7  A    between atoms: C_11  and  C_15
REMARK    8  A    between atoms: C_11  and  C_16
REMARK    9  A    between atoms: C_11  and  C_17
REMARK   10  A    between atoms: C_12  and  C_18
REMARK   11  A    between atoms: C_13  and  C_14
REMARK                            x       y       z     vdW  Elec       q    Type
REMARK                         _______ _______ _______ _____ _____    ______ ____
ROOT
ATOM      1  O   UNL     1      12.596   8.408  18.788  0.00  0.00    -0.371 OA
ATOM      6  C   UNL     1      13.512   6.992  20.460  0.00  0.00    +0.111 C 
ATOM      7  C   UNL     1      13.412   8.403  21.007  0.00  0.00    +0.164 C 
ATOM      8  C   UNL     1      12.371   9.006  20.076  0.00  0.00    +0.165 C 
ATOM      9  C   UNL     1      13.420   7.242  18.963  0.00  0.00    +0.181 C 
ENDROOT
BRANCH   7   2
ATOM      2  O   UNL     1      12.993   8.436  22.358  0.00  0.00    -0.388 OA
ATOM     26  H   UNL     1      12.983   9.362  22.653  0.00  0.00    +0.210 HD
ENDBRANCH   7   2
BRANCH   6   4
ATOM      4  N   UNL     1      14.733   6.302  20.844  0.00  0.00    -0.305 NA
ATOM     24  H   UNL     1      14.523   5.316  21.002  0.00  0.00    +0.123 HD
BRANCH   4  12
ATOM     12  C   UNL     1      15.745   6.407  19.799  0.00  0.00    +0.116 C 
BRANCH  12  18
ATOM     18  C   UNL     1      17.092   6.782  20.358  0.00  0.00    -0.034 A 
ATOM     19  C   UNL     1      17.211   7.877  21.215  0.00  0.00    +0.005 A 
ATOM     20  C   UNL     1      18.220   6.035  20.021  0.00  0.00    +0.005 A 
ATOM     21  C   UNL     1      18.459   8.224  21.733  0.00  0.00    +0.000 A 
ATOM     22  C   UNL     1      19.467   6.382  20.540  0.00  0.00    +0.000 A 
ATOM     23  C   UNL     1      19.587   7.477  21.395  0.00  0.00    +0.000 A 
ENDBRANCH  12  18
ENDBRANCH   4  12
ENDBRANCH   6   4
BRANCH   8  10
ATOM     10  C   UNL     1      12.468  10.518  19.963  0.00  0.00    +0.138 C 
BRANCH  10   5
ATOM      3  O   UNL     1      11.409  13.014  20.983  0.00  0.00    -0.276 OA
ATOM      5  N   UNL     1      12.743  11.128  21.244  0.00  0.00    -0.313 N 
ATOM     14  C   UNL     1      12.186  12.330  21.647  0.00  0.00    +0.214 C 
ATOM     25  H   UNL     1      13.369  10.634  21.873  0.00  0.00    +0.149 HD
BRANCH  14  13
ATOM     13  C   UNL     1      12.640  12.760  23.032  0.00  0.00    +0.102 C 
BRANCH  13  11
ATOM     11  C   UNL     1      11.622  12.477  24.163  0.00  0.00    -0.029 C 
ATOM     15  C   UNL     1      10.911  11.131  23.944  0.00  0.00    +0.011 C 
ATOM     16  C   UNL     1      12.396  12.408  25.494  0.00  0.00    +0.011 C 
ATOM     17  C   UNL     1      10.572  13.595  24.268  0.00  0.00    +0.011 C 
ENDBRANCH  13  11
ENDBRANCH  14  13
ENDBRANCH  10   5
ENDBRANCH   8  10
TORSDOF 8
ENDMDL
MODEL 6
REMARK VINA RESULT:      -5.9     26.957     29.391
REMARK  Name = 75536519
REMARK  11 active torsions:
REMARK  status: ('A' for Active; 'I' for Inactive)
REMARK    1  A    between atoms: O_2  and  C_7
REMARK    2  A    between atoms: N_4  and  C_6
REMARK    3  A    between atoms: N_4  and  C_12
REMARK    4  A    between atoms: N_5  and  C_10
REMARK    5  A    between atoms: C_8  and  C_10
REMARK    6  A    between atoms: C_11  and  C_13
REMARK    7  A    between atoms: C_11  and  C_15
REMARK    8  A    between atoms: C_11  and  C_16
REMARK    9  A    between atoms: C_11  and  C_17
REMARK   10  A    between atoms: C_12  and  C_18
REMARK   11  A    between atoms: C_13  and  C_14
REMARK                            x       y       z     vdW  Elec       q    Type
REMARK                         _______ _______ _______ _____ _____    ______ ____
ROOT
ATOM      1  O   UNL     1      -4.177 -11.957  17.682  0.00  0.00    -0.371 OA
ATOM      6  C   UNL     1      -6.209 -10.740  17.503  0.00  0.00    +0.111 C 
ATOM      7  C   UNL     1      -5.130 -10.019  16.718  0.00  0.00    +0.164 C 
ATOM      8  C   UNL     1      -4.127 -11.143  16.499  0.00  0.00    +0.165 C 
ATOM      9  C   UNL     1      -5.377 -11.634  18.408  0.00  0.00    +0.181 C 
ENDROOT
BRANCH   7   2
ATOM      2  O   UNL     1      -5.606  -9.492  15.494  0.00  0.00    -0.388 OA
ATOM     26  H   UNL     1      -6.492  -9.123  15.643  0.00  0.00    +0.210 HD
ENDBRANCH   7   2
BRANCH   6   4
ATOM      4  N   UNL     1      -7.087  -9.848  18.243  0.00  0.00    -0.305 NA
ATOM     24  H   UNL     1      -7.151  -8.958  17.748  0.00  0.00    +0.123 HD
BRANCH   4  12
ATOM     12  C   UNL     1      -8.425 -10.414  18.369  0.00  0.00    +0.116 C 
BRANCH  12  18
ATOM     18  C   UNL     1      -9.481  -9.484  17.832  0.00  0.00    -0.034 A 
ATOM     19  C   UNL     1     -10.821  -9.684  18.163  0.00  0.00    +0.005 A 
ATOM     20  C   UNL     1      -9.118  -8.423  17.003  0.00  0.00    +0.005 A 
ATOM     21  C   UNL     1     -11.798  -8.823  17.664  0.00  0.00    +0.000 A 
ATOM     22  C   UNL     1     -10.096  -7.561  16.506  0.00  0.00    +0.000 A 
ATOM     23  C   UNL     1     -11.436  -7.761  16.836  0.00  0.00    +0.000 A 
ENDBRANCH  12  18
ENDBRANCH   4  12
ENDBRANCH   6   4
BRANCH   8  10
ATOM     10  C   UNL     1      -2.708 -10.647  16.277  0.00  0.00    +0.138 C 
BRANCH  10   5
ATOM      3  O   UNL     1      -1.986 -12.203  13.943  0.00  0.00    -0.276 OA
ATOM      5  N   UNL     1      -2.520 -10.166  14.928  0.00  0.00    -0.313 N 
ATOM     14  C   UNL     1      -2.173 -10.990  13.870  0.00  0.00    +0.214 C 
ATOM     25  H   UNL     1      -2.661  -9.175  14.760  0.00  0.00    +0.149 HD
BRANCH  14  13
ATOM     13  C   UNL     1      -2.027 -10.241  12.556  0.00  0.00    +0.102 C 
BRANCH  13  11
ATOM     11  C   UNL     1      -3.177 -10.476  11.547  0.00  0.00    -0.029 C 
ATOM     15  C   UNL     1      -3.152 -11.915  11.005  0.00  0.00    +0.011 C 
ATOM     16  C   UNL     1      -4.512 -10.257  12.285  0.00  0.00    +0.011 C 
ATOM     17  C   UNL     1      -3.103  -9.489  10.371  0.00  0.00    +0.011 C 
ENDBRANCH  13  11
ENDBRANCH  14  13
ENDBRANCH  10   5
ENDBRANCH   8  10
TORSDOF 8
ENDMDL
MODEL 7
REMARK VINA RESULT:      -5.9     27.050     29.107
REMARK  Name = 75536519
REMARK  11 active torsions:
REMARK  status: ('A' for Active; 'I' for Inactive)
REMARK    1  A    between atoms: O_2  and  C_7
REMARK    2  A    between atoms: N_4  and  C_6
REMARK    3  A    between atoms: N_4  and  C_12
REMARK    4  A    between atoms: N_5  and  C_10
REMARK    5  A    between atoms: C_8  and  C_10
REMARK    6  A    between atoms: C_11  and  C_13
REMARK    7  A    between atoms: C_11  and  C_15
REMARK    8  A    between atoms: C_11  and  C_16
REMARK    9  A    between atoms: C_11  and  C_17
REMARK   10  A    between atoms: C_12  and  C_18
REMARK   11  A    between atoms: C_13  and  C_14
REMARK                            x       y       z     vdW  Elec       q    Type
REMARK                         _______ _______ _______ _____ _____    ______ ____
ROOT
ATOM      1  O   UNL     1      -7.531 -12.959  18.676  0.00  0.00    -0.371 OA
ATOM      6  C   UNL     1      -5.564 -11.639  18.845  0.00  0.00    +0.111 C 
ATOM      7  C   UNL     1      -6.769 -10.776  19.170  0.00  0.00    +0.164 C 
ATOM      8  C   UNL     1      -7.799 -11.835  19.531  0.00  0.00    +0.165 C 
ATOM      9  C   UNL     1      -6.215 -12.802  18.115  0.00  0.00    +0.181 C 
ENDROOT
BRANCH   7   2
ATOM      2  O   UNL     1      -6.529  -9.886  20.244  0.00  0.00    -0.388 OA
ATOM     26  H   UNL     1      -5.626 -10.035  20.570  0.00  0.00    +0.210 HD
ENDBRANCH   7   2
BRANCH   6   4
ATOM      4  N   UNL     1      -4.559 -10.960  18.043  0.00  0.00    -0.305 NA
ATOM     24  H   UNL     1      -3.728 -11.550  17.981  0.00  0.00    +0.123 HD
BRANCH   4  12
ATOM     12  C   UNL     1      -5.052 -10.697  16.696  0.00  0.00    +0.116 C 
BRANCH  12  18
ATOM     18  C   UNL     1      -3.932 -10.627  15.692  0.00  0.00    -0.034 A 
ATOM     19  C   UNL     1      -2.612 -10.506  16.128  0.00  0.00    +0.005 A 
ATOM     20  C   UNL     1      -4.214 -10.682  14.328  0.00  0.00    +0.005 A 
ATOM     21  C   UNL     1      -1.575 -10.441  15.197  0.00  0.00    +0.000 A 
ATOM     22  C   UNL     1      -3.176 -10.618  13.398  0.00  0.00    +0.000 A 
ATOM     23  C   UNL     1      -1.857 -10.497  13.833  0.00  0.00    +0.000 A 
ENDBRANCH  12  18
ENDBRANCH   4  12
ENDBRANCH   6   4
BRANCH   8  10
ATOM     10  C   UNL     1      -9.232 -11.372  19.334  0.00  0.00    +0.138 C 
BRANCH  10   5
ATOM      3  O   UNL     1      -9.472 -10.785  16.507  0.00  0.00    -0.276 OA
ATOM      5  N   UNL     1      -9.286 -10.069  18.711  0.00  0.00    -0.313 N 
ATOM     14  C   UNL     1      -9.403  -9.886  17.343  0.00  0.00    +0.214 C 
ATOM     25  H   UNL     1      -9.246  -9.257  19.320  0.00  0.00    +0.149 HD
BRANCH  14  13
ATOM     13  C   UNL     1      -9.430  -8.422  16.940  0.00  0.00    +0.102 C 
BRANCH  13  11
ATOM     11  C   UNL     1     -10.779  -7.936  16.357  0.00  0.00    -0.029 C 
ATOM     15  C   UNL     1     -10.951  -6.419  16.547  0.00  0.00    +0.011 C 
ATOM     16  C   UNL     1     -10.784  -8.241  14.846  0.00  0.00    +0.011 C 
ATOM     17  C   UNL     1     -11.967  -8.667  17.004  0.00  0.00    +0.011 C 
ENDBRANCH  13  11
ENDBRANCH  14  13
ENDBRANCH  10   5
ENDBRANCH   8  10
TORSDOF 8
ENDMDL
MODEL 8
REMARK VINA RESULT:      -5.8     26.168     28.950
REMARK  Name = 75536519
REMARK  11 active torsions:
REMARK  status: ('A' for Active; 'I' for Inactive)
REMARK    1  A    between atoms: O_2  and  C_7
REMARK    2  A    between atoms: N_4  and  C_6
REMARK    3  A    between atoms: N_4  and  C_12
REMARK    4  A    between atoms: N_5  and  C_10
REMARK    5  A    between atoms: C_8  and  C_10
REMARK    6  A    between atoms: C_11  and  C_13
REMARK    7  A    between atoms: C_11  and  C_15
REMARK    8  A    between atoms: C_11  and  C_16
REMARK    9  A    between atoms: C_11  and  C_17
REMARK   10  A    between atoms: C_12  and  C_18
REMARK   11  A    between atoms: C_13  and  C_14
REMARK                            x       y       z     vdW  Elec       q    Type
REMARK                         _______ _______ _______ _____ _____    ______ ____
ROOT
ATOM      1  O   UNL     1     -16.707   5.765  22.987  0.00  0.00    -0.371 OA
ATOM      6  C   UNL     1     -15.724   4.300  24.577  0.00  0.00    +0.111 C 
ATOM      7  C   UNL     1     -14.771   4.473  23.409  0.00  0.00    +0.164 C 
ATOM      8  C   UNL     1     -15.281   5.775  22.806  0.00  0.00    +0.165 C 
ATOM      9  C   UNL     1     -17.036   4.764  23.967  0.00  0.00    +0.181 C 
ENDROOT
BRANCH   7   2
ATOM      2  O   UNL     1     -13.420   4.575  23.817  0.00  0.00    -0.388 OA
ATOM     26  H   UNL     1     -13.002   5.295  23.315  0.00  0.00    +0.210 HD
ENDBRANCH   7   2
BRANCH   6   4
ATOM      4  N   UNL     1     -15.786   2.937  25.081  0.00  0.00    -0.305 NA
ATOM     24  H   UNL     1     -14.907   2.715  25.549  0.00  0.00    +0.123 HD
BRANCH   4  12
ATOM     12  C   UNL     1     -16.880   2.779  26.032  0.00  0.00    +0.116 C 
BRANCH  12  18
ATOM     18  C   UNL     1     -16.379   2.460  27.416  0.00  0.00    -0.034 A 
ATOM     19  C   UNL     1     -15.788   3.458  28.191  0.00  0.00    +0.005 A 
ATOM     20  C   UNL     1     -16.505   1.167  27.922  0.00  0.00    +0.005 A 
ATOM     21  C   UNL     1     -15.324   3.162  29.473  0.00  0.00    +0.000 A 
ATOM     22  C   UNL     1     -16.041   0.872  29.204  0.00  0.00    +0.000 A 
ATOM     23  C   UNL     1     -15.450   1.869  29.979  0.00  0.00    +0.000 A 
ENDBRANCH  12  18
ENDBRANCH   4  12
ENDBRANCH   6   4
BRANCH   8  10
ATOM     10  C   UNL     1     -14.952   5.923  21.331  0.00  0.00    +0.138 C 
BRANCH  10   5
ATOM      3  O   UNL     1     -12.058   5.979  21.441  0.00  0.00    -0.276 OA
ATOM      5  N   UNL     1     -14.088   7.056  21.092  0.00  0.00    -0.313 N 
ATOM     14  C   UNL     1     -12.707   6.987  21.168  0.00  0.00    +0.214 C 
ATOM     25  H   UNL     1     -14.529   7.938  20.848  0.00  0.00    +0.149 HD
BRANCH  14  13
ATOM     13  C   UNL     1     -12.029   8.316  20.882  0.00  0.00    +0.102 C 
BRANCH  13  11
ATOM     11  C   UNL     1     -11.651   8.544  19.398  0.00  0.00    -0.029 C 
ATOM     15  C   UNL     1     -12.750   9.328  18.661  0.00  0.00    +0.011 C 
ATOM     16  C   UNL     1     -10.352   9.372  19.358  0.00  0.00    +0.011 C 
ATOM     17  C   UNL     1     -11.402   7.213  18.670  0.00  0.00    +0.011 C 
ENDBRANCH  13  11
ENDBRANCH  14  13
ENDBRANCH  10   5
ENDBRANCH   8  10
TORSDOF 8
ENDMDL
MODEL 9
REMARK VINA RESULT:      -5.8     27.281     29.169
REMARK  Name = 75536519
REMARK  11 active torsions:
REMARK  status: ('A' for Active; 'I' for Inactive)
REMARK    1  A    between atoms: O_2  and  C_7
REMARK    2  A    between atoms: N_4  and  C_6
REMARK    3  A    between atoms: N_4  and  C_12
REMARK    4  A    between atoms: N_5  and  C_10
REMARK    5  A    between atoms: C_8  and  C_10
REMARK    6  A    between atoms: C_11  and  C_13
REMARK    7  A    between atoms: C_11  and  C_15
REMARK    8  A    between atoms: C_11  and  C_16
REMARK    9  A    between atoms: C_11  and  C_17
REMARK   10  A    between atoms: C_12  and  C_18
REMARK   11  A    between atoms: C_13  and  C_14
REMARK                            x       y       z     vdW  Elec       q    Type
REMARK                         _______ _______ _______ _____ _____    ______ ____
ROOT
ATOM      1  O   UNL     1      -2.170 -11.252  12.533  0.00  0.00    -0.371 OA
ATOM      6  C   UNL     1      -1.939 -11.769  14.840  0.00  0.00    +0.111 C 
ATOM      7  C   UNL     1      -2.614 -12.932  14.137  0.00  0.00    +0.164 C 
ATOM      8  C   UNL     1      -2.204 -12.680  12.694  0.00  0.00    +0.165 C 
ATOM      9  C   UNL     1      -2.154 -10.646  13.838  0.00  0.00    +0.181 C 
ENDROOT
BRANCH   7   2
ATOM      2  O   UNL     1      -2.160 -14.189  14.602  0.00  0.00    -0.388 OA
ATOM     26  H   UNL     1      -1.189 -14.170  14.637  0.00  0.00    +0.210 HD
ENDBRANCH   7   2
BRANCH   6   4
ATOM      4  N   UNL     1      -2.498 -11.474  16.149  0.00  0.00    -0.305 NA
ATOM     24  H   UNL     1      -1.798 -10.984  16.708  0.00  0.00    +0.123 HD
BRANCH   4  12
ATOM     12  C   UNL     1      -3.684 -10.631  16.035  0.00  0.00    +0.116 C 
BRANCH  12  18
ATOM     18  C   UNL     1      -4.601 -10.791  17.219  0.00  0.00    -0.034 A 
ATOM     19  C   UNL     1      -5.847 -10.165  17.225  0.00  0.00    +0.005 A 
ATOM     20  C   UNL     1      -4.204 -11.566  18.308  0.00  0.00    +0.005 A 
ATOM     21  C   UNL     1      -6.696 -10.312  18.322  0.00  0.00    +0.000 A 
ATOM     22  C   UNL     1      -5.054 -11.714  19.404  0.00  0.00    +0.000 A 
ATOM     23  C   UNL     1      -6.300 -11.087  19.412  0.00  0.00    +0.000 A 
ENDBRANCH  12  18
ENDBRANCH   4  12
ENDBRANCH   6   4
BRANCH   8  10
ATOM     10  C   UNL     1      -3.162 -13.287  11.682  0.00  0.00    +0.138 C 
BRANCH  10   5
ATOM      3  O   UNL     1      -5.920 -12.464  11.352  0.00  0.00    -0.276 OA
ATOM      5  N   UNL     1      -3.675 -12.288  10.774  0.00  0.00    -0.313 N 
ATOM     14  C   UNL     1      -5.018 -11.960  10.686  0.00  0.00    +0.214 C 
ATOM     25  H   UNL     1      -3.005 -11.803  10.183  0.00  0.00    +0.149 HD
BRANCH  14  13
ATOM     13  C   UNL     1      -5.300 -10.886   9.649  0.00  0.00    +0.102 C 
BRANCH  13  11
ATOM     11  C   UNL     1      -4.963  -9.445  10.101  0.00  0.00    -0.029 C 
ATOM     15  C   UNL     1      -3.516  -9.074   9.735  0.00  0.00    +0.011 C 
ATOM     16  C   UNL     1      -5.913  -8.479   9.366  0.00  0.00    +0.011 C 
ATOM     17  C   UNL     1      -5.165  -9.268  11.614  0.00  0.00    +0.011 C 
ENDBRANCH  13  11
ENDBRANCH  14  13
ENDBRANCH  10   5
ENDBRANCH   8  10
TORSDOF 8
ENDMDL
MODEL 10
REMARK VINA RESULT:      -5.8      2.858      6.820
REMARK  Name = 75536519
REMARK  11 active torsions:
REMARK  status: ('A' for Active; 'I' for Inactive)
REMARK    1  A    between atoms: O_2  and  C_7
REMARK    2  A    between atoms: N_4  and  C_6
REMARK    3  A    between atoms: N_4  and  C_12
REMARK    4  A    between atoms: N_5  and  C_10
REMARK    5  A    between atoms: C_8  and  C_10
REMARK    6  A    between atoms: C_11  and  C_13
REMARK    7  A    between atoms: C_11  and  C_15
REMARK    8  A    between atoms: C_11  and  C_16
REMARK    9  A    between atoms: C_11  and  C_17
REMARK   10  A    between atoms: C_12  and  C_18
REMARK   11  A    between atoms: C_13  and  C_14
REMARK                            x       y       z     vdW  Elec       q    Type
REMARK                         _______ _______ _______ _____ _____    ______ ____
ROOT
ATOM      1  O   UNL     1      15.605  13.469  22.406  0.00  0.00    -0.371 OA
ATOM      6  C   UNL     1      13.620  12.554  23.337  0.00  0.00    +0.111 C 
ATOM      7  C   UNL     1      14.700  11.489  23.331  0.00  0.00    +0.164 C 
ATOM      8  C   UNL     1      15.955  12.344  23.231  0.00  0.00    +0.165 C 
ATOM      9  C   UNL     1      14.171  13.546  22.325  0.00  0.00    +0.181 C 
ENDROOT
BRANCH   7   2
ATOM      2  O   UNL     1      14.694  10.699  24.505  0.00  0.00    -0.388 OA
ATOM     26  H   UNL     1      14.171  11.161  25.182  0.00  0.00    +0.210 HD
ENDBRANCH   7   2
BRANCH   6   4
ATOM      4  N   UNL     1      12.304  12.053  22.977  0.00  0.00    -0.305 NA
ATOM     24  H   UNL     1      11.617  12.797  23.105  0.00  0.00    +0.123 HD
BRANCH   4  12
ATOM     12  C   UNL     1      12.271  11.614  21.587  0.00  0.00    +0.116 C 
BRANCH  12  18
ATOM     18  C   UNL     1      11.744  10.210  21.453  0.00  0.00    -0.034 A 
ATOM     19  C   UNL     1      11.742   9.581  20.208  0.00  0.00    +0.005 A 
ATOM     20  C   UNL     1      11.258   9.539  22.575  0.00  0.00    +0.005 A 
ATOM     21  C   UNL     1      11.253   8.280  20.086  0.00  0.00    +0.000 A 
ATOM     22  C   UNL     1      10.770   8.238  22.451  0.00  0.00    +0.000 A 
ATOM     23  C   UNL     1      10.767   7.609  21.207  0.00  0.00    +0.000 A 
ENDBRANCH  12  18
ENDBRANCH   4  12
ENDBRANCH   6   4
BRANCH   8  10
ATOM     10  C   UNL     1      17.136  11.609  22.622  0.00  0.00    +0.138 C 
BRANCH  10   5
ATOM      3  O   UNL     1      18.407   9.799  20.751  0.00  0.00    -0.276 OA
ATOM      5  N   UNL     1      16.842  10.209  22.420  0.00  0.00    -0.313 N 
ATOM     14  C   UNL     1      17.507   9.419  21.497  0.00  0.00    +0.214 C 
ATOM     25  H   UNL     1      16.117   9.795  22.998  0.00  0.00    +0.149 HD
BRANCH  14  13
ATOM     13  C   UNL     1      17.006   7.985  21.473  0.00  0.00    +0.102 C 
BRANCH  13  11
ATOM     11  C   UNL     1      15.616   7.796  20.820  0.00  0.00    -0.029 C 
ATOM     15  C   UNL     1      15.531   6.452  20.076  0.00  0.00    +0.011 C 
ATOM     16  C   UNL     1      14.558   7.800  21.941  0.00  0.00    +0.011 C 
ATOM     17  C   UNL     1      15.293   8.938  19.843  0.00  0.00    +0.011 C 
ENDBRANCH  13  11
ENDBRANCH  14  13
ENDBRANCH  10   5
ENDBRANCH   8  10
TORSDOF 8
ENDMDL
