MODEL 1
REMARK VINA RESULT:      -6.5      0.000      0.000
REMARK  Name = 86769014
REMARK  2 active torsions:
REMARK  status: ('A' for Active; 'I' for Inactive)
REMARK    1  A    between atoms: N_3  and  C_8
REMARK    2  A    between atoms: N_5  and  C_17
REMARK                            x       y       z     vdW  Elec       q    Type
REMARK                         _______ _______ _______ _____ _____    ______ ____
ROOT
ATOM      2  O   UNL     1      14.721  10.524  19.820  0.00  0.00    -0.252 OA
ATOM      3  N   UNL     1      18.175   7.084  21.175  0.00  0.00    -0.296 NA
ATOM      4  N   UNL     1      15.959   8.636  20.402  0.00  0.00    -0.278 N 
ATOM      5  N   UNL     1      14.431   8.402  18.748  0.00  0.00    -0.254 N 
ATOM      6  C   UNL     1      15.963   7.225  20.109  0.00  0.00    +0.109 C 
ATOM      7  C   UNL     1      17.395   6.706  19.981  0.00  0.00    +0.108 C 
ATOM      9  C   UNL     1      18.216   8.552  21.332  0.00  0.00    +0.104 C 
ATOM     10  C   UNL     1      16.809   9.140  21.463  0.00  0.00    +0.125 C 
ATOM     11  C   UNL     1      15.126   7.124  18.839  0.00  0.00    +0.139 C 
ATOM     14  C   UNL     1      14.988   9.337  19.671  0.00  0.00    +0.309 C 
ENDROOT
BRANCH   3   8
ATOM      1  O   UNL     1      21.409   4.482  21.801  0.00  0.00    -0.380 OA
ATOM      8  C   UNL     1      19.529   6.543  21.090  0.00  0.00    +0.061 C 
ATOM     12  C   UNL     1      20.153   6.445  22.486  0.00  0.00    +0.047 C 
ATOM     13  C   UNL     1      19.531   5.166  20.419  0.00  0.00    +0.047 C 
ATOM     15  C   UNL     1      21.515   5.767  22.412  0.00  0.00    +0.161 C 
ATOM     16  C   UNL     1      20.929   4.558  20.459  0.00  0.00    +0.161 C 
ENDBRANCH   3   8
BRANCH   5  17
ATOM     17  C   UNL     1      13.403   8.648  17.792  0.00  0.00    +0.038 A 
ATOM     18  C   UNL     1      13.701   9.312  16.602  0.00  0.00    +0.023 A 
ATOM     19  C   UNL     1      12.099   8.224  18.047  0.00  0.00    +0.023 A 
ATOM     20  C   UNL     1      12.694   9.552  15.666  0.00  0.00    +0.002 A 
ATOM     21  C   UNL     1      11.092   8.466  17.112  0.00  0.00    +0.002 A 
ATOM     22  C   UNL     1      11.389   9.128  15.922  0.00  0.00    +0.000 A 
ENDBRANCH   5  17
TORSDOF 2
ENDMDL
MODEL 2
REMARK VINA RESULT:      -6.5      3.448      7.900
REMARK  Name = 86769014
REMARK  2 active torsions:
REMARK  status: ('A' for Active; 'I' for Inactive)
REMARK    1  A    between atoms: N_3  and  C_8
REMARK    2  A    between atoms: N_5  and  C_17
REMARK                            x       y       z     vdW  Elec       q    Type
REMARK                         _______ _______ _______ _____ _____    ______ ____
ROOT
ATOM      2  O   UNL     1      14.958   7.250  18.406  0.00  0.00    -0.252 OA
ATOM      3  N   UNL     1      11.651   9.415  21.565  0.00  0.00    -0.296 NA
ATOM      4  N   UNL     1      13.591   7.932  20.168  0.00  0.00    -0.278 N 
ATOM      5  N   UNL     1      15.712   7.326  20.677  0.00  0.00    -0.254 N 
ATOM      6  C   UNL     1      13.635   7.962  21.608  0.00  0.00    +0.109 C 
ATOM      7  C   UNL     1      13.000   9.247  22.139  0.00  0.00    +0.108 C 
ATOM      9  C   UNL     1      11.713   9.492  20.091  0.00  0.00    +0.104 C 
ATOM     10  C   UNL     1      12.344   8.232  19.492  0.00  0.00    +0.125 C 
ATOM     11  C   UNL     1      15.118   7.800  21.922  0.00  0.00    +0.139 C 
ATOM     14  C   UNL     1      14.787   7.464  19.600  0.00  0.00    +0.309 C 
ENDROOT
BRANCH   3   8
ATOM      1  O   UNL     1      11.247  13.092  23.549  0.00  0.00    -0.380 OA
ATOM      8  C   UNL     1      11.011  10.610  22.110  0.00  0.00    +0.061 C 
ATOM     12  C   UNL     1      11.191  10.664  23.630  0.00  0.00    +0.047 C 
ATOM     13  C   UNL     1      11.581  11.880  21.469  0.00  0.00    +0.047 C 
ATOM     15  C   UNL     1      10.634  11.970  24.184  0.00  0.00    +0.161 C 
ATOM     16  C   UNL     1      11.002  13.119  22.143  0.00  0.00    +0.161 C 
ENDBRANCH   3   8
BRANCH   5  17
ATOM     17  C   UNL     1      17.063   6.877  20.597  0.00  0.00    +0.038 A 
ATOM     18  C   UNL     1      17.403   5.841  19.728  0.00  0.00    +0.023 A 
ATOM     19  C   UNL     1      18.043   7.474  21.389  0.00  0.00    +0.023 A 
ATOM     20  C   UNL     1      18.725   5.402  19.650  0.00  0.00    +0.002 A 
ATOM     21  C   UNL     1      19.365   7.034  21.312  0.00  0.00    +0.002 A 
ATOM     22  C   UNL     1      19.706   5.999  20.442  0.00  0.00    +0.000 A 
ENDBRANCH   5  17
TORSDOF 2
ENDMDL
MODEL 3
REMARK VINA RESULT:      -6.3      2.765      3.572
REMARK  Name = 86769014
REMARK  2 active torsions:
REMARK  status: ('A' for Active; 'I' for Inactive)
REMARK    1  A    between atoms: N_3  and  C_8
REMARK    2  A    between atoms: N_5  and  C_17
REMARK                            x       y       z     vdW  Elec       q    Type
REMARK                         _______ _______ _______ _____ _____    ______ ____
ROOT
ATOM      2  O   UNL     1      13.710   6.581  19.897  0.00  0.00    -0.252 OA
ATOM      3  N   UNL     1      18.734   6.986  20.335  0.00  0.00    -0.296 NA
ATOM      4  N   UNL     1      15.941   7.228  20.097  0.00  0.00    -0.278 N 
ATOM      5  N   UNL     1      14.407   8.434  21.243  0.00  0.00    -0.254 N 
ATOM      6  C   UNL     1      16.693   8.321  20.657  0.00  0.00    +0.109 C 
ATOM      7  C   UNL     1      17.983   7.814  21.300  0.00  0.00    +0.108 C 
ATOM      9  C   UNL     1      17.931   5.824  19.904  0.00  0.00    +0.104 C 
ATOM     10  C   UNL     1      16.618   6.264  19.251  0.00  0.00    +0.125 C 
ATOM     11  C   UNL     1      15.708   8.974  21.620  0.00  0.00    +0.139 C 
ATOM     14  C   UNL     1      14.565   7.330  20.354  0.00  0.00    +0.309 C 
ENDROOT
BRANCH   3   8
ATOM      1  O   UNL     1      21.407   4.733  22.659  0.00  0.00    -0.380 OA
ATOM      8  C   UNL     1      19.997   6.543  20.920  0.00  0.00    +0.061 C 
ATOM     12  C   UNL     1      19.950   6.666  22.446  0.00  0.00    +0.047 C 
ATOM     13  C   UNL     1      20.312   5.098  20.520  0.00  0.00    +0.047 C 
ATOM     15  C   UNL     1      21.218   6.089  23.064  0.00  0.00    +0.161 C 
ATOM     16  C   UNL     1      21.561   4.608  21.245  0.00  0.00    +0.161 C 
ENDBRANCH   3   8
BRANCH   5  17
ATOM     17  C   UNL     1      13.186   8.931  21.787  0.00  0.00    +0.038 A 
ATOM     18  C   UNL     1      12.079   8.090  21.899  0.00  0.00    +0.023 A 
ATOM     19  C   UNL     1      13.100  10.259  22.206  0.00  0.00    +0.023 A 
ATOM     20  C   UNL     1      10.885   8.578  22.431  0.00  0.00    +0.002 A 
ATOM     21  C   UNL     1      11.906  10.745  22.737  0.00  0.00    +0.002 A 
ATOM     22  C   UNL     1      10.799   9.905  22.850  0.00  0.00    +0.000 A 
ENDBRANCH   5  17
TORSDOF 2
ENDMDL
MODEL 4
REMARK VINA RESULT:      -6.2     27.045     28.980
REMARK  Name = 86769014
REMARK  2 active torsions:
REMARK  status: ('A' for Active; 'I' for Inactive)
REMARK    1  A    between atoms: N_3  and  C_8
REMARK    2  A    between atoms: N_5  and  C_17
REMARK                            x       y       z     vdW  Elec       q    Type
REMARK                         _______ _______ _______ _____ _____    ______ ____
ROOT
ATOM      2  O   UNL     1      -1.971 -10.679  16.433  0.00  0.00    -0.252 OA
ATOM      3  N   UNL     1      -3.083 -11.295  11.536  0.00  0.00    -0.296 NA
ATOM      4  N   UNL     1      -2.759 -11.308  14.330  0.00  0.00    -0.278 N 
ATOM      5  N   UNL     1      -4.240 -11.334  16.042  0.00  0.00    -0.254 N 
ATOM      6  C   UNL     1      -3.951 -11.881  13.761  0.00  0.00    +0.109 C 
ATOM      7  C   UNL     1      -4.269 -11.235  12.413  0.00  0.00    +0.108 C 
ATOM      9  C   UNL     1      -1.942 -10.582  12.146  0.00  0.00    +0.104 C 
ATOM     10  C   UNL     1      -1.573 -11.179  13.506  0.00  0.00    +0.125 C 
ATOM     11  C   UNL     1      -5.003 -11.661  14.843  0.00  0.00    +0.139 C 
ATOM     14  C   UNL     1      -2.880 -11.065  15.708  0.00  0.00    +0.309 C 
ENDROOT
BRANCH   3   8
ATOM      1  O   UNL     1      -5.340  -9.639   8.408  0.00  0.00    -0.380 OA
ATOM      8  C   UNL     1      -3.392 -10.732  10.224  0.00  0.00    +0.061 C 
ATOM     12  C   UNL     1      -4.420 -11.606   9.498  0.00  0.00    +0.047 C 
ATOM     13  C   UNL     1      -3.919  -9.299  10.350  0.00  0.00    +0.047 C 
ATOM     15  C   UNL     1      -4.835 -10.955   8.184  0.00  0.00    +0.161 C 
ATOM     16  C   UNL     1      -4.362  -8.776   8.988  0.00  0.00    +0.161 C 
ENDBRANCH   3   8
BRANCH   5  17
ATOM     17  C   UNL     1      -4.845 -11.232  17.329  0.00  0.00    +0.038 A 
ATOM     18  C   UNL     1      -5.971 -10.428  17.509  0.00  0.00    +0.023 A 
ATOM     19  C   UNL     1      -4.310 -11.935  18.408  0.00  0.00    +0.023 A 
ATOM     20  C   UNL     1      -6.562 -10.329  18.769  0.00  0.00    +0.002 A 
ATOM     21  C   UNL     1      -4.900 -11.834  19.667  0.00  0.00    +0.002 A 
ATOM     22  C   UNL     1      -6.027 -11.032  19.848  0.00  0.00    +0.000 A 
ENDBRANCH   5  17
TORSDOF 2
ENDMDL
MODEL 5
REMARK VINA RESULT:      -6.1     14.890     18.819
REMARK  Name = 86769014
REMARK  2 active torsions:
REMARK  status: ('A' for Active; 'I' for Inactive)
REMARK    1  A    between atoms: N_3  and  C_8
REMARK    2  A    between atoms: N_5  and  C_17
REMARK                            x       y       z     vdW  Elec       q    Type
REMARK                         _______ _______ _______ _____ _____    ______ ____
ROOT
ATOM      2  O   UNL     1      12.391   7.347   5.089  0.00  0.00    -0.252 OA
ATOM      3  N   UNL     1      11.774   5.052   0.623  0.00  0.00    -0.296 NA
ATOM      4  N   UNL     1      12.026   5.909   3.291  0.00  0.00    -0.278 N 
ATOM      5  N   UNL     1      10.711   5.641   5.114  0.00  0.00    -0.254 N 
ATOM      6  C   UNL     1      11.258   4.724   3.006  0.00  0.00    +0.109 C 
ATOM      7  C   UNL     1      10.690   4.779   1.587  0.00  0.00    +0.108 C 
ATOM      9  C   UNL     1      12.430   6.341   0.921  0.00  0.00    +0.104 C 
ATOM     10  C   UNL     1      13.019   6.355   2.333  0.00  0.00    +0.125 C 
ATOM     11  C   UNL     1      10.213   4.703   4.116  0.00  0.00    +0.139 C 
ATOM     14  C   UNL     1      11.785   6.413   4.579  0.00  0.00    +0.309 C 
ENDROOT
BRANCH   3   8
ATOM      1  O   UNL     1       9.417   3.966  -2.677  0.00  0.00    -0.380 OA
ATOM      8  C   UNL     1      11.253   5.049  -0.742  0.00  0.00    +0.061 C 
ATOM     12  C   UNL     1      11.456   3.674  -1.387  0.00  0.00    +0.047 C 
ATOM     13  C   UNL     1       9.767   5.424  -0.765  0.00  0.00    +0.047 C 
ATOM     15  C   UNL     1      10.803   3.633  -2.763  0.00  0.00    +0.161 C 
ATOM     16  C   UNL     1       9.208   5.286  -2.176  0.00  0.00    +0.161 C 
ENDBRANCH   3   8
BRANCH   5  17
ATOM     17  C   UNL     1      10.113   5.779   6.400  0.00  0.00    +0.038 A 
ATOM     18  C   UNL     1       9.489   6.975   6.755  0.00  0.00    +0.023 A 
ATOM     19  C   UNL     1      10.152   4.717   7.304  0.00  0.00    +0.023 A 
ATOM     20  C   UNL     1       8.904   7.109   8.015  0.00  0.00    +0.002 A 
ATOM     21  C   UNL     1       9.567   4.852   8.563  0.00  0.00    +0.002 A 
ATOM     22  C   UNL     1       8.943   6.047   8.918  0.00  0.00    +0.000 A 
ENDBRANCH   5  17
TORSDOF 2
ENDMDL
MODEL 6
REMARK VINA RESULT:      -5.9     27.503     30.734
REMARK  Name = 86769014
REMARK  2 active torsions:
REMARK  status: ('A' for Active; 'I' for Inactive)
REMARK    1  A    between atoms: N_3  and  C_8
REMARK    2  A    between atoms: N_5  and  C_17
REMARK                            x       y       z     vdW  Elec       q    Type
REMARK                         _______ _______ _______ _____ _____    ______ ____
ROOT
ATOM      2  O   UNL     1      -4.572 -12.554  18.206  0.00  0.00    -0.252 OA
ATOM      3  N   UNL     1      -9.183 -10.622  18.987  0.00  0.00    -0.296 NA
ATOM      4  N   UNL     1      -6.490 -11.255  18.471  0.00  0.00    -0.278 N 
ATOM      5  N   UNL     1      -5.081 -10.691  16.791  0.00  0.00    -0.254 N 
ATOM      6  C   UNL     1      -7.035 -10.029  17.945  0.00  0.00    +0.109 C 
ATOM      7  C   UNL     1      -8.544 -10.155  17.741  0.00  0.00    +0.108 C 
ATOM      9  C   UNL     1      -8.648 -11.939  19.389  0.00  0.00    +0.104 C 
ATOM     10  C   UNL     1      -7.134 -11.885  19.607  0.00  0.00    +0.125 C 
ATOM     11  C   UNL     1      -6.230  -9.801  16.670  0.00  0.00    +0.139 C 
ATOM     14  C   UNL     1      -5.277 -11.613  17.861  0.00  0.00    +0.309 C 
ENDROOT
BRANCH   3   8
ATOM      1  O   UNL     1     -13.232  -9.587  19.381  0.00  0.00    -0.380 OA
ATOM      8  C   UNL     1     -10.632 -10.690  18.821  0.00  0.00    +0.061 C 
ATOM     12  C   UNL     1     -11.317 -10.851  20.182  0.00  0.00    +0.047 C 
ATOM     13  C   UNL     1     -11.165  -9.441  18.111  0.00  0.00    +0.047 C 
ATOM     15  C   UNL     1     -12.832 -10.797  20.023  0.00  0.00    +0.161 C 
ATOM     16  C   UNL     1     -12.689  -9.466  18.067  0.00  0.00    +0.161 C 
ENDBRANCH   3   8
BRANCH   5  17
ATOM     17  C   UNL     1      -3.984 -10.650  15.883  0.00  0.00    +0.038 A 
ATOM     18  C   UNL     1      -2.678 -10.579  16.369  0.00  0.00    +0.023 A 
ATOM     19  C   UNL     1      -4.216 -10.681  14.508  0.00  0.00    +0.023 A 
ATOM     20  C   UNL     1      -1.604 -10.538  15.479  0.00  0.00    +0.002 A 
ATOM     21  C   UNL     1      -3.142 -10.640  13.619  0.00  0.00    +0.002 A 
ATOM     22  C   UNL     1      -1.836 -10.569  14.104  0.00  0.00    +0.000 A 
ENDBRANCH   5  17
TORSDOF 2
ENDMDL
MODEL 7
REMARK VINA RESULT:      -5.8     28.089     31.439
REMARK  Name = 86769014
REMARK  2 active torsions:
REMARK  status: ('A' for Active; 'I' for Inactive)
REMARK    1  A    between atoms: N_3  and  C_8
REMARK    2  A    between atoms: N_5  and  C_17
REMARK                            x       y       z     vdW  Elec       q    Type
REMARK                         _______ _______ _______ _____ _____    ______ ____
ROOT
ATOM      2  O   UNL     1     -15.378   7.795  20.084  0.00  0.00    -0.252 OA
ATOM      3  N   UNL     1     -15.634   4.170  23.604  0.00  0.00    -0.296 NA
ATOM      4  N   UNL     1     -15.125   5.948  21.484  0.00  0.00    -0.278 N 
ATOM      5  N   UNL     1     -13.236   6.969  20.764  0.00  0.00    -0.254 N 
ATOM      6  C   UNL     1     -14.059   5.105  21.962  0.00  0.00    +0.109 C 
ATOM      7  C   UNL     1     -14.282   4.735  23.429  0.00  0.00    +0.108 C 
ATOM      9  C   UNL     1     -16.667   5.144  23.199  0.00  0.00    +0.104 C 
ATOM     10  C   UNL     1     -16.499   5.561  21.736  0.00  0.00    +0.125 C 
ATOM     11  C   UNL     1     -12.805   5.929  21.691  0.00  0.00    +0.139 C 
ATOM     14  C   UNL     1     -14.661   7.008  20.688  0.00  0.00    +0.309 C 
ENDROOT
BRANCH   3   8
ATOM      1  O   UNL     1     -17.637   2.901  27.068  0.00  0.00    -0.380 OA
ATOM      8  C   UNL     1     -15.838   3.759  24.991  0.00  0.00    +0.061 C 
ATOM     12  C   UNL     1     -16.798   4.722  25.696  0.00  0.00    +0.047 C 
ATOM     13  C   UNL     1     -16.382   2.328  25.067  0.00  0.00    +0.047 C 
ATOM     15  C   UNL     1     -17.108   4.226  27.103  0.00  0.00    +0.161 C 
ATOM     16  C   UNL     1     -16.715   1.964  26.510  0.00  0.00    +0.161 C 
ENDBRANCH   3   8
BRANCH   5  17
ATOM     17  C   UNL     1     -12.318   7.846  20.118  0.00  0.00    +0.038 A 
ATOM     18  C   UNL     1     -11.640   7.428  18.973  0.00  0.00    +0.023 A 
ATOM     19  C   UNL     1     -12.096   9.124  20.632  0.00  0.00    +0.023 A 
ATOM     20  C   UNL     1     -10.741   8.288  18.341  0.00  0.00    +0.002 A 
ATOM     21  C   UNL     1     -11.197   9.983  20.001  0.00  0.00    +0.002 A 
ATOM     22  C   UNL     1     -10.520   9.565  18.856  0.00  0.00    +0.000 A 
ENDBRANCH   5  17
TORSDOF 2
ENDMDL
MODEL 8
REMARK VINA RESULT:      -5.7     28.154     29.606
REMARK  Name = 86769014
REMARK  2 active torsions:
REMARK  status: ('A' for Active; 'I' for Inactive)
REMARK    1  A    between atoms: N_3  and  C_8
REMARK    2  A    between atoms: N_5  and  C_17
REMARK                            x       y       z     vdW  Elec       q    Type
REMARK                         _______ _______ _______ _____ _____    ______ ____
ROOT
ATOM      2  O   UNL     1      -5.413 -13.159  12.065  0.00  0.00    -0.252 OA
ATOM      3  N   UNL     1      -4.979 -12.870  17.098  0.00  0.00    -0.296 NA
ATOM      4  N   UNL     1      -4.816 -12.799  14.290  0.00  0.00    -0.278 N 
ATOM      5  N   UNL     1      -4.407 -11.123  12.824  0.00  0.00    -0.254 N 
ATOM      6  C   UNL     1      -4.088 -11.822  15.059  0.00  0.00    +0.109 C 
ATOM      7  C   UNL     1      -4.768 -11.583  16.407  0.00  0.00    +0.108 C 
ATOM      9  C   UNL     1      -5.832 -13.766  16.290  0.00  0.00    +0.104 C 
ATOM     10  C   UNL     1      -5.208 -14.045  14.920  0.00  0.00    +0.125 C 
ATOM     11  C   UNL     1      -4.043 -10.607  14.138  0.00  0.00    +0.139 C 
ATOM     14  C   UNL     1      -4.931 -12.445  12.936  0.00  0.00    +0.309 C 
ENDROOT
BRANCH   3   8
ATOM      1  O   UNL     1      -7.366 -11.137  20.085  0.00  0.00    -0.380 OA
ATOM      8  C   UNL     1      -5.576 -12.650  18.413  0.00  0.00    +0.061 C 
ATOM     12  C   UNL     1      -5.234 -11.247  18.925  0.00  0.00    +0.047 C 
ATOM     13  C   UNL     1      -7.097 -12.834  18.365  0.00  0.00    +0.047 C 
ATOM     15  C   UNL     1      -5.957 -10.971  20.237  0.00  0.00    +0.161 C 
ATOM     16  C   UNL     1      -7.716 -12.470  19.710  0.00  0.00    +0.161 C 
ENDBRANCH   3   8
BRANCH   5  17
ATOM     17  C   UNL     1      -4.308 -10.337  11.639  0.00  0.00    +0.038 A 
ATOM     18  C   UNL     1      -3.054 -10.007  11.123  0.00  0.00    +0.023 A 
ATOM     19  C   UNL     1      -5.465  -9.896  10.997  0.00  0.00    +0.023 A 
ATOM     20  C   UNL     1      -2.958  -9.237   9.964  0.00  0.00    +0.002 A 
ATOM     21  C   UNL     1      -5.368  -9.125   9.838  0.00  0.00    +0.002 A 
ATOM     22  C   UNL     1      -4.115  -8.797   9.321  0.00  0.00    +0.000 A 
ENDBRANCH   5  17
TORSDOF 2
ENDMDL
MODEL 9
REMARK VINA RESULT:      -5.6     30.537     33.105
REMARK  Name = 86769014
REMARK  2 active torsions:
REMARK  status: ('A' for Active; 'I' for Inactive)
REMARK    1  A    between atoms: N_3  and  C_8
REMARK    2  A    between atoms: N_5  and  C_17
REMARK                            x       y       z     vdW  Elec       q    Type
REMARK                         _______ _______ _______ _____ _____    ______ ____
ROOT
ATOM      2  O   UNL     1     -16.369   4.645  30.196  0.00  0.00    -0.252 OA
ATOM      3  N   UNL     1     -13.820   8.016  32.980  0.00  0.00    -0.296 NA
ATOM      4  N   UNL     1     -15.196   5.862  31.803  0.00  0.00    -0.278 N 
ATOM      5  N   UNL     1     -14.713   3.658  31.616  0.00  0.00    -0.254 N 
ATOM      6  C   UNL     1     -14.287   5.602  32.890  0.00  0.00    +0.109 C 
ATOM      7  C   UNL     1     -13.201   6.676  32.951  0.00  0.00    +0.108 C 
ATOM      9  C   UNL     1     -14.641   8.240  31.772  0.00  0.00    +0.104 C 
ATOM     10  C   UNL     1     -15.749   7.193  31.647  0.00  0.00    +0.125 C 
ATOM     11  C   UNL     1     -13.781   4.193  32.601  0.00  0.00    +0.139 C 
ATOM     14  C   UNL     1     -15.536   4.699  31.093  0.00  0.00    +0.309 C 
ENDROOT
BRANCH   3   8
ATOM      1  O   UNL     1     -10.075   9.762  33.716  0.00  0.00    -0.380 OA
ATOM      8  C   UNL     1     -12.794   9.049  33.097  0.00  0.00    +0.061 C 
ATOM     12  C   UNL     1     -12.270   9.117  34.535  0.00  0.00    +0.047 C 
ATOM     13  C   UNL     1     -11.636   8.786  32.129  0.00  0.00    +0.047 C 
ATOM     15  C   UNL     1     -11.115  10.107  34.631  0.00  0.00    +0.161 C 
ATOM     16  C   UNL     1     -10.515   9.795  32.358  0.00  0.00    +0.161 C 
ENDBRANCH   3   8
BRANCH   5  17
ATOM     17  C   UNL     1     -14.698   2.291  31.213  0.00  0.00    +0.038 A 
ATOM     18  C   UNL     1     -14.456   1.959  29.879  0.00  0.00    +0.023 A 
ATOM     19  C   UNL     1     -14.926   1.285  32.151  0.00  0.00    +0.023 A 
ATOM     20  C   UNL     1     -14.441   0.621  29.485  0.00  0.00    +0.002 A 
ATOM     21  C   UNL     1     -14.912  -0.053  31.757  0.00  0.00    +0.002 A 
ATOM     22  C   UNL     1     -14.669  -0.385  30.424  0.00  0.00    +0.000 A 
ENDBRANCH   5  17
TORSDOF 2
ENDMDL
MODEL 10
REMARK VINA RESULT:      -5.6     16.111     19.541
REMARK  Name = 86769014
REMARK  2 active torsions:
REMARK  status: ('A' for Active; 'I' for Inactive)
REMARK    1  A    between atoms: N_3  and  C_8
REMARK    2  A    between atoms: N_5  and  C_17
REMARK                            x       y       z     vdW  Elec       q    Type
REMARK                         _______ _______ _______ _____ _____    ______ ____
ROOT
ATOM      2  O   UNL     1      12.832   7.271   3.632  0.00  0.00    -0.252 OA
ATOM      3  N   UNL     1      13.596   3.878  -0.042  0.00  0.00    -0.296 NA
ATOM      4  N   UNL     1      13.011   5.403   2.249  0.00  0.00    -0.278 N 
ATOM      5  N   UNL     1      11.171   5.547   3.561  0.00  0.00    -0.254 N 
ATOM      6  C   UNL     1      12.331   4.148   2.051  0.00  0.00    +0.109 C 
ATOM      7  C   UNL     1      12.251   3.809   0.562  0.00  0.00    +0.108 C 
ATOM      9  C   UNL     1      14.169   5.232   0.105  0.00  0.00    +0.104 C 
ATOM     10  C   UNL     1      14.274   5.637   1.577  0.00  0.00    +0.125 C 
ATOM     11  C   UNL     1      10.985   4.360   2.735  0.00  0.00    +0.139 C 
ATOM     14  C   UNL     1      12.387   6.208   3.215  0.00  0.00    +0.309 C 
ENDROOT
BRANCH   3   8
ATOM      1  O   UNL     1      12.260   3.736  -4.019  0.00  0.00    -0.380 OA
ATOM      8  C   UNL     1      13.541   3.499  -1.451  0.00  0.00    +0.061 C 
ATOM     12  C   UNL     1      12.204   2.820  -1.768  0.00  0.00    +0.047 C 
ATOM     13  C   UNL     1      13.737   4.719  -2.358  0.00  0.00    +0.047 C 
ATOM     15  C   UNL     1      12.095   2.537  -3.262  0.00  0.00    +0.161 C 
ATOM     16  C   UNL     1      13.543   4.330  -3.819  0.00  0.00    +0.161 C 
ENDBRANCH   3   8
BRANCH   5  17
ATOM     17  C   UNL     1      10.197   5.981   4.507  0.00  0.00    +0.038 A 
ATOM     18  C   UNL     1       9.246   6.933   4.142  0.00  0.00    +0.023 A 
ATOM     19  C   UNL     1      10.197   5.453   5.798  0.00  0.00    +0.023 A 
ATOM     20  C   UNL     1       8.292   7.357   5.069  0.00  0.00    +0.002 A 
ATOM     21  C   UNL     1       9.245   5.878   6.724  0.00  0.00    +0.002 A 
ATOM     22  C   UNL     1       8.292   6.829   6.360  0.00  0.00    +0.000 A 
ENDBRANCH   5  17
TORSDOF 2
ENDMDL
