MODEL 1
REMARK VINA RESULT:      -6.9      0.000      0.000
REMARK  Name = 38030027
REMARK  8 active torsions:
REMARK  status: ('A' for Active; 'I' for Inactive)
REMARK    1  A    between atoms: C_7  and  C_11
REMARK    2  A    between atoms: C_9  and  C_15
REMARK    3  A    between atoms: C_10  and  C_14
REMARK    4  A    between atoms: C_11  and  C_16
REMARK    5  A    between atoms: C_11  and  C_17
REMARK    6  A    between atoms: C_12  and  C_19
REMARK    7  A    between atoms: C_14  and  C_18
REMARK    8  A    between atoms: C_15  and  C_24
REMARK                            x       y       z     vdW  Elec       q    Type
REMARK                         _______ _______ _______ _____ _____    ______ ____
ROOT
ATOM     14  C   UNL     1      15.644   8.558  20.753  0.00  0.00    +0.103 C 
ENDROOT
BRANCH  14  18
ATOM      1  O   UNL     1      17.017  10.070  21.964  0.00  0.00    -0.276 OA
ATOM      2  N   UNL     1      17.946   8.004  21.446  0.00  0.00    -0.298 N 
ATOM      3  N   UNL     1      20.050   6.031  21.694  0.00  0.00    -0.297 N 
ATOM      5  N   UNL     1      21.169   4.175  20.839  0.00  0.00    -0.223 NA
ATOM      6  N   UNL     1      21.774   5.122  22.972  0.00  0.00    -0.223 NA
ATOM     18  C   UNL     1      16.925   8.955  21.445  0.00  0.00    +0.216 C 
ATOM     20  C   UNL     1      17.835   6.680  20.830  0.00  0.00    +0.126 C 
ATOM     21  C   UNL     1      19.215   8.311  22.101  0.00  0.00    +0.126 C 
ATOM     22  C   UNL     1      19.195   6.062  20.505  0.00  0.00    +0.127 C 
ATOM     23  C   UNL     1      19.858   7.067  22.713  0.00  0.00    +0.127 C 
ATOM     25  C   UNL     1      21.043   5.065  21.842  0.00  0.00    +0.218 A 
ATOM     26  C   UNL     1      22.140   3.254  21.015  0.00  0.00    +0.116 A 
ATOM     27  C   UNL     1      22.726   4.172  23.081  0.00  0.00    +0.116 A 
ATOM     28  C   UNL     1      22.957   3.204  22.126  0.00  0.00    +0.039 A 
ENDBRANCH  14  18
BRANCH  14  10
ATOM      7  C   UNL     1      12.442   8.337  20.541  0.00  0.00    -0.000 C 
ATOM      8  C   UNL     1      13.304   9.098  21.560  0.00  0.00    +0.012 C 
ATOM      9  C   UNL     1      12.051   9.265  19.364  0.00  0.00    +0.029 C 
ATOM     10  C   UNL     1      14.593   9.658  20.930  0.00  0.00    +0.023 C 
ATOM     12  C   UNL     1      14.318  10.362  19.616  0.00  0.00    -0.073 C 
ATOM     13  C   UNL     1      13.171  10.184  18.937  0.00  0.00    -0.023 C 
ATOM     19  C   UNL     1      15.374  11.311  19.123  0.00  0.00    +0.039 C 
BRANCH   7  11
ATOM     11  C   UNL     1      11.209   7.752  21.239  0.00  0.00    -0.013 C 
ATOM     16  C   UNL     1      11.414   6.267  21.523  0.00  0.00    +0.007 C 
ATOM     17  C   UNL     1      10.915   8.514  22.526  0.00  0.00    +0.007 C 
ENDBRANCH   7  11
BRANCH   9  15
ATOM     15  C   UNL     1      11.569   8.453  18.157  0.00  0.00    +0.126 C 
BRANCH  15  24
ATOM      4  N   UNL     1      13.596   7.328  16.930  0.00  0.00    -0.197 NA
ATOM     24  C   UNL     1      12.697   7.829  17.467  0.00  0.00    +0.063 C 
ENDBRANCH  15  24
ENDBRANCH   9  15
ENDBRANCH  14  10
TORSDOF 5
ENDMDL
MODEL 2
REMARK VINA RESULT:      -6.1     27.036     30.445
REMARK  Name = 38030027
REMARK  8 active torsions:
REMARK  status: ('A' for Active; 'I' for Inactive)
REMARK    1  A    between atoms: C_7  and  C_11
REMARK    2  A    between atoms: C_9  and  C_15
REMARK    3  A    between atoms: C_10  and  C_14
REMARK    4  A    between atoms: C_11  and  C_16
REMARK    5  A    between atoms: C_11  and  C_17
REMARK    6  A    between atoms: C_12  and  C_19
REMARK    7  A    between atoms: C_14  and  C_18
REMARK    8  A    between atoms: C_15  and  C_24
REMARK                            x       y       z     vdW  Elec       q    Type
REMARK                         _______ _______ _______ _____ _____    ______ ____
ROOT
ATOM     14  C   UNL     1      -4.127 -10.387  13.868  0.00  0.00    +0.103 C 
ENDROOT
BRANCH  14  18
ATOM      1  O   UNL     1      -2.205 -10.897  12.572  0.00  0.00    -0.276 OA
ATOM      2  N   UNL     1      -4.071 -10.135  11.415  0.00  0.00    -0.298 N 
ATOM      3  N   UNL     1      -5.488  -9.608   8.947  0.00  0.00    -0.297 N 
ATOM      5  N   UNL     1      -7.155  -8.453   7.800  0.00  0.00    -0.223 NA
ATOM      6  N   UNL     1      -5.822 -10.135   6.702  0.00  0.00    -0.223 NA
ATOM     18  C   UNL     1      -3.372 -10.501  12.566  0.00  0.00    +0.216 C 
ATOM     20  C   UNL     1      -5.457  -9.665  11.411  0.00  0.00    +0.126 C 
ATOM     21  C   UNL     1      -3.410 -10.223  10.115  0.00  0.00    +0.126 C 
ATOM     22  C   UNL     1      -5.803  -8.853  10.162  0.00  0.00    +0.127 C 
ATOM     23  C   UNL     1      -4.391 -10.579   8.999  0.00  0.00    +0.127 C 
ATOM     25  C   UNL     1      -6.187  -9.389   7.762  0.00  0.00    +0.218 A 
ATOM     26  C   UNL     1      -7.812  -8.267   6.635  0.00  0.00    +0.116 A 
ATOM     27  C   UNL     1      -6.519  -9.896   5.571  0.00  0.00    +0.116 A 
ATOM     28  C   UNL     1      -7.534  -8.966   5.478  0.00  0.00    +0.039 A 
ENDBRANCH  14  18
BRANCH  14  10
ATOM      7  C   UNL     1      -5.895 -11.833  16.134  0.00  0.00    -0.000 C 
ATOM      8  C   UNL     1      -4.945 -12.447  15.095  0.00  0.00    +0.012 C 
ATOM      9  C   UNL     1      -5.144 -11.566  17.463  0.00  0.00    +0.029 C 
ATOM     10  C   UNL     1      -3.737 -11.539  14.800  0.00  0.00    +0.023 C 
ATOM     12  C   UNL     1      -3.102 -11.016  16.073  0.00  0.00    -0.073 C 
ATOM     13  C   UNL     1      -3.741 -11.049  17.256  0.00  0.00    -0.023 C 
ATOM     19  C   UNL     1      -1.695 -10.496  15.963  0.00  0.00    +0.039 C 
BRANCH   7  11
ATOM     11  C   UNL     1      -7.105 -12.750  16.338  0.00  0.00    -0.013 C 
ATOM     16  C   UNL     1      -7.749 -13.087  14.996  0.00  0.00    +0.007 C 
ATOM     17  C   UNL     1      -6.692 -14.020  17.073  0.00  0.00    +0.007 C 
ENDBRANCH   7  11
BRANCH   9  15
ATOM     15  C   UNL     1      -5.923 -10.590  18.351  0.00  0.00    +0.126 C 
BRANCH  15  24
ATOM      4  N   UNL     1      -5.943 -11.422  20.839  0.00  0.00    -0.197 NA
ATOM     24  C   UNL     1      -5.940 -11.053  19.738  0.00  0.00    +0.063 C 
ENDBRANCH  15  24
ENDBRANCH   9  15
ENDBRANCH  14  10
TORSDOF 5
ENDMDL
MODEL 3
REMARK VINA RESULT:      -5.9     15.140     18.974
REMARK  Name = 38030027
REMARK  8 active torsions:
REMARK  status: ('A' for Active; 'I' for Inactive)
REMARK    1  A    between atoms: C_7  and  C_11
REMARK    2  A    between atoms: C_9  and  C_15
REMARK    3  A    between atoms: C_10  and  C_14
REMARK    4  A    between atoms: C_11  and  C_16
REMARK    5  A    between atoms: C_11  and  C_17
REMARK    6  A    between atoms: C_12  and  C_19
REMARK    7  A    between atoms: C_14  and  C_18
REMARK    8  A    between atoms: C_15  and  C_24
REMARK                            x       y       z     vdW  Elec       q    Type
REMARK                         _______ _______ _______ _____ _____    ______ ____
ROOT
ATOM     14  C   UNL     1      10.580   6.132   5.237  0.00  0.00    +0.103 C 
ENDROOT
BRANCH  14  18
ATOM      1  O   UNL     1       9.932   3.884   4.829  0.00  0.00    -0.276 OA
ATOM      2  N   UNL     1      11.370   4.852   3.281  0.00  0.00    -0.298 N 
ATOM      3  N   UNL     1      12.781   4.811   0.754  0.00  0.00    -0.297 N 
ATOM      5  N   UNL     1      14.539   5.570  -0.573  0.00  0.00    -0.223 NA
ATOM      6  N   UNL     1      12.885   4.050  -1.446  0.00  0.00    -0.223 NA
ATOM     18  C   UNL     1      10.590   4.851   4.438  0.00  0.00    +0.216 C 
ATOM     20  C   UNL     1      12.152   6.001   2.819  0.00  0.00    +0.126 C 
ATOM     21  C   UNL     1      11.427   3.651   2.451  0.00  0.00    +0.126 C 
ATOM     22  C   UNL     1      13.289   5.603   1.878  0.00  0.00    +0.127 C 
ATOM     23  C   UNL     1      11.588   3.987   0.970  0.00  0.00    +0.127 C 
ATOM     25  C   UNL     1      13.432   4.810  -0.478  0.00  0.00    +0.218 A 
ATOM     26  C   UNL     1      15.144   5.546  -1.780  0.00  0.00    +0.116 A 
ATOM     27  C   UNL     1      13.540   4.073  -2.625  0.00  0.00    +0.116 A 
ATOM     28  C   UNL     1      14.685   4.809  -2.852  0.00  0.00    +0.039 A 
ENDBRANCH  14  18
BRANCH  14  10
ATOM      7  C   UNL     1       9.034   8.873   5.905  0.00  0.00    -0.000 C 
ATOM      8  C   UNL     1       8.488   7.558   5.326  0.00  0.00    +0.012 C 
ATOM      9  C   UNL     1       8.885   8.886   7.447  0.00  0.00    +0.029 C 
ATOM     10  C   UNL     1       9.211   6.325   5.897  0.00  0.00    +0.023 C 
ATOM     12  C   UNL     1       9.342   6.397   7.405  0.00  0.00    -0.073 C 
ATOM     13  C   UNL     1       9.180   7.548   8.082  0.00  0.00    -0.023 C 
ATOM     19  C   UNL     1       9.619   5.105   8.123  0.00  0.00    +0.039 C 
BRANCH   7  11
ATOM     11  C   UNL     1       8.321  10.062   5.254  0.00  0.00    -0.013 C 
ATOM     16  C   UNL     1       9.324  10.946   4.519  0.00  0.00    +0.007 C 
ATOM     17  C   UNL     1       7.232   9.575   4.305  0.00  0.00    +0.007 C 
ENDBRANCH   7  11
BRANCH   9  15
ATOM     15  C   UNL     1       9.779   9.958   8.079  0.00  0.00    +0.126 C 
BRANCH  15  24
ATOM      4  N   UNL     1      12.280   9.626   7.360  0.00  0.00    -0.197 NA
ATOM     24  C   UNL     1      11.175   9.769   7.683  0.00  0.00    +0.063 C 
ENDBRANCH  15  24
ENDBRANCH   9  15
ENDBRANCH  14  10
TORSDOF 5
ENDMDL
MODEL 4
REMARK VINA RESULT:      -5.9      2.819      4.375
REMARK  Name = 38030027
REMARK  8 active torsions:
REMARK  status: ('A' for Active; 'I' for Inactive)
REMARK    1  A    between atoms: C_7  and  C_11
REMARK    2  A    between atoms: C_9  and  C_15
REMARK    3  A    between atoms: C_10  and  C_14
REMARK    4  A    between atoms: C_11  and  C_16
REMARK    5  A    between atoms: C_11  and  C_17
REMARK    6  A    between atoms: C_12  and  C_19
REMARK    7  A    between atoms: C_14  and  C_18
REMARK    8  A    between atoms: C_15  and  C_24
REMARK                            x       y       z     vdW  Elec       q    Type
REMARK                         _______ _______ _______ _____ _____    ______ ____
ROOT
ATOM     14  C   UNL     1      14.693   9.530  19.829  0.00  0.00    +0.103 C 
ENDROOT
BRANCH  14  18
ATOM      1  O   UNL     1      14.335   7.611  18.478  0.00  0.00    -0.276 OA
ATOM      2  N   UNL     1      16.189   7.569  19.880  0.00  0.00    -0.298 N 
ATOM      3  N   UNL     1      18.652   6.357  20.797  0.00  0.00    -0.297 N 
ATOM      5  N   UNL     1      20.249   6.083  22.471  0.00  0.00    -0.223 NA
ATOM      6  N   UNL     1      20.503   5.025  20.320  0.00  0.00    -0.223 NA
ATOM     18  C   UNL     1      15.047   8.152  19.327  0.00  0.00    +0.216 C 
ATOM     20  C   UNL     1      17.033   8.213  20.888  0.00  0.00    +0.126 C 
ATOM     21  C   UNL     1      16.601   6.238  19.441  0.00  0.00    +0.126 C 
ATOM     22  C   UNL     1      17.866   7.212  21.689  0.00  0.00    +0.127 C 
ATOM     23  C   UNL     1      18.120   6.075  19.461  0.00  0.00    +0.127 C 
ATOM     25  C   UNL     1      19.857   5.796  21.215  0.00  0.00    +0.218 A 
ATOM     26  C   UNL     1      21.420   5.523  22.843  0.00  0.00    +0.116 A 
ATOM     27  C   UNL     1      21.666   4.498  20.758  0.00  0.00    +0.116 A 
ATOM     28  C   UNL     1      22.178   4.715  22.020  0.00  0.00    +0.039 A 
ENDBRANCH  14  18
BRANCH  14  10
ATOM      7  C   UNL     1      12.968  11.990  20.981  0.00  0.00    -0.000 C 
ATOM      8  C   UNL     1      12.751  11.153  19.711  0.00  0.00    +0.012 C 
ATOM      9  C   UNL     1      12.160  11.397  22.163  0.00  0.00    +0.029 C 
ATOM     10  C   UNL     1      13.170   9.684  19.901  0.00  0.00    +0.023 C 
ATOM     12  C   UNL     1      12.627   9.106  21.193  0.00  0.00    -0.073 C 
ATOM     13  C   UNL     1      12.168   9.887  22.187  0.00  0.00    -0.023 C 
ATOM     19  C   UNL     1      12.582   7.607  21.298  0.00  0.00    +0.039 C 
BRANCH   7  11
ATOM     11  C   UNL     1      12.593  13.450  20.710  0.00  0.00    -0.013 C 
ATOM     16  C   UNL     1      12.921  13.825  19.268  0.00  0.00    +0.007 C 
ATOM     17  C   UNL     1      11.116  13.685  21.008  0.00  0.00    +0.007 C 
ENDBRANCH   7  11
BRANCH   9  15
ATOM     15  C   UNL     1      12.672  11.932  23.504  0.00  0.00    +0.126 C 
BRANCH  15  24
ATOM      4  N   UNL     1      10.989  11.380  25.439  0.00  0.00    -0.197 NA
ATOM     24  C   UNL     1      11.732  11.619  24.580  0.00  0.00    +0.063 C 
ENDBRANCH  15  24
ENDBRANCH   9  15
ENDBRANCH  14  10
TORSDOF 5
ENDMDL
MODEL 5
REMARK VINA RESULT:      -5.8     27.589     30.302
REMARK  Name = 38030027
REMARK  8 active torsions:
REMARK  status: ('A' for Active; 'I' for Inactive)
REMARK    1  A    between atoms: C_7  and  C_11
REMARK    2  A    between atoms: C_9  and  C_15
REMARK    3  A    between atoms: C_10  and  C_14
REMARK    4  A    between atoms: C_11  and  C_16
REMARK    5  A    between atoms: C_11  and  C_17
REMARK    6  A    between atoms: C_12  and  C_19
REMARK    7  A    between atoms: C_14  and  C_18
REMARK    8  A    between atoms: C_15  and  C_24
REMARK                            x       y       z     vdW  Elec       q    Type
REMARK                         _______ _______ _______ _____ _____    ______ ____
ROOT
ATOM     14  C   UNL     1      -5.463 -13.176  10.691  0.00  0.00    +0.103 C 
ENDROOT
BRANCH  14  18
ATOM      1  O   UNL     1      -4.420 -15.078  11.657  0.00  0.00    -0.276 OA
ATOM      2  N   UNL     1      -5.281 -13.501  13.130  0.00  0.00    -0.298 N 
ATOM      3  N   UNL     1      -5.614 -12.436  15.800  0.00  0.00    -0.297 N 
ATOM      5  N   UNL     1      -6.824 -11.125  17.300  0.00  0.00    -0.223 NA
ATOM      6  N   UNL     1      -4.779 -12.214  17.965  0.00  0.00    -0.223 NA
ATOM     18  C   UNL     1      -5.003 -14.011  11.861  0.00  0.00    +0.216 C 
ATOM     20  C   UNL     1      -5.973 -12.233  13.371  0.00  0.00    +0.126 C 
ATOM     21  C   UNL     1      -4.862 -14.247  14.314  0.00  0.00    +0.126 C 
ATOM     22  C   UNL     1      -6.608 -12.160  14.760  0.00  0.00    +0.127 C 
ATOM     23  C   UNL     1      -4.495 -13.323  15.472  0.00  0.00    +0.127 C 
ATOM     25  C   UNL     1      -5.746 -11.901  17.080  0.00  0.00    +0.218 A 
ATOM     26  C   UNL     1      -6.920 -10.624  18.550  0.00  0.00    +0.116 A 
ATOM     27  C   UNL     1      -4.937 -11.679  19.193  0.00  0.00    +0.116 A 
ATOM     28  C   UNL     1      -5.997 -10.869  19.546  0.00  0.00    +0.039 A 
ENDBRANCH  14  18
BRANCH  14  10
ATOM      7  C   UNL     1      -3.580 -10.623  11.225  0.00  0.00    -0.000 C 
ATOM      8  C   UNL     1      -3.196 -12.050  10.807  0.00  0.00    +0.012 C 
ATOM      9  C   UNL     1      -3.758  -9.723   9.977  0.00  0.00    +0.029 C 
ATOM     10  C   UNL     1      -4.251 -12.692   9.887  0.00  0.00    +0.023 C 
ATOM     12  C   UNL     1      -4.678 -11.753   8.777  0.00  0.00    -0.073 C 
ATOM     13  C   UNL     1      -4.437 -10.430   8.829  0.00  0.00    -0.023 C 
ATOM     19  C   UNL     1      -5.348 -12.375   7.584  0.00  0.00    +0.039 C 
BRANCH   7  11
ATOM     11  C   UNL     1      -2.527 -10.062  12.186  0.00  0.00    -0.013 C 
ATOM     16  C   UNL     1      -2.173 -11.098  13.250  0.00  0.00    +0.007 C 
ATOM     17  C   UNL     1      -1.283  -9.630  11.418  0.00  0.00    +0.007 C 
ENDBRANCH   7  11
BRANCH   9  15
ATOM     15  C   UNL     1      -4.535  -8.447  10.322  0.00  0.00    +0.126 C 
BRANCH  15  24
ATOM      4  N   UNL     1      -6.754  -9.017  11.600  0.00  0.00    -0.197 NA
ATOM     24  C   UNL     1      -5.773  -8.770  11.030  0.00  0.00    +0.063 C 
ENDBRANCH  15  24
ENDBRANCH   9  15
ENDBRANCH  14  10
TORSDOF 5
ENDMDL
MODEL 6
REMARK VINA RESULT:      -5.8     27.950     31.228
REMARK  Name = 38030027
REMARK  8 active torsions:
REMARK  status: ('A' for Active; 'I' for Inactive)
REMARK    1  A    between atoms: C_7  and  C_11
REMARK    2  A    between atoms: C_9  and  C_15
REMARK    3  A    between atoms: C_10  and  C_14
REMARK    4  A    between atoms: C_11  and  C_16
REMARK    5  A    between atoms: C_11  and  C_17
REMARK    6  A    between atoms: C_12  and  C_19
REMARK    7  A    between atoms: C_14  and  C_18
REMARK    8  A    between atoms: C_15  and  C_24
REMARK                            x       y       z     vdW  Elec       q    Type
REMARK                         _______ _______ _______ _____ _____    ______ ____
ROOT
ATOM     14  C   UNL     1      -9.334 -10.997  18.425  0.00  0.00    +0.103 C 
ENDROOT
BRANCH  14  18
ATOM      1  O   UNL     1      -7.616 -10.922  20.063  0.00  0.00    -0.276 OA
ATOM      2  N   UNL     1      -6.941 -10.872  17.840  0.00  0.00    -0.298 N 
ATOM      3  N   UNL     1      -4.881 -10.968  15.808  0.00  0.00    -0.297 N 
ATOM      5  N   UNL     1      -4.179 -10.482  13.641  0.00  0.00    -0.223 NA
ATOM      6  N   UNL     1      -2.761 -11.693  15.169  0.00  0.00    -0.223 NA
ATOM     18  C   UNL     1      -7.891 -10.928  18.861  0.00  0.00    +0.216 C 
ATOM     20  C   UNL     1      -7.269 -10.880  16.412  0.00  0.00    +0.126 C 
ATOM     21  C   UNL     1      -5.522 -10.809  18.180  0.00  0.00    +0.126 C 
ATOM     22  C   UNL     1      -6.154 -10.293  15.546  0.00  0.00    +0.127 C 
ATOM     23  C   UNL     1      -4.654 -11.524  17.146  0.00  0.00    +0.127 C 
ATOM     25  C   UNL     1      -3.895 -11.052  14.828  0.00  0.00    +0.218 A 
ATOM     26  C   UNL     1      -3.202 -10.582  12.714  0.00  0.00    +0.116 A 
ATOM     27  C   UNL     1      -1.829 -11.756  14.195  0.00  0.00    +0.116 A 
ATOM     28  C   UNL     1      -1.995 -11.213  12.938  0.00  0.00    +0.039 A 
ENDBRANCH  14  18
BRANCH  14  10
ATOM      7  C   UNL     1     -12.463 -10.687  19.106  0.00  0.00    -0.000 C 
ATOM      8  C   UNL     1     -11.240 -10.159  19.870  0.00  0.00    +0.012 C 
ATOM      9  C   UNL     1     -12.987  -9.615  18.118  0.00  0.00    +0.029 C 
ATOM     10  C   UNL     1     -10.090  -9.761  18.927  0.00  0.00    +0.023 C 
ATOM     12  C   UNL     1     -10.579  -8.918  17.767  0.00  0.00    -0.073 C 
ATOM     13  C   UNL     1     -11.879  -8.854  17.429  0.00  0.00    -0.023 C 
ATOM     19  C   UNL     1      -9.544  -8.111  17.033  0.00  0.00    +0.039 C 
BRANCH   7  11
ATOM     11  C   UNL     1     -13.546 -11.124  20.098  0.00  0.00    -0.013 C 
ATOM     16  C   UNL     1     -12.959 -12.066  21.145  0.00  0.00    +0.007 C 
ATOM     17  C   UNL     1     -14.182  -9.908  20.761  0.00  0.00    +0.007 C 
ENDBRANCH   7  11
BRANCH   9  15
ATOM     15  C   UNL     1     -13.910 -10.238  17.065  0.00  0.00    +0.126 C 
BRANCH  15  24
ATOM      4  N   UNL     1     -12.588 -11.938  15.568  0.00  0.00    -0.197 NA
ATOM     24  C   UNL     1     -13.178 -11.190  16.231  0.00  0.00    +0.063 C 
ENDBRANCH  15  24
ENDBRANCH   9  15
ENDBRANCH  14  10
TORSDOF 5
ENDMDL
MODEL 7
REMARK VINA RESULT:      -5.8     27.984     30.472
REMARK  Name = 38030027
REMARK  8 active torsions:
REMARK  status: ('A' for Active; 'I' for Inactive)
REMARK    1  A    between atoms: C_7  and  C_11
REMARK    2  A    between atoms: C_9  and  C_15
REMARK    3  A    between atoms: C_10  and  C_14
REMARK    4  A    between atoms: C_11  and  C_16
REMARK    5  A    between atoms: C_11  and  C_17
REMARK    6  A    between atoms: C_12  and  C_19
REMARK    7  A    between atoms: C_14  and  C_18
REMARK    8  A    between atoms: C_15  and  C_24
REMARK                            x       y       z     vdW  Elec       q    Type
REMARK                         _______ _______ _______ _____ _____    ______ ____
ROOT
ATOM     14  C   UNL     1      -4.474 -10.650  16.609  0.00  0.00    +0.103 C 
ENDROOT
BRANCH  14  18
ATOM      1  O   UNL     1      -2.237 -11.071  15.937  0.00  0.00    -0.276 OA
ATOM      2  N   UNL     1      -3.773 -10.651  14.244  0.00  0.00    -0.298 N 
ATOM      3  N   UNL     1      -4.503 -10.550  11.445  0.00  0.00    -0.297 N 
ATOM      5  N   UNL     1      -5.883  -9.719   9.762  0.00  0.00    -0.223 NA
ATOM      6  N   UNL     1      -4.167 -11.342   9.280  0.00  0.00    -0.223 NA
ATOM     18  C   UNL     1      -3.387 -10.813  15.576  0.00  0.00    +0.216 C 
ATOM     20  C   UNL     1      -5.140 -10.345  13.817  0.00  0.00    +0.126 C 
ATOM     21  C   UNL     1      -2.778 -10.799  13.184  0.00  0.00    +0.126 C 
ATOM     22  C   UNL     1      -5.197  -9.713  12.426  0.00  0.00    +0.127 C 
ATOM     23  C   UNL     1      -3.385 -11.378  11.908  0.00  0.00    +0.127 C 
ATOM     25  C   UNL     1      -4.868 -10.536  10.101  0.00  0.00    +0.218 A 
ATOM     26  C   UNL     1      -6.210  -9.731   8.452  0.00  0.00    +0.116 A 
ATOM     27  C   UNL     1      -4.548 -11.304   7.985  0.00  0.00    +0.116 A 
ATOM     28  C   UNL     1      -5.571 -10.510   7.510  0.00  0.00    +0.039 A 
ENDBRANCH  14  18
BRANCH  14  10
ATOM      7  C   UNL     1      -7.468 -11.722  17.100  0.00  0.00    -0.000 C 
ATOM      8  C   UNL     1      -6.268 -12.434  16.457  0.00  0.00    +0.012 C 
ATOM      9  C   UNL     1      -7.539 -12.042  18.614  0.00  0.00    +0.029 C 
ATOM     10  C   UNL     1      -4.932 -12.026  17.106  0.00  0.00    +0.023 C 
ATOM     12  C   UNL     1      -5.008 -12.058  18.619  0.00  0.00    -0.073 C 
ATOM     13  C   UNL     1      -6.181 -12.078  19.275  0.00  0.00    -0.023 C 
ATOM     19  C   UNL     1      -3.701 -12.113  19.361  0.00  0.00    +0.039 C 
BRANCH   7  11
ATOM     11  C   UNL     1      -8.757 -12.119  16.373  0.00  0.00    -0.013 C 
ATOM     16  C   UNL     1      -9.321 -10.930  15.602  0.00  0.00    +0.007 C 
ATOM     17  C   UNL     1      -8.500 -13.296  15.439  0.00  0.00    +0.007 C 
ENDBRANCH   7  11
BRANCH   9  15
ATOM     15  C   UNL     1      -8.438 -11.041  19.349  0.00  0.00    +0.126 C 
BRANCH  15  24
ATOM      4  N   UNL     1     -10.512 -12.244  20.412  0.00  0.00    -0.197 NA
ATOM     24  C   UNL     1      -9.591 -11.718  19.941  0.00  0.00    +0.063 C 
ENDBRANCH  15  24
ENDBRANCH   9  15
ENDBRANCH  14  10
TORSDOF 5
ENDMDL
MODEL 8
REMARK VINA RESULT:      -5.8     15.778     18.942
REMARK  Name = 38030027
REMARK  8 active torsions:
REMARK  status: ('A' for Active; 'I' for Inactive)
REMARK    1  A    between atoms: C_7  and  C_11
REMARK    2  A    between atoms: C_9  and  C_15
REMARK    3  A    between atoms: C_10  and  C_14
REMARK    4  A    between atoms: C_11  and  C_16
REMARK    5  A    between atoms: C_11  and  C_17
REMARK    6  A    between atoms: C_12  and  C_19
REMARK    7  A    between atoms: C_14  and  C_18
REMARK    8  A    between atoms: C_15  and  C_24
REMARK                            x       y       z     vdW  Elec       q    Type
REMARK                         _______ _______ _______ _____ _____    ______ ____
ROOT
ATOM     14  C   UNL     1      12.639   8.301   4.658  0.00  0.00    +0.103 C 
ENDROOT
BRANCH  14  18
ATOM      1  O   UNL     1      14.830   7.423   4.397  0.00  0.00    -0.276 OA
ATOM      2  N   UNL     1      13.261   6.806   2.798  0.00  0.00    -0.298 N 
ATOM      3  N   UNL     1      12.444   5.209   0.526  0.00  0.00    -0.297 N 
ATOM      5  N   UNL     1      11.052   4.912  -1.319  0.00  0.00    -0.223 NA
ATOM      6  N   UNL     1      12.667   3.236  -0.693  0.00  0.00    -0.223 NA
ATOM     18  C   UNL     1      13.682   7.473   3.948  0.00  0.00    +0.216 C 
ATOM     20  C   UNL     1      11.897   6.866   2.266  0.00  0.00    +0.126 C 
ATOM     21  C   UNL     1      14.211   5.979   2.057  0.00  0.00    +0.126 C 
ATOM     22  C   UNL     1      11.825   6.512   0.781  0.00  0.00    +0.127 C 
ATOM     23  C   UNL     1      13.534   4.775   1.405  0.00  0.00    +0.127 C 
ATOM     25  C   UNL     1      12.036   4.416  -0.545  0.00  0.00    +0.218 A 
ATOM     26  C   UNL     1      10.681   4.118  -2.346  0.00  0.00    +0.116 A 
ATOM     27  C   UNL     1      12.247   2.493  -1.739  0.00  0.00    +0.116 A 
ATOM     28  C   UNL     1      11.249   2.887  -2.607  0.00  0.00    +0.039 A 
ENDBRANCH  14  18
BRANCH  14  10
ATOM      7  C   UNL     1      10.274   6.700   6.141  0.00  0.00    -0.000 C 
ATOM      8  C   UNL     1      11.796   6.533   6.266  0.00  0.00    +0.012 C 
ATOM      9  C   UNL     1       9.746   7.674   7.224  0.00  0.00    +0.029 C 
ATOM     10  C   UNL     1      12.543   7.872   6.127  0.00  0.00    +0.023 C 
ATOM     12  C   UNL     1      11.910   8.961   6.969  0.00  0.00    -0.073 C 
ATOM     13  C   UNL     1      10.664   8.849   7.462  0.00  0.00    -0.023 C 
ATOM     19  C   UNL     1      12.761  10.164   7.271  0.00  0.00    +0.039 C 
BRANCH   7  11
ATOM     11  C   UNL     1       9.593   5.331   6.224  0.00  0.00    -0.013 C 
ATOM     16  C   UNL     1      10.085   4.422   5.102  0.00  0.00    +0.007 C 
ATOM     17  C   UNL     1       9.846   4.693   7.586  0.00  0.00    +0.007 C 
ENDBRANCH   7  11
BRANCH   9  15
ATOM     15  C   UNL     1       8.344   8.183   6.873  0.00  0.00    +0.126 C 
BRANCH  15  24
ATOM      4  N   UNL     1       8.352   9.354   4.525  0.00  0.00    -0.197 NA
ATOM     24  C   UNL     1       8.342   8.835   5.563  0.00  0.00    +0.063 C 
ENDBRANCH  15  24
ENDBRANCH   9  15
ENDBRANCH  14  10
TORSDOF 5
ENDMDL
MODEL 9
REMARK VINA RESULT:      -5.7      4.714      9.219
REMARK  Name = 38030027
REMARK  8 active torsions:
REMARK  status: ('A' for Active; 'I' for Inactive)
REMARK    1  A    between atoms: C_7  and  C_11
REMARK    2  A    between atoms: C_9  and  C_15
REMARK    3  A    between atoms: C_10  and  C_14
REMARK    4  A    between atoms: C_11  and  C_16
REMARK    5  A    between atoms: C_11  and  C_17
REMARK    6  A    between atoms: C_12  and  C_19
REMARK    7  A    between atoms: C_14  and  C_18
REMARK    8  A    between atoms: C_15  and  C_24
REMARK                            x       y       z     vdW  Elec       q    Type
REMARK                         _______ _______ _______ _____ _____    ______ ____
ROOT
ATOM     14  C   UNL     1      14.689  10.529  18.231  0.00  0.00    +0.103 C 
ENDROOT
BRANCH  14  18
ATOM      1  O   UNL     1      16.144  12.404  18.187  0.00  0.00    -0.276 OA
ATOM      2  N   UNL     1      14.993  11.931  16.225  0.00  0.00    -0.298 N 
ATOM      3  N   UNL     1      14.497  12.359  13.405  0.00  0.00    -0.297 N 
ATOM      5  N   UNL     1      13.065  12.197  11.574  0.00  0.00    -0.223 NA
ATOM      6  N   UNL     1      15.314  13.031  11.329  0.00  0.00    -0.223 NA
ATOM     18  C   UNL     1      15.347  11.707  17.556  0.00  0.00    +0.216 C 
ATOM     20  C   UNL     1      14.047  11.101  15.476  0.00  0.00    +0.126 C 
ATOM     21  C   UNL     1      15.592  13.049  15.499  0.00  0.00    +0.126 C 
ATOM     22  C   UNL     1      13.444  11.829  14.274  0.00  0.00    +0.127 C 
ATOM     23  C   UNL     1      15.776  12.735  14.016  0.00  0.00    +0.127 C 
ATOM     25  C   UNL     1      14.282  12.538  12.040  0.00  0.00    +0.218 A 
ATOM     26  C   UNL     1      12.892  12.383  10.248  0.00  0.00    +0.116 A 
ATOM     27  C   UNL     1      15.071  13.190  10.011  0.00  0.00    +0.116 A 
ATOM     28  C   UNL     1      13.868  12.881   9.410  0.00  0.00    +0.039 A 
ENDBRANCH  14  18
BRANCH  14  10
ATOM      7  C   UNL     1      15.247   8.060  20.217  0.00  0.00    -0.000 C 
ATOM      8  C   UNL     1      15.954   9.421  20.127  0.00  0.00    +0.012 C 
ATOM      9  C   UNL     1      14.102   8.114  21.259  0.00  0.00    +0.029 C 
ATOM     10  C   UNL     1      14.988  10.554  19.734  0.00  0.00    +0.023 C 
ATOM     12  C   UNL     1      13.708  10.509  20.543  0.00  0.00    -0.073 C 
ATOM     13  C   UNL     1      13.334   9.414  21.229  0.00  0.00    -0.023 C 
ATOM     19  C   UNL     1      12.887  11.769  20.582  0.00  0.00    +0.039 C 
BRANCH   7  11
ATOM     11  C   UNL     1      16.268   6.966  20.549  0.00  0.00    -0.013 C 
ATOM     16  C   UNL     1      16.590   6.145  19.304  0.00  0.00    +0.007 C 
ATOM     17  C   UNL     1      17.534   7.580  21.135  0.00  0.00    +0.007 C 
ENDBRANCH   7  11
BRANCH   9  15
ATOM     15  C   UNL     1      13.131   6.943  21.074  0.00  0.00    +0.126 C 
BRANCH  15  24
ATOM      4  N   UNL     1      12.156   6.934  18.638  0.00  0.00    -0.197 NA
ATOM     24  C   UNL     1      12.585   6.932  19.717  0.00  0.00    +0.063 C 
ENDBRANCH  15  24
ENDBRANCH   9  15
ENDBRANCH  14  10
TORSDOF 5
ENDMDL
MODEL 10
REMARK VINA RESULT:      -5.7     10.787     14.135
REMARK  Name = 38030027
REMARK  8 active torsions:
REMARK  status: ('A' for Active; 'I' for Inactive)
REMARK    1  A    between atoms: C_7  and  C_11
REMARK    2  A    between atoms: C_9  and  C_15
REMARK    3  A    between atoms: C_10  and  C_14
REMARK    4  A    between atoms: C_11  and  C_16
REMARK    5  A    between atoms: C_11  and  C_17
REMARK    6  A    between atoms: C_12  and  C_19
REMARK    7  A    between atoms: C_14  and  C_18
REMARK    8  A    between atoms: C_15  and  C_24
REMARK                            x       y       z     vdW  Elec       q    Type
REMARK                         _______ _______ _______ _____ _____    ______ ____
ROOT
ATOM     14  C   UNL     1      19.164  -2.925  26.626  0.00  0.00    +0.103 C 
ENDROOT
BRANCH  14  18
ATOM      1  O   UNL     1      20.755  -1.269  27.232  0.00  0.00    -0.276 OA
ATOM      2  N   UNL     1      19.355  -2.037  28.920  0.00  0.00    -0.298 N 
ATOM      3  N   UNL     1      18.296  -1.880  31.609  0.00  0.00    -0.297 N 
ATOM      5  N   UNL     1      17.232  -2.909  33.408  0.00  0.00    -0.223 NA
ATOM      6  N   UNL     1      17.820  -0.572  33.478  0.00  0.00    -0.223 NA
ATOM     18  C   UNL     1      19.836  -1.999  27.610  0.00  0.00    +0.216 C 
ATOM     20  C   UNL     1      18.262  -2.904  29.368  0.00  0.00    +0.126 C 
ATOM     21  C   UNL     1      19.949  -1.166  29.931  0.00  0.00    +0.126 C 
ATOM     22  C   UNL     1      18.282  -3.148  30.877  0.00  0.00    +0.127 C 
ATOM     23  C   UNL     1      18.926  -0.719  30.973  0.00  0.00    +0.127 C 
ATOM     25  C   UNL     1      17.758  -1.783  32.891  0.00  0.00    +0.218 A 
ATOM     26  C   UNL     1      16.720  -2.779  34.651  0.00  0.00    +0.116 A 
ATOM     27  C   UNL     1      17.290  -0.514  34.718  0.00  0.00    +0.116 A 
ATOM     28  C   UNL     1      16.721  -1.595  35.360  0.00  0.00    +0.039 A 
ENDBRANCH  14  18
BRANCH  14  10
ATOM      7  C   UNL     1      17.873  -3.341  23.709  0.00  0.00    -0.000 C 
ATOM      8  C   UNL     1      18.848  -2.261  24.201  0.00  0.00    +0.012 C 
ATOM      9  C   UNL     1      18.650  -4.529  23.090  0.00  0.00    +0.029 C 
ATOM     10  C   UNL     1      19.834  -2.801  25.253  0.00  0.00    +0.023 C 
ATOM     12  C   UNL     1      20.445  -4.121  24.827  0.00  0.00    -0.073 C 
ATOM     13  C   UNL     1      19.909  -4.873  23.849  0.00  0.00    -0.023 C 
ATOM     19  C   UNL     1      21.713  -4.536  25.521  0.00  0.00    +0.039 C 
BRANCH   7  11
ATOM     11  C   UNL     1      16.880  -2.730  22.715  0.00  0.00    -0.013 C 
ATOM     16  C   UNL     1      15.460  -2.799  23.269  0.00  0.00    +0.007 C 
ATOM     17  C   UNL     1      17.266  -1.290  22.395  0.00  0.00    +0.007 C 
ENDBRANCH   7  11
BRANCH   9  15
ATOM     15  C   UNL     1      17.762  -5.774  22.982  0.00  0.00    +0.126 C 
BRANCH  15  24
ATOM      4  N   UNL     1      16.931  -6.527  25.353  0.00  0.00    -0.197 NA
ATOM     24  C   UNL     1      17.293  -6.192  24.302  0.00  0.00    +0.063 C 
ENDBRANCH  15  24
ENDBRANCH   9  15
ENDBRANCH  14  10
TORSDOF 5
ENDMDL
