MODEL 1
REMARK VINA RESULT:      -6.7      0.000      0.000
REMARK  Name = 28961245
REMARK  10 active torsions:
REMARK  status: ('A' for Active; 'I' for Inactive)
REMARK    1  A    between atoms: O_4  and  C_10
REMARK    2  A    between atoms: O_5  and  C_15
REMARK    3  A    between atoms: N_6  and  C_8
REMARK    4  A    between atoms: N_7  and  C_12
REMARK    5  A    between atoms: N_7  and  C_19
REMARK    6  A    between atoms: N_7  and  C_20
REMARK    7  A    between atoms: C_9  and  C_12
REMARK    8  A    between atoms: C_11  and  C_15
REMARK    9  A    between atoms: C_19  and  C_23
REMARK   10  A    between atoms: C_20  and  C_24
REMARK                            x       y       z     vdW  Elec       q    Type
REMARK                         _______ _______ _______ _____ _____    ______ ____
ROOT
ATOM      3  O   UNL     1      13.195   7.634   3.817  0.00  0.00    -0.366 OA
ATOM      8  C   UNL     1      12.823   6.839   1.604  0.00  0.00    +0.118 C 
ATOM      9  C   UNL     1      12.153   7.127   2.954  0.00  0.00    +0.152 C 
ATOM     10  C   UNL     1      14.274   6.586   1.990  0.00  0.00    +0.165 C 
ATOM     11  C   UNL     1      14.449   7.605   3.109  0.00  0.00    +0.174 C 
ENDROOT
BRANCH   8   6
ATOM      6  N   UNL     1      12.206   5.798   0.785  0.00  0.00    -0.290 NA
ATOM     13  C   UNL     1      10.918   6.255   0.245  0.00  0.00    +0.090 C 
ATOM     14  C   UNL     1      13.107   5.407  -0.313  0.00  0.00    +0.120 C 
ATOM     16  C   UNL     1      10.194   5.087  -0.433  0.00  0.00    +0.051 C 
ATOM     17  C   UNL     1      12.479   4.434  -1.286  0.00  0.00    -0.030 A 
ATOM     18  C   UNL     1      11.081   4.314  -1.372  0.00  0.00    -0.042 A 
ATOM     21  C   UNL     1      13.291   3.689  -2.152  0.00  0.00    +0.005 A 
ATOM     22  C   UNL     1      10.519   3.427  -2.298  0.00  0.00    +0.004 A 
ATOM     25  C   UNL     1      12.721   2.816  -3.076  0.00  0.00    +0.000 A 
ATOM     26  C   UNL     1      11.336   2.682  -3.148  0.00  0.00    +0.000 A 
ENDBRANCH   8   6
BRANCH  10   4
ATOM      4  O   UNL     1      14.458   5.267   2.487  0.00  0.00    -0.388 OA
ATOM     37  H   UNL     1      13.642   4.959   2.910  0.00  0.00    +0.210 HD
ENDBRANCH  10   4
BRANCH   9  12
ATOM     12  C   UNL     1      11.512   5.941   3.666  0.00  0.00    +0.118 C 
BRANCH  12   7
ATOM      7  N   UNL     1      10.276   6.334   4.325  0.00  0.00    -0.291 NA
BRANCH   7  19
ATOM     19  C   UNL     1       9.419   7.093   3.410  0.00  0.00    +0.120 C 
BRANCH  19  23
ATOM      1  F   UNL     1       7.549  11.862   5.756  0.00  0.00    -0.205 F 
ATOM     23  C   UNL     1       8.920   8.368   4.038  0.00  0.00    -0.033 A 
ATOM     27  C   UNL     1       7.616   8.800   3.793  0.00  0.00    +0.008 A 
ATOM     29  C   UNL     1       9.760   9.115   4.863  0.00  0.00    +0.008 A 
ATOM     31  C   UNL     1       7.153   9.981   4.373  0.00  0.00    +0.038 A 
ATOM     33  C   UNL     1       9.295  10.296   5.443  0.00  0.00    +0.038 A 
ATOM     35  C   UNL     1       7.993  10.728   5.198  0.00  0.00    +0.123 A 
ENDBRANCH  19  23
ENDBRANCH   7  19
BRANCH   7  20
ATOM     20  C   UNL     1       9.561   5.159   4.830  0.00  0.00    +0.120 C 
BRANCH  20  24
ATOM      2  F   UNL     1       9.373   5.080  10.461  0.00  0.00    -0.205 F 
ATOM     24  C   UNL     1       9.511   5.137   6.335  0.00  0.00    -0.033 A 
ATOM     28  C   UNL     1       9.136   6.283   7.036  0.00  0.00    +0.008 A 
ATOM     30  C   UNL     1       9.840   3.972   7.027  0.00  0.00    +0.008 A 
ATOM     32  C   UNL     1       9.090   6.265   8.430  0.00  0.00    +0.038 A 
ATOM     34  C   UNL     1       9.793   3.953   8.422  0.00  0.00    +0.038 A 
ATOM     36  C   UNL     1       9.418   5.099   9.123  0.00  0.00    +0.123 A 
ENDBRANCH  20  24
ENDBRANCH   7  20
ENDBRANCH  12   7
ENDBRANCH   9  12
BRANCH  11  15
ATOM     15  C   UNL     1      15.569   7.312   4.089  0.00  0.00    +0.190 C 
BRANCH  15   5
ATOM      5  O   UNL     1      15.042   6.578   5.183  0.00  0.00    -0.392 OA
ATOM     38  H   UNL     1      15.677   6.661   5.915  0.00  0.00    +0.210 HD
ENDBRANCH  15   5
ENDBRANCH  11  15
TORSDOF 10
ENDMDL
MODEL 2
REMARK VINA RESULT:      -6.6     23.707     26.979
REMARK  Name = 28961245
REMARK  10 active torsions:
REMARK  status: ('A' for Active; 'I' for Inactive)
REMARK    1  A    between atoms: O_4  and  C_10
REMARK    2  A    between atoms: O_5  and  C_15
REMARK    3  A    between atoms: N_6  and  C_8
REMARK    4  A    between atoms: N_7  and  C_12
REMARK    5  A    between atoms: N_7  and  C_19
REMARK    6  A    between atoms: N_7  and  C_20
REMARK    7  A    between atoms: C_9  and  C_12
REMARK    8  A    between atoms: C_11  and  C_15
REMARK    9  A    between atoms: C_19  and  C_23
REMARK   10  A    between atoms: C_20  and  C_24
REMARK                            x       y       z     vdW  Elec       q    Type
REMARK                         _______ _______ _______ _____ _____    ______ ____
ROOT
ATOM      3  O   UNL     1      -2.290 -15.246  14.571  0.00  0.00    -0.366 OA
ATOM      8  C   UNL     1      -2.571 -13.073  13.639  0.00  0.00    +0.118 C 
ATOM      9  C   UNL     1      -3.160 -14.093  14.622  0.00  0.00    +0.152 C 
ATOM     10  C   UNL     1      -1.817 -13.949  12.648  0.00  0.00    +0.165 C 
ATOM     11  C   UNL     1      -1.267 -15.020  13.582  0.00  0.00    +0.174 C 
ENDROOT
BRANCH   8   6
ATOM      6  N   UNL     1      -3.515 -12.129  13.043  0.00  0.00    -0.290 NA
ATOM     13  C   UNL     1      -3.854 -11.062  13.994  0.00  0.00    +0.090 C 
ATOM     14  C   UNL     1      -2.954 -11.552  11.809  0.00  0.00    +0.120 C 
ATOM     16  C   UNL     1      -4.994 -10.207  13.431  0.00  0.00    +0.051 C 
ATOM     17  C   UNL     1      -3.815 -10.462  11.213  0.00  0.00    -0.030 A 
ATOM     18  C   UNL     1      -4.762  -9.788  12.004  0.00  0.00    -0.042 A 
ATOM     21  C   UNL     1      -3.628 -10.074   9.879  0.00  0.00    +0.005 A 
ATOM     22  C   UNL     1      -5.532  -8.763  11.439  0.00  0.00    +0.004 A 
ATOM     25  C   UNL     1      -4.393  -9.047   9.329  0.00  0.00    +0.000 A 
ATOM     26  C   UNL     1      -5.346  -8.394  10.107  0.00  0.00    +0.000 A 
ENDBRANCH   8   6
BRANCH  10   4
ATOM      4  O   UNL     1      -2.695 -14.527  11.692  0.00  0.00    -0.388 OA
ATOM     37  H   UNL     1      -2.981 -13.852  11.059  0.00  0.00    +0.210 HD
ENDBRANCH  10   4
BRANCH   9  12
ATOM     12  C   UNL     1      -4.575 -14.581  14.334  0.00  0.00    +0.118 C 
BRANCH  12   7
ATOM      7  N   UNL     1      -5.550 -13.861  15.139  0.00  0.00    -0.291 NA
BRANCH   7  19
ATOM     19  C   UNL     1      -6.908 -14.104  14.649  0.00  0.00    +0.120 C 
BRANCH  19  23
ATOM      1  F   UNL     1      -9.137  -9.506  12.273  0.00  0.00    -0.205 F 
ATOM     23  C   UNL     1      -7.504 -12.875  14.014  0.00  0.00    -0.033 A 
ATOM     27  C   UNL     1      -7.548 -12.760  12.625  0.00  0.00    +0.008 A 
ATOM     29  C   UNL     1      -8.012 -11.853  14.815  0.00  0.00    +0.008 A 
ATOM     31  C   UNL     1      -8.099 -11.621  12.037  0.00  0.00    +0.038 A 
ATOM     33  C   UNL     1      -8.563 -10.715  14.226  0.00  0.00    +0.038 A 
ATOM     35  C   UNL     1      -8.607 -10.599  12.838  0.00  0.00    +0.123 A 
ENDBRANCH  19  23
ENDBRANCH   7  19
BRANCH   7  20
ATOM     20  C   UNL     1      -5.444 -14.247  16.549  0.00  0.00    +0.120 C 
BRANCH  20  24
ATOM      2  F   UNL     1      -6.239  -9.856  19.989  0.00  0.00    -0.205 F 
ATOM     24  C   UNL     1      -5.657 -13.073  17.468  0.00  0.00    -0.033 A 
ATOM     28  C   UNL     1      -4.694 -12.068  17.550  0.00  0.00    +0.008 A 
ATOM     30  C   UNL     1      -6.817 -12.992  18.238  0.00  0.00    +0.008 A 
ATOM     32  C   UNL     1      -4.890 -10.981  18.401  0.00  0.00    +0.038 A 
ATOM     34  C   UNL     1      -7.013 -11.904  19.090  0.00  0.00    +0.038 A 
ATOM     36  C   UNL     1      -6.050 -10.899  19.171  0.00  0.00    +0.123 A 
ENDBRANCH  20  24
ENDBRANCH   7  20
ENDBRANCH  12   7
ENDBRANCH   9  12
BRANCH  11  15
ATOM     15  C   UNL     1      -0.909 -16.339  12.923  0.00  0.00    +0.190 C 
BRANCH  15   5
ATOM      5  O   UNL     1      -0.095 -16.080  11.790  0.00  0.00    -0.392 OA
ATOM     38  H   UNL     1      -0.512 -15.352  11.297  0.00  0.00    +0.210 HD
ENDBRANCH  15   5
ENDBRANCH  11  15
TORSDOF 10
ENDMDL
MODEL 3
REMARK VINA RESULT:      -6.5      3.090      7.177
REMARK  Name = 28961245
REMARK  10 active torsions:
REMARK  status: ('A' for Active; 'I' for Inactive)
REMARK    1  A    between atoms: O_4  and  C_10
REMARK    2  A    between atoms: O_5  and  C_15
REMARK    3  A    between atoms: N_6  and  C_8
REMARK    4  A    between atoms: N_7  and  C_12
REMARK    5  A    between atoms: N_7  and  C_19
REMARK    6  A    between atoms: N_7  and  C_20
REMARK    7  A    between atoms: C_9  and  C_12
REMARK    8  A    between atoms: C_11  and  C_15
REMARK    9  A    between atoms: C_19  and  C_23
REMARK   10  A    between atoms: C_20  and  C_24
REMARK                            x       y       z     vdW  Elec       q    Type
REMARK                         _______ _______ _______ _____ _____    ______ ____
ROOT
ATOM      3  O   UNL     1      16.184   7.806   4.137  0.00  0.00    -0.366 OA
ATOM      8  C   UNL     1      14.875   7.733   6.123  0.00  0.00    +0.118 C 
ATOM      9  C   UNL     1      14.891   7.390   4.628  0.00  0.00    +0.152 C 
ATOM     10  C   UNL     1      15.871   8.880   6.222  0.00  0.00    +0.165 C 
ATOM     11  C   UNL     1      16.916   8.432   5.207  0.00  0.00    +0.174 C 
ENDROOT
BRANCH   8   6
ATOM      6  N   UNL     1      13.563   7.994   6.713  0.00  0.00    -0.290 NA
ATOM     13  C   UNL     1      12.775   8.889   5.855  0.00  0.00    +0.090 C 
ATOM     14  C   UNL     1      12.838   6.730   6.932  0.00  0.00    +0.120 C 
ATOM     16  C   UNL     1      11.497   9.315   6.584  0.00  0.00    +0.051 C 
ATOM     17  C   UNL     1      11.417   6.930   7.410  0.00  0.00    -0.030 A 
ATOM     18  C   UNL     1      10.761   8.156   7.202  0.00  0.00    -0.042 A 
ATOM     21  C   UNL     1      10.725   5.869   8.008  0.00  0.00    +0.005 A 
ATOM     22  C   UNL     1       9.436   8.312   7.629  0.00  0.00    +0.004 A 
ATOM     25  C   UNL     1       9.404   6.032   8.421  0.00  0.00    +0.000 A 
ATOM     26  C   UNL     1       8.761   7.253   8.234  0.00  0.00    +0.000 A 
ENDBRANCH   8   6
BRANCH  10   4
ATOM      4  O   UNL     1      15.286  10.112   5.822  0.00  0.00    -0.388 OA
ATOM     37  H   UNL     1      15.442  10.785   6.502  0.00  0.00    +0.210 HD
ENDBRANCH  10   4
BRANCH   9  12
ATOM     12  C   UNL     1      13.838   8.070   3.760  0.00  0.00    +0.118 C 
BRANCH  12   7
ATOM      7  N   UNL     1      13.219   7.119   2.849  0.00  0.00    -0.291 NA
BRANCH   7  19
ATOM     19  C   UNL     1      11.939   7.633   2.355  0.00  0.00    +0.120 C 
BRANCH  19  23
ATOM      1  F   UNL     1       7.607   5.828   5.474  0.00  0.00    -0.205 F 
ATOM     23  C   UNL     1      10.782   7.150   3.189  0.00  0.00    -0.033 A 
ATOM     27  C   UNL     1       9.657   7.958   3.354  0.00  0.00    +0.008 A 
ATOM     29  C   UNL     1      10.834   5.895   3.795  0.00  0.00    +0.008 A 
ATOM     31  C   UNL     1       8.585   7.512   4.126  0.00  0.00    +0.038 A 
ATOM     33  C   UNL     1       9.761   5.449   4.567  0.00  0.00    +0.038 A 
ATOM     35  C   UNL     1       8.637   6.257   4.732  0.00  0.00    +0.123 A 
ENDBRANCH  19  23
ENDBRANCH   7  19
BRANCH   7  20
ATOM     20  C   UNL     1      14.112   6.820   1.726  0.00  0.00    +0.120 C 
BRANCH  20  24
ATOM      2  F   UNL     1      12.555   2.141  -0.999  0.00  0.00    -0.205 F 
ATOM     24  C   UNL     1      13.696   5.570   0.997  0.00  0.00    -0.033 A 
ATOM     28  C   UNL     1      13.525   4.377   1.701  0.00  0.00    +0.008 A 
ATOM     30  C   UNL     1      13.481   5.604  -0.380  0.00  0.00    +0.008 A 
ATOM     32  C   UNL     1      13.140   3.219   1.027  0.00  0.00    +0.038 A 
ATOM     34  C   UNL     1      13.096   4.444  -1.054  0.00  0.00    +0.038 A 
ATOM     36  C   UNL     1      12.925   3.252  -0.351  0.00  0.00    +0.123 A 
ENDBRANCH  20  24
ENDBRANCH   7  20
ENDBRANCH  12   7
ENDBRANCH   9  12
BRANCH  11  15
ATOM     15  C   UNL     1      17.787   9.536   4.639  0.00  0.00    +0.190 C 
BRANCH  15   5
ATOM      5  O   UNL     1      17.105  10.147   3.554  0.00  0.00    -0.392 OA
ATOM     38  H   UNL     1      17.478  11.038   3.446  0.00  0.00    +0.210 HD
ENDBRANCH  15   5
ENDBRANCH  11  15
TORSDOF 10
ENDMDL
MODEL 4
REMARK VINA RESULT:      -6.5      3.789      8.101
REMARK  Name = 28961245
REMARK  10 active torsions:
REMARK  status: ('A' for Active; 'I' for Inactive)
REMARK    1  A    between atoms: O_4  and  C_10
REMARK    2  A    between atoms: O_5  and  C_15
REMARK    3  A    between atoms: N_6  and  C_8
REMARK    4  A    between atoms: N_7  and  C_12
REMARK    5  A    between atoms: N_7  and  C_19
REMARK    6  A    between atoms: N_7  and  C_20
REMARK    7  A    between atoms: C_9  and  C_12
REMARK    8  A    between atoms: C_11  and  C_15
REMARK    9  A    between atoms: C_19  and  C_23
REMARK   10  A    between atoms: C_20  and  C_24
REMARK                            x       y       z     vdW  Elec       q    Type
REMARK                         _______ _______ _______ _____ _____    ______ ____
ROOT
ATOM      3  O   UNL     1       9.659   6.044   5.073  0.00  0.00    -0.366 OA
ATOM      8  C   UNL     1      11.679   7.282   4.842  0.00  0.00    +0.118 C 
ATOM      9  C   UNL     1      10.727   6.308   4.136  0.00  0.00    +0.152 C 
ATOM     10  C   UNL     1      11.438   6.989   6.316  0.00  0.00    +0.165 C 
ATOM     11  C   UNL     1       9.936   6.731   6.308  0.00  0.00    +0.174 C 
ENDROOT
BRANCH   8   6
ATOM      6  N   UNL     1      13.078   7.239   4.419  0.00  0.00    -0.290 NA
ATOM     13  C   UNL     1      13.227   7.769   3.057  0.00  0.00    +0.090 C 
ATOM     14  C   UNL     1      13.921   8.003   5.357  0.00  0.00    +0.120 C 
ATOM     16  C   UNL     1      14.655   7.524   2.558  0.00  0.00    +0.051 C 
ATOM     17  C   UNL     1      15.360   8.121   4.908  0.00  0.00    -0.030 A 
ATOM     18  C   UNL     1      15.703   7.934   3.557  0.00  0.00    -0.042 A 
ATOM     21  C   UNL     1      16.353   8.479   5.829  0.00  0.00    +0.005 A 
ATOM     22  C   UNL     1      17.038   8.074   3.157  0.00  0.00    +0.004 A 
ATOM     25  C   UNL     1      17.677   8.624   5.419  0.00  0.00    +0.000 A 
ATOM     26  C   UNL     1      18.020   8.420   4.085  0.00  0.00    +0.000 A 
ENDBRANCH   8   6
BRANCH  10   4
ATOM      4  O   UNL     1      12.139   5.827   6.737  0.00  0.00    -0.388 OA
ATOM     37  H   UNL     1      11.543   5.246   7.233  0.00  0.00    +0.210 HD
ENDBRANCH  10   4
BRANCH   9  12
ATOM     12  C   UNL     1      11.310   4.961   3.723  0.00  0.00    +0.118 C 
BRANCH  12   7
ATOM      7  N   UNL     1      11.448   4.874   2.278  0.00  0.00    -0.291 NA
BRANCH   7  19
ATOM     19  C   UNL     1      11.989   3.569   1.887  0.00  0.00    +0.120 C 
BRANCH  19  23
ATOM      1  F   UNL     1      16.708   4.079  -1.150  0.00  0.00    -0.205 F 
ATOM     23  C   UNL     1      13.250   3.706   1.076  0.00  0.00    -0.033 A 
ATOM     27  C   UNL     1      13.177   3.832  -0.311  0.00  0.00    +0.008 A 
ATOM     29  C   UNL     1      14.492   3.705   1.711  0.00  0.00    +0.008 A 
ATOM     31  C   UNL     1      14.344   3.958  -1.063  0.00  0.00    +0.038 A 
ATOM     33  C   UNL     1      15.660   3.832   0.958  0.00  0.00    +0.038 A 
ATOM     35  C   UNL     1      15.586   3.957  -0.428  0.00  0.00    +0.123 A 
ENDBRANCH  19  23
ENDBRANCH   7  19
BRANCH   7  20
ATOM     20  C   UNL     1      10.160   5.105   1.618  0.00  0.00    +0.120 C 
BRANCH  20  24
ATOM      2  F   UNL     1      10.797   7.445  -3.468  0.00  0.00    -0.205 F 
ATOM     24  C   UNL     1      10.330   5.730   0.259  0.00  0.00    -0.033 A 
ATOM     28  C   UNL     1       9.794   5.107  -0.867  0.00  0.00    +0.008 A 
ATOM     30  C   UNL     1      11.025   6.933   0.127  0.00  0.00    +0.008 A 
ATOM     32  C   UNL     1       9.951   5.685  -2.126  0.00  0.00    +0.038 A 
ATOM     34  C   UNL     1      11.182   7.512  -1.133  0.00  0.00    +0.038 A 
ATOM     36  C   UNL     1      10.645   6.888  -2.260  0.00  0.00    +0.123 A 
ENDBRANCH  20  24
ENDBRANCH   7  20
ENDBRANCH  12   7
ENDBRANCH   9  12
BRANCH  11  15
ATOM     15  C   UNL     1       9.410   5.906   7.468  0.00  0.00    +0.190 C 
BRANCH  15   5
ATOM      5  O   UNL     1       9.801   4.554   7.284  0.00  0.00    -0.392 OA
ATOM     38  H   UNL     1      10.768   4.547   7.179  0.00  0.00    +0.210 HD
ENDBRANCH  15   5
ENDBRANCH  11  15
TORSDOF 10
ENDMDL
MODEL 5
REMARK VINA RESULT:      -6.5     23.714     27.950
REMARK  Name = 28961245
REMARK  10 active torsions:
REMARK  status: ('A' for Active; 'I' for Inactive)
REMARK    1  A    between atoms: O_4  and  C_10
REMARK    2  A    between atoms: O_5  and  C_15
REMARK    3  A    between atoms: N_6  and  C_8
REMARK    4  A    between atoms: N_7  and  C_12
REMARK    5  A    between atoms: N_7  and  C_19
REMARK    6  A    between atoms: N_7  and  C_20
REMARK    7  A    between atoms: C_9  and  C_12
REMARK    8  A    between atoms: C_11  and  C_15
REMARK    9  A    between atoms: C_19  and  C_23
REMARK   10  A    between atoms: C_20  and  C_24
REMARK                            x       y       z     vdW  Elec       q    Type
REMARK                         _______ _______ _______ _____ _____    ______ ____
ROOT
ATOM      3  O   UNL     1      -4.069 -12.287  16.004  0.00  0.00    -0.366 OA
ATOM      8  C   UNL     1      -6.073 -11.355  16.888  0.00  0.00    +0.118 C 
ATOM      9  C   UNL     1      -5.499 -12.490  16.031  0.00  0.00    +0.152 C 
ATOM     10  C   UNL     1      -5.033 -10.254  16.740  0.00  0.00    +0.165 C 
ATOM     11  C   UNL     1      -3.751 -11.079  16.722  0.00  0.00    +0.174 C 
ENDROOT
BRANCH   8   6
ATOM      6  N   UNL     1      -7.448 -10.956  16.596  0.00  0.00    -0.290 NA
ATOM     13  C   UNL     1      -8.400 -11.948  17.114  0.00  0.00    +0.090 C 
ATOM     14  C   UNL     1      -7.732  -9.630  17.172  0.00  0.00    +0.120 C 
ATOM     16  C   UNL     1      -9.813 -11.621  16.620  0.00  0.00    +0.051 C 
ATOM     17  C   UNL     1      -9.178  -9.212  17.031  0.00  0.00    -0.030 A 
ATOM     18  C   UNL     1     -10.180 -10.173  16.810  0.00  0.00    -0.042 A 
ATOM     21  C   UNL     1      -9.534  -7.865  17.182  0.00  0.00    +0.005 A 
ATOM     22  C   UNL     1     -11.516  -9.768  16.708  0.00  0.00    +0.004 A 
ATOM     25  C   UNL     1     -10.869  -7.474  17.088  0.00  0.00    +0.000 A 
ATOM     26  C   UNL     1     -11.859  -8.424  16.849  0.00  0.00    +0.000 A 
ENDBRANCH   8   6
BRANCH  10   4
ATOM      4  O   UNL     1      -5.188  -9.553  15.513  0.00  0.00    -0.388 OA
ATOM     37  H   UNL     1      -4.323  -9.254  15.194  0.00  0.00    +0.210 HD
ENDBRANCH  10   4
BRANCH   9  12
ATOM     12  C   UNL     1      -5.973 -12.560  14.583  0.00  0.00    +0.118 C 
BRANCH  12   7
ATOM      7  N   UNL     1      -4.917 -13.053  13.712  0.00  0.00    -0.291 NA
BRANCH   7  19
ATOM     19  C   UNL     1      -4.868 -14.517  13.734  0.00  0.00    +0.120 C 
BRANCH  19  23
ATOM      1  F   UNL     1       0.043 -16.484  11.793  0.00  0.00    -0.205 F 
ATOM     23  C   UNL     1      -3.555 -15.043  13.216  0.00  0.00    -0.033 A 
ATOM     27  C   UNL     1      -3.487 -15.618  11.947  0.00  0.00    +0.008 A 
ATOM     29  C   UNL     1      -2.408 -14.954  14.004  0.00  0.00    +0.008 A 
ATOM     31  C   UNL     1      -2.272 -16.105  11.467  0.00  0.00    +0.038 A 
ATOM     33  C   UNL     1      -1.193 -15.441  13.522  0.00  0.00    +0.038 A 
ATOM     35  C   UNL     1      -1.125 -16.016  12.255  0.00  0.00    +0.123 A 
ENDBRANCH  19  23
ENDBRANCH   7  19
BRANCH   7  20
ATOM     20  C   UNL     1      -5.110 -12.574  12.341  0.00  0.00    +0.120 C 
BRANCH  20  24
ATOM      2  F   UNL     1      -1.157  -8.849  10.845  0.00  0.00    -0.205 F 
ATOM     24  C   UNL     1      -4.054 -11.579  11.941  0.00  0.00    -0.033 A 
ATOM     28  C   UNL     1      -2.812 -11.588  12.575  0.00  0.00    +0.008 A 
ATOM     30  C   UNL     1      -4.317 -10.648  10.936  0.00  0.00    +0.008 A 
ATOM     32  C   UNL     1      -1.833 -10.666  12.206  0.00  0.00    +0.038 A 
ATOM     34  C   UNL     1      -3.338  -9.725  10.566  0.00  0.00    +0.038 A 
ATOM     36  C   UNL     1      -2.096  -9.734  11.201  0.00  0.00    +0.123 A 
ENDBRANCH  20  24
ENDBRANCH   7  20
ENDBRANCH  12   7
ENDBRANCH   9  12
BRANCH  11  15
ATOM     15  C   UNL     1      -2.554 -10.412  16.072  0.00  0.00    +0.190 C 
BRANCH  15   5
ATOM      5  O   UNL     1      -1.370 -11.047  16.528  0.00  0.00    -0.392 OA
ATOM     38  H   UNL     1      -0.749 -11.065  15.781  0.00  0.00    +0.210 HD
ENDBRANCH  15   5
ENDBRANCH  11  15
TORSDOF 10
ENDMDL
MODEL 6
REMARK VINA RESULT:      -6.4      3.420      5.812
REMARK  Name = 28961245
REMARK  10 active torsions:
REMARK  status: ('A' for Active; 'I' for Inactive)
REMARK    1  A    between atoms: O_4  and  C_10
REMARK    2  A    between atoms: O_5  and  C_15
REMARK    3  A    between atoms: N_6  and  C_8
REMARK    4  A    between atoms: N_7  and  C_12
REMARK    5  A    between atoms: N_7  and  C_19
REMARK    6  A    between atoms: N_7  and  C_20
REMARK    7  A    between atoms: C_9  and  C_12
REMARK    8  A    between atoms: C_11  and  C_15
REMARK    9  A    between atoms: C_19  and  C_23
REMARK   10  A    between atoms: C_20  and  C_24
REMARK                            x       y       z     vdW  Elec       q    Type
REMARK                         _______ _______ _______ _____ _____    ______ ____
ROOT
ATOM      3  O   UNL     1      13.291   8.178   5.287  0.00  0.00    -0.366 OA
ATOM      8  C   UNL     1      13.934   8.038   2.999  0.00  0.00    +0.118 C 
ATOM      9  C   UNL     1      12.756   7.907   3.972  0.00  0.00    +0.152 C 
ATOM     10  C   UNL     1      15.139   7.731   3.877  0.00  0.00    +0.165 C 
ATOM     11  C   UNL     1      14.712   8.392   5.182  0.00  0.00    +0.174 C 
ENDROOT
BRANCH   8   6
ATOM      6  N   UNL     1      13.845   7.256   1.767  0.00  0.00    -0.290 NA
ATOM     13  C   UNL     1      13.264   8.057   0.682  0.00  0.00    +0.090 C 
ATOM     14  C   UNL     1      15.177   6.760   1.376  0.00  0.00    +0.120 C 
ATOM     16  C   UNL     1      12.988   7.165  -0.533  0.00  0.00    +0.051 C 
ATOM     17  C   UNL     1      15.186   6.060   0.036  0.00  0.00    -0.030 A 
ATOM     18  C   UNL     1      14.157   6.290  -0.895  0.00  0.00    -0.042 A 
ATOM     21  C   UNL     1      16.256   5.224  -0.309  0.00  0.00    +0.005 A 
ATOM     22  C   UNL     1      14.198   5.653  -2.141  0.00  0.00    +0.004 A 
ATOM     25  C   UNL     1      16.291   4.602  -1.556  0.00  0.00    +0.000 A 
ATOM     26  C   UNL     1      15.262   4.814  -2.470  0.00  0.00    +0.000 A 
ENDBRANCH   8   6
BRANCH  10   4
ATOM      4  O   UNL     1      15.305   6.331   4.062  0.00  0.00    -0.388 OA
ATOM     37  H   UNL     1      14.481   5.944   4.392  0.00  0.00    +0.210 HD
ENDBRANCH  10   4
BRANCH   9  12
ATOM     12  C   UNL     1      12.069   6.548   4.036  0.00  0.00    +0.118 C 
BRANCH  12   7
ATOM      7  N   UNL     1      10.929   6.497   3.133  0.00  0.00    -0.291 NA
BRANCH   7  19
ATOM     19  C   UNL     1      10.477   5.116   2.947  0.00  0.00    +0.120 C 
BRANCH  19  23
ATOM      1  F   UNL     1      12.976   2.671  -1.472  0.00  0.00    -0.205 F 
ATOM     23  C   UNL     1      11.145   4.462   1.766  0.00  0.00    -0.033 A 
ATOM     27  C   UNL     1      10.555   4.532   0.504  0.00  0.00    +0.008 A 
ATOM     29  C   UNL     1      12.354   3.788   1.934  0.00  0.00    +0.008 A 
ATOM     31  C   UNL     1      11.173   3.926  -0.590  0.00  0.00    +0.038 A 
ATOM     33  C   UNL     1      12.973   3.183   0.839  0.00  0.00    +0.038 A 
ATOM     35  C   UNL     1      12.382   3.252  -0.422  0.00  0.00    +0.123 A 
ENDBRANCH  19  23
ENDBRANCH   7  19
BRANCH   7  20
ATOM     20  C   UNL     1       9.830   7.324   3.639  0.00  0.00    +0.120 C 
BRANCH  20  24
ATOM      2  F   UNL     1       7.165  10.041  -0.515  0.00  0.00    -0.205 F 
ATOM     24  C   UNL     1       9.118   8.050   2.529  0.00  0.00    -0.033 A 
ATOM     28  C   UNL     1       7.927   8.728   2.790  0.00  0.00    +0.008 A 
ATOM     30  C   UNL     1       9.649   8.045   1.239  0.00  0.00    +0.008 A 
ATOM     32  C   UNL     1       7.267   9.401   1.763  0.00  0.00    +0.038 A 
ATOM     34  C   UNL     1       8.988   8.718   0.211  0.00  0.00    +0.038 A 
ATOM     36  C   UNL     1       7.797   9.396   0.472  0.00  0.00    +0.123 A 
ENDBRANCH  20  24
ENDBRANCH   7  20
ENDBRANCH  12   7
ENDBRANCH   9  12
BRANCH  11  15
ATOM     15  C   UNL     1      15.391   7.866   6.432  0.00  0.00    +0.190 C 
BRANCH  15   5
ATOM      5  O   UNL     1      14.567   6.871   7.018  0.00  0.00    -0.392 OA
ATOM     38  H   UNL     1      14.000   6.516   6.313  0.00  0.00    +0.210 HD
ENDBRANCH  15   5
ENDBRANCH  11  15
TORSDOF 10
ENDMDL
MODEL 7
REMARK VINA RESULT:      -6.4     30.937     35.356
REMARK  Name = 28961245
REMARK  10 active torsions:
REMARK  status: ('A' for Active; 'I' for Inactive)
REMARK    1  A    between atoms: O_4  and  C_10
REMARK    2  A    between atoms: O_5  and  C_15
REMARK    3  A    between atoms: N_6  and  C_8
REMARK    4  A    between atoms: N_7  and  C_12
REMARK    5  A    between atoms: N_7  and  C_19
REMARK    6  A    between atoms: N_7  and  C_20
REMARK    7  A    between atoms: C_9  and  C_12
REMARK    8  A    between atoms: C_11  and  C_15
REMARK    9  A    between atoms: C_19  and  C_23
REMARK   10  A    between atoms: C_20  and  C_24
REMARK                            x       y       z     vdW  Elec       q    Type
REMARK                         _______ _______ _______ _____ _____    ______ ____
ROOT
ATOM      3  O   UNL     1     -18.313   1.839  23.187  0.00  0.00    -0.366 OA
ATOM      8  C   UNL     1     -17.990   2.099  25.531  0.00  0.00    +0.118 C 
ATOM      9  C   UNL     1     -17.719   2.729  24.159  0.00  0.00    +0.152 C 
ATOM     10  C   UNL     1     -18.131   0.618  25.206  0.00  0.00    +0.165 C 
ATOM     11  C   UNL     1     -18.856   0.692  23.868  0.00  0.00    +0.174 C 
ENDROOT
BRANCH   8   6
ATOM      6  N   UNL     1     -17.033   2.416  26.589  0.00  0.00    -0.290 NA
ATOM     13  C   UNL     1     -17.326   3.728  27.181  0.00  0.00    +0.090 C 
ATOM     14  C   UNL     1     -17.053   1.373  27.629  0.00  0.00    +0.120 C 
ATOM     16  C   UNL     1     -16.198   4.133  28.134  0.00  0.00    +0.051 C 
ATOM     17  C   UNL     1     -16.189   1.704  28.826  0.00  0.00    -0.030 A 
ATOM     18  C   UNL     1     -15.816   3.034  29.090  0.00  0.00    -0.042 A 
ATOM     21  C   UNL     1     -15.806   0.690  29.713  0.00  0.00    +0.005 A 
ATOM     22  C   UNL     1     -15.038   3.323  30.218  0.00  0.00    +0.004 A 
ATOM     25  C   UNL     1     -15.038   0.990  30.838  0.00  0.00    +0.000 A 
ATOM     26  C   UNL     1     -14.653   2.304  31.089  0.00  0.00    +0.000 A 
ENDBRANCH   8   6
BRANCH  10   4
ATOM      4  O   UNL     1     -16.862  -0.003  25.050  0.00  0.00    -0.388 OA
ATOM     37  H   UNL     1     -16.537   0.137  24.148  0.00  0.00    +0.210 HD
ENDBRANCH  10   4
BRANCH   9  12
ATOM     12  C   UNL     1     -16.258   2.915  23.769  0.00  0.00    +0.118 C 
BRANCH  12   7
ATOM      7  N   UNL     1     -16.076   4.133  22.994  0.00  0.00    -0.291 NA
BRANCH   7  19
ATOM     19  C   UNL     1     -17.370   4.695  22.600  0.00  0.00    +0.120 C 
BRANCH  19  23
ATOM      1  F   UNL     1     -17.896   5.026  16.999  0.00  0.00    -0.205 F 
ATOM     23  C   UNL     1     -17.511   4.783  21.103  0.00  0.00    -0.033 A 
ATOM     27  C   UNL     1     -18.341   3.890  20.426  0.00  0.00    +0.008 A 
ATOM     29  C   UNL     1     -16.811   5.759  20.393  0.00  0.00    +0.008 A 
ATOM     31  C   UNL     1     -18.471   3.972  19.040  0.00  0.00    +0.038 A 
ATOM     33  C   UNL     1     -16.941   5.841  19.007  0.00  0.00    +0.038 A 
ATOM     35  C   UNL     1     -17.771   4.947  18.331  0.00  0.00    +0.123 A 
ENDBRANCH  19  23
ENDBRANCH   7  19
BRANCH   7  20
ATOM     20  C   UNL     1     -15.306   5.122  23.754  0.00  0.00    +0.120 C 
BRANCH  20  24
ATOM      2  F   UNL     1     -12.107   8.321  20.396  0.00  0.00    -0.205 F 
ATOM     24  C   UNL     1     -14.452   5.977  22.857  0.00  0.00    -0.033 A 
ATOM     28  C   UNL     1     -13.442   5.393  22.093  0.00  0.00    +0.008 A 
ATOM     30  C   UNL     1     -14.670   7.353  22.790  0.00  0.00    +0.008 A 
ATOM     32  C   UNL     1     -12.649   6.184  21.262  0.00  0.00    +0.038 A 
ATOM     34  C   UNL     1     -13.877   8.145  21.958  0.00  0.00    +0.038 A 
ATOM     36  C   UNL     1     -12.867   7.560  21.194  0.00  0.00    +0.123 A 
ENDBRANCH  20  24
ENDBRANCH   7  20
ENDBRANCH  12   7
ENDBRANCH   9  12
BRANCH  11  15
ATOM     15  C   UNL     1     -18.713  -0.530  22.981  0.00  0.00    +0.190 C 
BRANCH  15   5
ATOM      5  O   UNL     1     -18.727  -1.693  23.795  0.00  0.00    -0.392 OA
ATOM     38  H   UNL     1     -17.880  -2.150  23.655  0.00  0.00    +0.210 HD
ENDBRANCH  15   5
ENDBRANCH  11  15
TORSDOF 10
ENDMDL
MODEL 8
REMARK VINA RESULT:      -6.4     24.231     26.409
REMARK  Name = 28961245
REMARK  10 active torsions:
REMARK  status: ('A' for Active; 'I' for Inactive)
REMARK    1  A    between atoms: O_4  and  C_10
REMARK    2  A    between atoms: O_5  and  C_15
REMARK    3  A    between atoms: N_6  and  C_8
REMARK    4  A    between atoms: N_7  and  C_12
REMARK    5  A    between atoms: N_7  and  C_19
REMARK    6  A    between atoms: N_7  and  C_20
REMARK    7  A    between atoms: C_9  and  C_12
REMARK    8  A    between atoms: C_11  and  C_15
REMARK    9  A    between atoms: C_19  and  C_23
REMARK   10  A    between atoms: C_20  and  C_24
REMARK                            x       y       z     vdW  Elec       q    Type
REMARK                         _______ _______ _______ _____ _____    ______ ____
ROOT
ATOM      3  O   UNL     1      -3.111 -11.407  14.258  0.00  0.00    -0.366 OA
ATOM      8  C   UNL     1      -3.642 -10.413  12.162  0.00  0.00    +0.118 C 
ATOM      9  C   UNL     1      -4.165 -10.692  13.576  0.00  0.00    +0.152 C 
ATOM     10  C   UNL     1      -2.631 -11.530  11.944  0.00  0.00    +0.165 C 
ATOM     11  C   UNL     1      -2.026 -11.637  13.339  0.00  0.00    +0.174 C 
ENDROOT
BRANCH   8   6
ATOM      6  N   UNL     1      -4.652 -10.274  11.114  0.00  0.00    -0.290 NA
ATOM     13  C   UNL     1      -5.257  -8.936  11.149  0.00  0.00    +0.090 C 
ATOM     14  C   UNL     1      -4.057 -10.530   9.791  0.00  0.00    +0.120 C 
ATOM     16  C   UNL     1      -6.449  -8.880  10.188  0.00  0.00    +0.051 C 
ATOM     17  C   UNL     1      -5.009 -10.267   8.646  0.00  0.00    -0.030 A 
ATOM     18  C   UNL     1      -6.132  -9.440   8.827  0.00  0.00    -0.042 A 
ATOM     21  C   UNL     1      -4.741 -10.799   7.377  0.00  0.00    +0.005 A 
ATOM     22  C   UNL     1      -6.987  -9.188   7.747  0.00  0.00    +0.004 A 
ATOM     25  C   UNL     1      -5.594 -10.535   6.307  0.00  0.00    +0.000 A 
ATOM     26  C   UNL     1      -6.717  -9.732   6.492  0.00  0.00    +0.000 A 
ENDBRANCH   8   6
BRANCH  10   4
ATOM      4  O   UNL     1      -3.270 -12.748  11.586  0.00  0.00    -0.388 OA
ATOM     37  H   UNL     1      -4.004 -12.925  12.193  0.00  0.00    +0.210 HD
ENDBRANCH  10   4
BRANCH   9  12
ATOM     12  C   UNL     1      -5.428 -11.539  13.683  0.00  0.00    +0.118 C 
BRANCH  12   7
ATOM      7  N   UNL     1      -6.402 -10.914  14.565  0.00  0.00    -0.291 NA
BRANCH   7  19
ATOM     19  C   UNL     1      -5.762  -9.901  15.409  0.00  0.00    +0.120 C 
BRANCH  19  23
ATOM      1  F   UNL     1      -5.739 -11.403  20.840  0.00  0.00    -0.205 F 
ATOM     23  C   UNL     1      -5.756 -10.302  16.860  0.00  0.00    -0.033 A 
ATOM     27  C   UNL     1      -4.661 -10.985  17.390  0.00  0.00    +0.008 A 
ATOM     29  C   UNL     1      -6.845  -9.991  17.675  0.00  0.00    +0.008 A 
ATOM     31  C   UNL     1      -4.656 -11.358  18.734  0.00  0.00    +0.038 A 
ATOM     33  C   UNL     1      -6.838 -10.363  19.019  0.00  0.00    +0.038 A 
ATOM     35  C   UNL     1      -5.744 -11.046  19.548  0.00  0.00    +0.123 A 
ENDBRANCH  19  23
ENDBRANCH   7  19
BRANCH   7  20
ATOM     20  C   UNL     1      -7.492 -10.312  13.792  0.00  0.00    +0.120 C 
BRANCH  20  24
ATOM      2  F   UNL     1     -12.235  -9.919  16.808  0.00  0.00    -0.205 F 
ATOM     24  C   UNL     1      -8.759 -10.207  14.598  0.00  0.00    -0.033 A 
ATOM     28  C   UNL     1      -9.310 -11.347  15.183  0.00  0.00    +0.008 A 
ATOM     30  C   UNL     1      -9.382  -8.969  14.759  0.00  0.00    +0.008 A 
ATOM     32  C   UNL     1     -10.484 -11.250  15.929  0.00  0.00    +0.038 A 
ATOM     34  C   UNL     1     -10.557  -8.873  15.506  0.00  0.00    +0.038 A 
ATOM     36  C   UNL     1     -11.108 -10.013  16.091  0.00  0.00    +0.123 A 
ENDBRANCH  20  24
ENDBRANCH   7  20
ENDBRANCH  12   7
ENDBRANCH   9  12
BRANCH  11  15
ATOM     15  C   UNL     1      -1.368 -12.965  13.664  0.00  0.00    +0.190 C 
BRANCH  15   5
ATOM      5  O   UNL     1      -2.253 -13.733  14.465  0.00  0.00    -0.392 OA
ATOM     38  H   UNL     1      -2.756 -13.109  15.016  0.00  0.00    +0.210 HD
ENDBRANCH  15   5
ENDBRANCH  11  15
TORSDOF 10
ENDMDL
MODEL 9
REMARK VINA RESULT:      -6.4     24.989     28.393
REMARK  Name = 28961245
REMARK  10 active torsions:
REMARK  status: ('A' for Active; 'I' for Inactive)
REMARK    1  A    between atoms: O_4  and  C_10
REMARK    2  A    between atoms: O_5  and  C_15
REMARK    3  A    between atoms: N_6  and  C_8
REMARK    4  A    between atoms: N_7  and  C_12
REMARK    5  A    between atoms: N_7  and  C_19
REMARK    6  A    between atoms: N_7  and  C_20
REMARK    7  A    between atoms: C_9  and  C_12
REMARK    8  A    between atoms: C_11  and  C_15
REMARK    9  A    between atoms: C_19  and  C_23
REMARK   10  A    between atoms: C_20  and  C_24
REMARK                            x       y       z     vdW  Elec       q    Type
REMARK                         _______ _______ _______ _____ _____    ______ ____
ROOT
ATOM      3  O   UNL     1      -5.659 -10.759  18.501  0.00  0.00    -0.366 OA
ATOM      8  C   UNL     1      -4.935 -10.392  16.264  0.00  0.00    +0.118 C 
ATOM      9  C   UNL     1      -6.147 -10.351  17.204  0.00  0.00    +0.152 C 
ATOM     10  C   UNL     1      -4.026 -11.421  16.921  0.00  0.00    +0.165 C 
ATOM     11  C   UNL     1      -4.266 -11.108  18.393  0.00  0.00    +0.174 C 
ENDROOT
BRANCH   8   6
ATOM      6  N   UNL     1      -5.222 -10.627  14.850  0.00  0.00    -0.290 NA
ATOM     13  C   UNL     1      -6.121  -9.592  14.322  0.00  0.00    +0.090 C 
ATOM     14  C   UNL     1      -3.971 -10.659  14.071  0.00  0.00    +0.120 C 
ATOM     16  C   UNL     1      -6.574  -9.969  12.907  0.00  0.00    +0.051 C 
ATOM     17  C   UNL     1      -4.197 -10.757  12.579  0.00  0.00    -0.030 A 
ATOM     18  C   UNL     1      -5.432 -10.385  12.018  0.00  0.00    -0.042 A 
ATOM     21  C   UNL     1      -3.152 -11.164  11.739  0.00  0.00    +0.005 A 
ATOM     22  C   UNL     1      -5.612 -10.459  10.632  0.00  0.00    +0.004 A 
ATOM     25  C   UNL     1      -3.340 -11.226  10.359  0.00  0.00    +0.000 A 
ATOM     26  C   UNL     1      -4.569 -10.875   9.806  0.00  0.00    +0.000 A 
ENDBRANCH   8   6
BRANCH  10   4
ATOM      4  O   UNL     1      -4.441 -12.748  16.622  0.00  0.00    -0.388 OA
ATOM     37  H   UNL     1      -3.665 -13.305  16.460  0.00  0.00    +0.210 HD
ENDBRANCH  10   4
BRANCH   9  12
ATOM     12  C   UNL     1      -7.316 -11.264  16.852  0.00  0.00    +0.118 C 
BRANCH  12   7
ATOM      7  N   UNL     1      -8.582 -10.663  17.242  0.00  0.00    -0.291 NA
BRANCH   7  19
ATOM     19  C   UNL     1      -9.025 -11.182  18.539  0.00  0.00    +0.120 C 
BRANCH  19  23
ATOM      1  F   UNL     1     -14.429  -9.954  19.557  0.00  0.00    -0.205 F 
ATOM     23  C   UNL     1     -10.469 -10.854  18.811  0.00  0.00    -0.033 A 
ATOM     27  C   UNL     1     -11.447 -11.179  17.871  0.00  0.00    +0.008 A 
ATOM     29  C   UNL     1     -10.828 -10.225  20.003  0.00  0.00    +0.008 A 
ATOM     31  C   UNL     1     -12.784 -10.875  18.123  0.00  0.00    +0.038 A 
ATOM     33  C   UNL     1     -12.167  -9.922  20.254  0.00  0.00    +0.038 A 
ATOM     35  C   UNL     1     -13.144 -10.246  19.314  0.00  0.00    +0.123 A 
ENDBRANCH  19  23
ENDBRANCH   7  19
BRANCH   7  20
ATOM     20  C   UNL     1      -8.470  -9.203  17.294  0.00  0.00    +0.120 C 
BRANCH  20  24
ATOM      2  F   UNL     1     -12.553  -6.679  14.345  0.00  0.00    -0.205 F 
ATOM     24  C   UNL     1      -9.561  -8.528  16.507  0.00  0.00    -0.033 A 
ATOM     28  C   UNL     1      -9.821  -8.925  15.195  0.00  0.00    +0.008 A 
ATOM     30  C   UNL     1     -10.312  -7.507  17.088  0.00  0.00    +0.008 A 
ATOM     32  C   UNL     1     -10.831  -8.300  14.464  0.00  0.00    +0.038 A 
ATOM     34  C   UNL     1     -11.323  -6.882  16.357  0.00  0.00    +0.038 A 
ATOM     36  C   UNL     1     -11.583  -7.279  15.045  0.00  0.00    +0.123 A 
ENDBRANCH  20  24
ENDBRANCH   7  20
ENDBRANCH  12   7
ENDBRANCH   9  12
BRANCH  11  15
ATOM     15  C   UNL     1      -3.955 -12.236  19.359  0.00  0.00    +0.190 C 
BRANCH  15   5
ATOM      5  O   UNL     1      -2.582 -12.172  19.713  0.00  0.00    -0.392 OA
ATOM     38  H   UNL     1      -2.105 -11.811  18.947  0.00  0.00    +0.210 HD
ENDBRANCH  15   5
ENDBRANCH  11  15
TORSDOF 10
ENDMDL
MODEL 10
REMARK VINA RESULT:      -6.3      2.979      4.903
REMARK  Name = 28961245
REMARK  10 active torsions:
REMARK  status: ('A' for Active; 'I' for Inactive)
REMARK    1  A    between atoms: O_4  and  C_10
REMARK    2  A    between atoms: O_5  and  C_15
REMARK    3  A    between atoms: N_6  and  C_8
REMARK    4  A    between atoms: N_7  and  C_12
REMARK    5  A    between atoms: N_7  and  C_19
REMARK    6  A    between atoms: N_7  and  C_20
REMARK    7  A    between atoms: C_9  and  C_12
REMARK    8  A    between atoms: C_11  and  C_15
REMARK    9  A    between atoms: C_19  and  C_23
REMARK   10  A    between atoms: C_20  and  C_24
REMARK                            x       y       z     vdW  Elec       q    Type
REMARK                         _______ _______ _______ _____ _____    ______ ____
ROOT
ATOM      3  O   UNL     1       8.200   9.737   3.189  0.00  0.00    -0.366 OA
ATOM      8  C   UNL     1       8.997   7.701   2.248  0.00  0.00    +0.118 C 
ATOM      9  C   UNL     1       8.901   8.524   3.540  0.00  0.00    +0.152 C 
ATOM     10  C   UNL     1       8.934   8.764   1.161  0.00  0.00    +0.165 C 
ATOM     11  C   UNL     1       7.932   9.735   1.774  0.00  0.00    +0.174 C 
ENDROOT
BRANCH   8   6
ATOM      6  N   UNL     1      10.127   6.778   2.153  0.00  0.00    -0.290 NA
ATOM     13  C   UNL     1       9.996   5.692   3.133  0.00  0.00    +0.090 C 
ATOM     14  C   UNL     1      10.223   6.225   0.790  0.00  0.00    +0.120 C 
ATOM     16  C   UNL     1      11.281   4.858   3.160  0.00  0.00    +0.051 C 
ATOM     17  C   UNL     1      11.283   5.155   0.652  0.00  0.00    -0.030 A 
ATOM     18  C   UNL     1      11.757   4.471   1.785  0.00  0.00    -0.042 A 
ATOM     21  C   UNL     1      11.754   4.798  -0.618  0.00  0.00    +0.005 A 
ATOM     22  C   UNL     1      12.719   3.465   1.633  0.00  0.00    +0.004 A 
ATOM     25  C   UNL     1      12.705   3.789  -0.759  0.00  0.00    +0.000 A 
ATOM     26  C   UNL     1      13.189   3.124   0.365  0.00  0.00    +0.000 A 
ENDBRANCH   8   6
BRANCH  10   4
ATOM      4  O   UNL     1      10.193   9.399   0.980  0.00  0.00    -0.388 OA
ATOM     37  H   UNL     1      10.233  10.206   1.515  0.00  0.00    +0.210 HD
ENDBRANCH  10   4
BRANCH   9  12
ATOM     12  C   UNL     1      10.217   8.933   4.189  0.00  0.00    +0.118 C 
BRANCH  12   7
ATOM      7  N   UNL     1      10.404   8.256   5.464  0.00  0.00    -0.291 NA
BRANCH   7  19
ATOM     19  C   UNL     1      11.139   9.108   6.401  0.00  0.00    +0.120 C 
BRANCH  19  23
ATOM      1  F   UNL     1      16.672   8.049   6.306  0.00  0.00    -0.205 F 
ATOM     23  C   UNL     1      12.618   8.825   6.376  0.00  0.00    -0.033 A 
ATOM     27  C   UNL     1      13.521   9.858   6.128  0.00  0.00    +0.008 A 
ATOM     29  C   UNL     1      13.083   7.530   6.601  0.00  0.00    +0.008 A 
ATOM     31  C   UNL     1      14.891   9.596   6.104  0.00  0.00    +0.038 A 
ATOM     33  C   UNL     1      14.454   7.268   6.577  0.00  0.00    +0.038 A 
ATOM     35  C   UNL     1      15.356   8.301   6.328  0.00  0.00    +0.123 A 
ENDBRANCH  19  23
ENDBRANCH   7  19
BRANCH   7  20
ATOM     20  C   UNL     1       9.113   7.867   6.039  0.00  0.00    +0.120 C 
BRANCH  20  24
ATOM      2  F   UNL     1       9.652   3.669   9.758  0.00  0.00    -0.205 F 
ATOM     24  C   UNL     1       9.257   6.746   7.033  0.00  0.00    -0.033 A 
ATOM     28  C   UNL     1       9.801   5.526   6.633  0.00  0.00    +0.008 A 
ATOM     30  C   UNL     1       8.846   6.927   8.353  0.00  0.00    +0.008 A 
ATOM     32  C   UNL     1       9.935   4.486   7.552  0.00  0.00    +0.038 A 
ATOM     34  C   UNL     1       8.980   5.887   9.274  0.00  0.00    +0.038 A 
ATOM     36  C   UNL     1       9.524   4.666   8.873  0.00  0.00    +0.123 A 
ENDBRANCH  20  24
ENDBRANCH   7  20
ENDBRANCH  12   7
ENDBRANCH   9  12
BRANCH  11  15
ATOM     15  C   UNL     1       7.996  11.157   1.250  0.00  0.00    +0.190 C 
BRANCH  15   5
ATOM      5  O   UNL     1       8.275  11.121  -0.142  0.00  0.00    -0.392 OA
ATOM     38  H   UNL     1       9.225  10.937  -0.239  0.00  0.00    +0.210 HD
ENDBRANCH  15   5
ENDBRANCH  11  15
TORSDOF 10
ENDMDL
