REMARK  Name = 45360668
REMARK  10 active torsions:
REMARK  status: ('A' for Active; 'I' for Inactive)
REMARK    1  A    between atoms: O_4  and  C_26
REMARK    2  A    between atoms: N_7  and  C_10
REMARK    3  A    between atoms: N_7  and  C_18
REMARK    4  A    between atoms: N_8  and  C_23
REMARK    5  A    between atoms: C_12  and  C_16
REMARK    6  A    between atoms: C_16  and  C_17
REMARK    7  A    between atoms: C_17  and  C_19
REMARK    8  A    between atoms: C_18  and  C_20
REMARK    9  A    between atoms: C_22  and  C_26
REMARK   10  A    between atoms: C_23  and  C_25
REMARK                            x       y       z     vdW  Elec       q    Type
REMARK                         _______ _______ _______ _____ _____    ______ ____
ROOT
ATOM      1  O   UNL     1      -0.827  -3.144   1.977  0.00  0.00    -0.274 OA
ATOM      5  N   UNL     1      -0.783   0.355   0.938  0.00  0.00    -0.286 NA
ATOM      6  N   UNL     1      -1.521  -1.287   3.091  0.00  0.00    -0.313 N 
ATOM      9  C   UNL     1      -0.775  -1.097   0.723  0.00  0.00    +0.145 C 
ATOM     10  C   UNL     1       1.324  -0.038   0.117  0.00  0.00    +0.070 C 
ATOM     11  C   UNL     1       0.616  -1.393   0.141  0.00  0.00    +0.048 C 
ATOM     12  C   UNL     1      -1.808   0.820   1.866  0.00  0.00    +0.075 C 
ATOM     13  C   UNL     1       0.598   0.761   1.190  0.00  0.00    +0.104 C 
ATOM     14  C   UNL     1      -1.657   0.146   3.221  0.00  0.00    +0.123 C 
ATOM     15  C   UNL     1      -1.019  -1.924   1.982  0.00  0.00    +0.230 C 
ATOM     32  H   UNL     1      -1.699  -1.851   3.916  0.00  0.00    +0.149 HD
ENDROOT
BRANCH  10   7
ATOM      7  N   UNL     1       2.757  -0.140   0.339  0.00  0.00    -0.305 NA
ATOM     33  H   UNL     1       3.115   0.770   0.632  0.00  0.00    +0.123 HD
BRANCH   7  18
ATOM     18  C   UNL     1       3.448  -0.546  -0.878  0.00  0.00    +0.156 C 
BRANCH  18  20
ATOM      2  O   UNL     1       5.626   0.493  -0.592  0.00  0.00    -0.461 OA
ATOM     20  C   UNL     1       4.930  -0.671  -0.668  0.00  0.00    +0.119 A 
ATOM     21  C   UNL     1       5.773  -1.749  -0.531  0.00  0.00    +0.046 A 
ATOM     22  C   UNL     1       6.929   0.155  -0.403  0.00  0.00    +0.131 A 
ATOM     24  C   UNL     1       7.072  -1.213  -0.358  0.00  0.00    +0.047 A 
BRANCH  22  26
ATOM     26  C   UNL     1       7.880   1.269  -0.289  0.00  0.00    +0.230 C 
BRANCH  26   4
ATOM      4  O   UNL     1       8.123   1.845  -1.575  0.00  0.00    -0.387 OA
ATOM     35  H   UNL     1       8.753   2.574  -1.444  0.00  0.00    +0.210 HD
ENDBRANCH  26   4
ENDBRANCH  22  26
ENDBRANCH  18  20
ENDBRANCH   7  18
ENDBRANCH  10   7
BRANCH  12  16
ATOM     16  C   UNL     1      -1.832   2.342   2.010  0.00  0.00    +0.029 C 
BRANCH  16  17
ATOM     17  C   UNL     1      -1.941   3.021   0.652  0.00  0.00    +0.097 C 
BRANCH  17  19
ATOM      3  O   UNL     1      -4.339   2.848   0.364  0.00  0.00    -0.276 OA
ATOM      8  N   UNL     1      -2.940   2.023  -1.295  0.00  0.00    -0.311 N 
ATOM     19  C   UNL     1      -3.214   2.636  -0.081  0.00  0.00    +0.213 C 
ATOM     34  H   UNL     1      -1.978   1.860  -1.576  0.00  0.00    +0.149 HD
BRANCH   8  23
ATOM     23  C   UNL     1      -3.984   1.562  -2.179  0.00  0.00    +0.139 C 
BRANCH  23  25
ATOM     25  C   UNL     1      -4.376   0.141  -1.893  0.00  0.00    -0.030 A 
ATOM     27  C   UNL     1      -3.724  -0.906  -2.543  0.00  0.00    +0.005 A 
ATOM     28  C   UNL     1      -5.391  -0.131  -0.977  0.00  0.00    +0.005 A 
ATOM     29  C   UNL     1      -4.087  -2.226  -2.278  0.00  0.00    +0.000 A 
ATOM     30  C   UNL     1      -5.755  -1.452  -0.711  0.00  0.00    +0.000 A 
ATOM     31  C   UNL     1      -5.103  -2.499  -1.362  0.00  0.00    +0.000 A 
ENDBRANCH  23  25
ENDBRANCH   8  23
ENDBRANCH  17  19
ENDBRANCH  16  17
ENDBRANCH  12  16
TORSDOF 10
