REMARK  Name = 7143745
REMARK  4 active torsions:
REMARK  status: ('A' for Active; 'I' for Inactive)
REMARK    1  A    between atoms: S_2  and  C_19
REMARK    2  A    between atoms: S_2  and  C_25
REMARK    3  A    between atoms: C_16  and  C_19
REMARK    4  A    between atoms: C_17  and  C_20
REMARK                            x       y       z     vdW  Elec       q    Type
REMARK                         _______ _______ _______ _____ _____    ______ ____
ROOT
ATOM      3  O   UNL     1       0.984  -1.465  -1.611  0.00  0.00    -0.267 OA
ATOM      4  O   UNL     1      -3.229   1.775  -2.208  0.00  0.00    -0.275 OA
ATOM      5  N   UNL     1      -3.521   0.376  -0.376  0.00  0.00    -0.300 N 
ATOM      6  N   UNL     1      -0.824  -1.318  -0.145  0.00  0.00    -0.311 N 
ATOM      7  C   UNL     1      -3.186  -2.064  -0.793  0.00  0.00    +0.027 C 
ATOM      8  C   UNL     1      -2.768  -1.141   1.447  0.00  0.00    +0.054 C 
ATOM      9  C   UNL     1      -3.360  -2.332   0.697  0.00  0.00    +0.018 C 
ATOM     10  C   UNL     1      -3.915  -0.770  -1.198  0.00  0.00    +0.113 C 
ATOM     11  C   UNL     1      -1.688  -2.006  -1.114  0.00  0.00    +0.130 C 
ATOM     12  C   UNL     1      -3.541   0.140   1.076  0.00  0.00    +0.117 C 
ATOM     13  C   UNL     1      -1.297  -0.965   1.121  0.00  0.00    +0.027 A 
ATOM     14  C   UNL     1      -0.458  -0.448   2.033  0.00  0.00    +0.022 A 
ATOM     15  C   UNL     1       0.522  -1.135  -0.517  0.00  0.00    +0.259 A 
ATOM     16  C   UNL     1      -3.240   1.598  -0.987  0.00  0.00    +0.225 C 
ATOM     17  C   UNL     1       1.430  -0.518   0.513  0.00  0.00    +0.047 A 
ATOM     18  C   UNL     1       0.923  -0.217   1.718  0.00  0.00    +0.015 A 
ENDROOT
BRANCH  17  20
ATOM      1 CL   UNL     1       7.179   0.618  -0.699  0.00  0.00    -0.084 Cl
ATOM     20  C   UNL     1       2.845  -0.239   0.214  0.00  0.00    -0.013 A 
ATOM     21  C   UNL     1       3.818  -1.205   0.474  0.00  0.00    +0.010 A 
ATOM     22  C   UNL     1       3.215   0.993  -0.328  0.00  0.00    +0.010 A 
ATOM     23  C   UNL     1       5.158  -0.940   0.192  0.00  0.00    +0.020 A 
ATOM     24  C   UNL     1       4.555   1.258  -0.610  0.00  0.00    +0.020 A 
ATOM     26  C   UNL     1       5.526   0.291  -0.350  0.00  0.00    +0.041 A 
ENDBRANCH  17  20
BRANCH  16  19
ATOM     19  C   UNL     1      -2.927   2.755  -0.072  0.00  0.00    +0.164 C 
BRANCH  19   2
ATOM      2  S   UNL     1      -1.152   2.760   0.215  0.00  0.00    -0.155 S 
ATOM     25  C   UNL     1      -1.050   4.199   1.308  0.00  0.00    +0.085 C 
ENDBRANCH  19   2
ENDBRANCH  16  19
TORSDOF 3
