MODEL 1
REMARK VINA RESULT:      -7.2      0.000      0.000
REMARK  Name = 40779423
REMARK  5 active torsions:
REMARK  status: ('A' for Active; 'I' for Inactive)
REMARK    1  A    between atoms: N_4  and  C_24
REMARK    2  A    between atoms: N_5  and  C_16
REMARK    3  A    between atoms: C_9  and  C_15
REMARK    4  A    between atoms: C_10  and  C_16
REMARK    5  A    between atoms: C_18  and  C_19
REMARK                            x       y       z     vdW  Elec       q    Type
REMARK                         _______ _______ _______ _____ _____    ______ ____
ROOT
ATOM      3  N   UNL     1      -6.323 -10.488  17.539  0.00  0.00    -0.297 NA
ATOM      8  C   UNL     1      -4.195 -11.950  17.197  0.00  0.00    +0.002 C 
ATOM      9  C   UNL     1      -4.047 -10.592  16.456  0.00  0.00    +0.055 C 
ATOM     10  C   UNL     1      -6.710 -11.854  17.100  0.00  0.00    +0.074 C 
ATOM     11  C   UNL     1      -5.465 -12.670  16.694  0.00  0.00    +0.024 C 
ATOM     12  C   UNL     1      -5.422  -9.868  16.537  0.00  0.00    +0.094 C 
ATOM     13  C   UNL     1      -4.422 -11.620  18.689  0.00  0.00    +0.019 C 
ATOM     14  C   UNL     1      -5.579 -10.614  18.815  0.00  0.00    +0.085 C 
ENDROOT
BRANCH   9  15
ATOM      4  N   UNL     1      -2.150 -10.476  14.774  0.00  0.00    -0.271 N 
ATOM      6  N   UNL     1      -1.856 -10.510  13.463  0.00  0.00    -0.176 NA
ATOM     15  C   UNL     1      -3.481 -10.602  15.043  0.00  0.00    +0.044 A 
ATOM     17  C   UNL     1      -4.101 -10.728  13.825  0.00  0.00    +0.048 A 
ATOM     19  C   UNL     1      -3.052 -10.665  12.888  0.00  0.00    +0.066 A 
ATOM     24  C   UNL     1      -1.082 -10.314  15.732  0.00  0.00    +0.172 C 
BRANCH  19  18
ATOM     18  C   UNL     1      -3.155 -10.751  11.381  0.00  0.00    +0.040 C 
ATOM     20  C   UNL     1      -4.610 -10.893  10.898  0.00  0.00    +0.010 C 
ATOM     21  C   UNL     1      -2.582  -9.532  10.630  0.00  0.00    +0.010 C 
ATOM     22  C   UNL     1      -4.662 -10.109   9.595  0.00  0.00    +0.001 C 
ATOM     23  C   UNL     1      -3.757  -8.921   9.873  0.00  0.00    +0.001 C 
ENDBRANCH  19  18
ENDBRANCH   9  15
BRANCH  10  16
ATOM     16  C   UNL     1      -7.764 -11.832  15.991  0.00  0.00    +0.124 C 
BRANCH  16   5
ATOM      1  O   UNL     1      -8.516  -9.573  14.490  0.00  0.00    -0.253 OA
ATOM      2  O   UNL     1     -12.690  -7.740  16.414  0.00  0.00    -0.377 OA
ATOM      5  N   UNL     1      -8.839 -10.922  16.318  0.00  0.00    -0.298 N 
ATOM      7  N   UNL     1     -10.214  -9.031  15.975  0.00  0.00    -0.281 N 
ATOM     25  C   UNL     1      -9.148  -9.826  15.521  0.00  0.00    +0.302 C 
ATOM     26  C   UNL     1     -10.604  -7.850  15.200  0.00  0.00    +0.137 C 
ATOM     27  C   UNL     1     -10.916  -9.170  17.259  0.00  0.00    +0.137 C 
ATOM     28  C   UNL     1     -12.117  -7.735  15.106  0.00  0.00    +0.179 C 
ATOM     29  C   UNL     1     -12.417  -8.972  17.082  0.00  0.00    +0.179 C 
ATOM     30  H   UNL     1      -9.308 -11.089  17.197  0.00  0.00    +0.150 HD
ENDBRANCH  16   5
ENDBRANCH  10  16
TORSDOF 4
ENDMDL
MODEL 2
REMARK VINA RESULT:      -6.9     26.489     29.549
REMARK  Name = 40779423
REMARK  5 active torsions:
REMARK  status: ('A' for Active; 'I' for Inactive)
REMARK    1  A    between atoms: N_4  and  C_24
REMARK    2  A    between atoms: N_5  and  C_16
REMARK    3  A    between atoms: C_9  and  C_15
REMARK    4  A    between atoms: C_10  and  C_16
REMARK    5  A    between atoms: C_18  and  C_19
REMARK                            x       y       z     vdW  Elec       q    Type
REMARK                         _______ _______ _______ _____ _____    ______ ____
ROOT
ATOM      3  N   UNL     1      12.620   7.377  19.660  0.00  0.00    -0.297 NA
ATOM      8  C   UNL     1      14.622   8.819  18.828  0.00  0.00    +0.002 C 
ATOM      9  C   UNL     1      15.074   7.353  19.076  0.00  0.00    +0.055 C 
ATOM     10  C   UNL     1      12.716   8.624  20.462  0.00  0.00    +0.074 C 
ATOM     11  C   UNL     1      14.012   9.391  20.125  0.00  0.00    +0.024 C 
ATOM     12  C   UNL     1      13.887   6.611  19.756  0.00  0.00    +0.094 C 
ATOM     13  C   UNL     1      13.490   8.765  17.778  0.00  0.00    +0.019 C 
ATOM     14  C   UNL     1      12.419   7.762  18.242  0.00  0.00    +0.085 C 
ENDROOT
BRANCH   9  15
ATOM      4  N   UNL     1      17.350   6.262  19.342  0.00  0.00    -0.271 N 
ATOM      6  N   UNL     1      18.440   6.199  20.125  0.00  0.00    -0.176 NA
ATOM     15  C   UNL     1      16.392   7.119  19.799  0.00  0.00    +0.044 A 
ATOM     17  C   UNL     1      16.890   7.654  20.961  0.00  0.00    +0.048 A 
ATOM     19  C   UNL     1      18.154   7.052  21.112  0.00  0.00    +0.066 A 
ATOM     24  C   UNL     1      17.292   5.453  18.147  0.00  0.00    +0.172 C 
BRANCH  19  18
ATOM     18  C   UNL     1      19.153   7.273  22.227  0.00  0.00    +0.040 C 
ATOM     20  C   UNL     1      20.260   6.204  22.246  0.00  0.00    +0.010 C 
ATOM     21  C   UNL     1      19.883   8.630  22.170  0.00  0.00    +0.010 C 
ATOM     22  C   UNL     1      21.512   6.951  22.680  0.00  0.00    +0.001 C 
ATOM     23  C   UNL     1      21.362   8.298  21.995  0.00  0.00    +0.001 C 
ENDBRANCH  19  18
ENDBRANCH   9  15
BRANCH  10  16
ATOM     16  C   UNL     1      12.581   8.363  21.963  0.00  0.00    +0.124 C 
BRANCH  16   5
ATOM      1  O   UNL     1      10.383   9.952  22.713  0.00  0.00    -0.253 OA
ATOM      2  O   UNL     1      11.999  13.531  25.723  0.00  0.00    -0.377 OA
ATOM      5  N   UNL     1      12.650   9.599  22.710  0.00  0.00    -0.298 N 
ATOM      7  N   UNL     1      11.743  11.510  23.764  0.00  0.00    -0.281 N 
ATOM     25  C   UNL     1      11.513  10.327  23.043  0.00  0.00    +0.302 C 
ATOM     26  C   UNL     1      10.602  12.344  24.150  0.00  0.00    +0.137 C 
ATOM     27  C   UNL     1      13.054  12.104  24.063  0.00  0.00    +0.137 C 
ATOM     28  C   UNL     1      10.753  12.849  25.577  0.00  0.00    +0.179 C 
ATOM     29  C   UNL     1      13.093  12.645  25.488  0.00  0.00    +0.179 C 
ATOM     30  H   UNL     1      13.578   9.940  22.917  0.00  0.00    +0.150 HD
ENDBRANCH  16   5
ENDBRANCH  10  16
TORSDOF 4
ENDMDL
MODEL 3
REMARK VINA RESULT:      -6.6      2.455      3.757
REMARK  Name = 40779423
REMARK  5 active torsions:
REMARK  status: ('A' for Active; 'I' for Inactive)
REMARK    1  A    between atoms: N_4  and  C_24
REMARK    2  A    between atoms: N_5  and  C_16
REMARK    3  A    between atoms: C_9  and  C_15
REMARK    4  A    between atoms: C_10  and  C_16
REMARK    5  A    between atoms: C_18  and  C_19
REMARK                            x       y       z     vdW  Elec       q    Type
REMARK                         _______ _______ _______ _____ _____    ______ ____
ROOT
ATOM      3  N   UNL     1      -6.804 -10.599  18.270  0.00  0.00    -0.297 NA
ATOM      8  C   UNL     1      -4.665 -11.996  17.764  0.00  0.00    +0.002 C 
ATOM      9  C   UNL     1      -4.613 -10.633  17.020  0.00  0.00    +0.055 C 
ATOM     10  C   UNL     1      -7.182 -11.975  17.855  0.00  0.00    +0.074 C 
ATOM     11  C   UNL     1      -5.947 -12.752  17.354  0.00  0.00    +0.024 C 
ATOM     12  C   UNL     1      -5.999  -9.950  17.206  0.00  0.00    +0.094 C 
ATOM     13  C   UNL     1      -4.789 -11.676  19.270  0.00  0.00    +0.019 C 
ATOM     14  C   UNL     1      -5.963 -10.705  19.487  0.00  0.00    +0.085 C 
ENDROOT
BRANCH   9  15
ATOM      4  N   UNL     1      -2.840 -10.632  15.204  0.00  0.00    -0.271 N 
ATOM      6  N   UNL     1      -2.646 -10.622  13.874  0.00  0.00    -0.176 NA
ATOM     15  C   UNL     1      -4.154 -10.623  15.569  0.00  0.00    +0.044 A 
ATOM     17  C   UNL     1      -4.870 -10.606  14.397  0.00  0.00    +0.048 A 
ATOM     19  C   UNL     1      -3.890 -10.606  13.387  0.00  0.00    +0.066 A 
ATOM     24  C   UNL     1      -1.695 -10.648  16.083  0.00  0.00    +0.172 C 
BRANCH  19  18
ATOM     18  C   UNL     1      -4.109 -10.591  11.890  0.00  0.00    +0.040 C 
ATOM     20  C   UNL     1      -4.953  -9.389  11.430  0.00  0.00    +0.010 C 
ATOM     21  C   UNL     1      -2.814 -10.537  11.054  0.00  0.00    +0.010 C 
ATOM     22  C   UNL     1      -4.371  -9.002  10.079  0.00  0.00    +0.001 C 
ATOM     23  C   UNL     1      -2.881  -9.231  10.269  0.00  0.00    +0.001 C 
ENDBRANCH  19  18
ENDBRANCH   9  15
BRANCH  10  16
ATOM     16  C   UNL     1      -8.316 -11.983  16.828  0.00  0.00    +0.124 C 
BRANCH  16   5
ATOM      1  O   UNL     1      -9.264 -11.278  14.274  0.00  0.00    -0.253 OA
ATOM      2  O   UNL     1      -6.481 -13.575  10.887  0.00  0.00    -0.377 OA
ATOM      5  N   UNL     1      -7.875 -12.558  15.577  0.00  0.00    -0.298 N 
ATOM      7  N   UNL     1      -7.871 -12.810  13.227  0.00  0.00    -0.281 N 
ATOM     25  C   UNL     1      -8.395 -12.153  14.352  0.00  0.00    +0.302 C 
ATOM     26  C   UNL     1      -8.368 -12.451  11.896  0.00  0.00    +0.137 C 
ATOM     27  C   UNL     1      -6.954 -13.959  13.240  0.00  0.00    +0.137 C 
ATOM     28  C   UNL     1      -7.226 -12.356  10.895  0.00  0.00    +0.179 C 
ATOM     29  C   UNL     1      -5.885 -13.813  12.163  0.00  0.00    +0.179 C 
ATOM     30  H   UNL     1      -7.218 -13.321  15.647  0.00  0.00    +0.150 HD
ENDBRANCH  16   5
ENDBRANCH  10  16
TORSDOF 4
ENDMDL
MODEL 4
REMARK VINA RESULT:      -6.5     24.094     27.077
REMARK  Name = 40779423
REMARK  5 active torsions:
REMARK  status: ('A' for Active; 'I' for Inactive)
REMARK    1  A    between atoms: N_4  and  C_24
REMARK    2  A    between atoms: N_5  and  C_16
REMARK    3  A    between atoms: C_9  and  C_15
REMARK    4  A    between atoms: C_10  and  C_16
REMARK    5  A    between atoms: C_18  and  C_19
REMARK                            x       y       z     vdW  Elec       q    Type
REMARK                         _______ _______ _______ _____ _____    ______ ____
ROOT
ATOM      3  N   UNL     1       9.483   4.896   5.947  0.00  0.00    -0.297 NA
ATOM      8  C   UNL     1      10.546   7.228   6.410  0.00  0.00    +0.002 C 
ATOM      9  C   UNL     1       9.006   7.355   6.245  0.00  0.00    +0.055 C 
ATOM     10  C   UNL     1      10.630   5.123   5.030  0.00  0.00    +0.074 C 
ATOM     11  C   UNL     1      11.141   6.574   5.145  0.00  0.00    +0.024 C 
ATOM     12  C   UNL     1       8.474   5.970   5.776  0.00  0.00    +0.094 C 
ATOM     13  C   UNL     1      10.790   6.253   7.583  0.00  0.00    +0.019 C 
ATOM     14  C   UNL     1       9.993   4.959   7.338  0.00  0.00    +0.085 C 
ENDROOT
BRANCH   9  15
ATOM      4  N   UNL     1       8.616   9.811   5.739  0.00  0.00    -0.271 N 
ATOM      6  N   UNL     1       8.067  10.666   4.858  0.00  0.00    -0.176 NA
ATOM     15  C   UNL     1       8.465   8.499   5.400  0.00  0.00    +0.044 A 
ATOM     17  C   UNL     1       7.768   8.494   4.216  0.00  0.00    +0.048 A 
ATOM     19  C   UNL     1       7.551   9.855   3.931  0.00  0.00    +0.066 A 
ATOM     24  C   UNL     1       9.283  10.335   6.907  0.00  0.00    +0.172 C 
BRANCH  19  18
ATOM     18  C   UNL     1       6.828  10.443   2.739  0.00  0.00    +0.040 C 
ATOM     20  C   UNL     1       6.898   9.532   1.500  0.00  0.00    +0.010 C 
ATOM     21  C   UNL     1       5.328  10.716   2.972  0.00  0.00    +0.010 C 
ATOM     22  C   UNL     1       5.555   9.713   0.810  0.00  0.00    +0.001 C 
ATOM     23  C   UNL     1       4.586   9.834   1.973  0.00  0.00    +0.001 C 
ENDBRANCH  19  18
ENDBRANCH   9  15
BRANCH  10  16
ATOM     16  C   UNL     1      10.302   4.746   3.584  0.00  0.00    +0.124 C 
BRANCH  16   5
ATOM      1  O   UNL     1      10.416   3.961   0.884  0.00  0.00    -0.253 OA
ATOM      2  O   UNL     1      15.166   3.775  -0.490  0.00  0.00    -0.377 OA
ATOM      5  N   UNL     1      11.505   4.426   2.849  0.00  0.00    -0.298 N 
ATOM      7  N   UNL     1      12.726   3.759   0.938  0.00  0.00    -0.281 N 
ATOM     25  C   UNL     1      11.476   4.045   1.511  0.00  0.00    +0.302 C 
ATOM     26  C   UNL     1      12.789   3.343  -0.466  0.00  0.00    +0.137 C 
ATOM     27  C   UNL     1      14.012   3.687   1.647  0.00  0.00    +0.137 C 
ATOM     28  C   UNL     1      13.943   4.023  -1.185  0.00  0.00    +0.179 C 
ATOM     29  C   UNL     1      15.123   4.330   0.825  0.00  0.00    +0.179 C 
ATOM     30  H   UNL     1      12.363   4.427   3.381  0.00  0.00    +0.150 HD
ENDBRANCH  16   5
ENDBRANCH  10  16
TORSDOF 4
ENDMDL
MODEL 5
REMARK VINA RESULT:      -6.5     19.426     22.134
REMARK  Name = 40779423
REMARK  5 active torsions:
REMARK  status: ('A' for Active; 'I' for Inactive)
REMARK    1  A    between atoms: N_4  and  C_24
REMARK    2  A    between atoms: N_5  and  C_16
REMARK    3  A    between atoms: C_9  and  C_15
REMARK    4  A    between atoms: C_10  and  C_16
REMARK    5  A    between atoms: C_18  and  C_19
REMARK                            x       y       z     vdW  Elec       q    Type
REMARK                         _______ _______ _______ _____ _____    ______ ____
ROOT
ATOM      3  N   UNL     1     -14.594   6.587  21.008  0.00  0.00    -0.297 NA
ATOM      8  C   UNL     1     -15.815   8.595  22.130  0.00  0.00    +0.002 C 
ATOM      9  C   UNL     1     -14.371   8.997  21.720  0.00  0.00    +0.055 C 
ATOM     10  C   UNL     1     -15.209   6.156  22.291  0.00  0.00    +0.074 C 
ATOM     11  C   UNL     1     -15.757   7.371  23.068  0.00  0.00    +0.024 C 
ATOM     12  C   UNL     1     -13.647   7.703  21.247  0.00  0.00    +0.094 C 
ATOM     13  C   UNL     1     -16.536   8.145  20.840  0.00  0.00    +0.019 C 
ATOM     14  C   UNL     1     -15.680   7.083  20.127  0.00  0.00    +0.085 C 
ENDROOT
BRANCH   9  15
ATOM      4  N   UNL     1     -12.625  10.735  22.329  0.00  0.00    -0.271 N 
ATOM      6  N   UNL     1     -11.995  11.330  23.357  0.00  0.00    -0.176 NA
ATOM     15  C   UNL     1     -13.538   9.797  22.711  0.00  0.00    +0.044 A 
ATOM     17  C   UNL     1     -13.503   9.775  24.083  0.00  0.00    +0.048 A 
ATOM     19  C   UNL     1     -12.536  10.739  24.426  0.00  0.00    +0.066 A 
ATOM     24  C   UNL     1     -12.293  11.124  20.979  0.00  0.00    +0.172 C 
BRANCH  19  18
ATOM     18  C   UNL     1     -12.084  11.139  25.813  0.00  0.00    +0.040 C 
ATOM     20  C   UNL     1     -13.028  10.619  26.912  0.00  0.00    +0.010 C 
ATOM     21  C   UNL     1     -10.678  10.635  26.198  0.00  0.00    +0.010 C 
ATOM     22  C   UNL     1     -12.114  10.284  28.081  0.00  0.00    +0.001 C 
ATOM     23  C   UNL     1     -10.880   9.718  27.399  0.00  0.00    +0.001 C 
ENDBRANCH  19  18
ENDBRANCH   9  15
BRANCH  10  16
ATOM     16  C   UNL     1     -14.253   5.318  23.142  0.00  0.00    +0.124 C 
BRANCH  16   5
ATOM      1  O   UNL     1     -15.867   3.016  23.015  0.00  0.00    -0.253 OA
ATOM      2  O   UNL     1     -17.115   1.729  27.627  0.00  0.00    -0.377 OA
ATOM      5  N   UNL     1     -14.949   4.714  24.256  0.00  0.00    -0.298 N 
ATOM      7  N   UNL     1     -16.348   3.109  25.283  0.00  0.00    -0.281 N 
ATOM     25  C   UNL     1     -15.729   3.572  24.110  0.00  0.00    +0.302 C 
ATOM     26  C   UNL     1     -17.195   1.915  25.220  0.00  0.00    +0.137 C 
ATOM     27  C   UNL     1     -16.360   3.791  26.585  0.00  0.00    +0.137 C 
ATOM     28  C   UNL     1     -16.941   1.003  26.410  0.00  0.00    +0.179 C 
ATOM     29  C   UNL     1     -16.168   2.793  27.722  0.00  0.00    +0.179 C 
ATOM     30  H   UNL     1     -14.893   5.209  25.134  0.00  0.00    +0.150 HD
ENDBRANCH  16   5
ENDBRANCH  10  16
TORSDOF 4
ENDMDL
MODEL 6
REMARK VINA RESULT:      -6.4     26.610     29.967
REMARK  Name = 40779423
REMARK  5 active torsions:
REMARK  status: ('A' for Active; 'I' for Inactive)
REMARK    1  A    between atoms: N_4  and  C_24
REMARK    2  A    between atoms: N_5  and  C_16
REMARK    3  A    between atoms: C_9  and  C_15
REMARK    4  A    between atoms: C_10  and  C_16
REMARK    5  A    between atoms: C_18  and  C_19
REMARK                            x       y       z     vdW  Elec       q    Type
REMARK                         _______ _______ _______ _____ _____    ______ ____
ROOT
ATOM      3  N   UNL     1      13.240   8.686  17.486  0.00  0.00    -0.297 NA
ATOM      8  C   UNL     1      14.158   8.319  19.896  0.00  0.00    +0.002 C 
ATOM      9  C   UNL     1      12.606   8.388  19.909  0.00  0.00    +0.055 C 
ATOM     10  C   UNL     1      14.309   9.677  17.780  0.00  0.00    +0.074 C 
ATOM     11  C   UNL     1      14.719   9.612  19.266  0.00  0.00    +0.024 C 
ATOM     12  C   UNL     1      12.147   8.806  18.483  0.00  0.00    +0.094 C 
ATOM     13  C   UNL     1      14.544   7.153  18.960  0.00  0.00    +0.019 C 
ATOM     14  C   UNL     1      13.830   7.331  17.608  0.00  0.00    +0.085 C 
ENDROOT
BRANCH   9  15
ATOM      4  N   UNL     1      11.019   8.690  21.867  0.00  0.00    -0.271 N 
ATOM      6  N   UNL     1      10.543   9.582  22.753  0.00  0.00    -0.176 NA
ATOM     15  C   UNL     1      11.931   9.211  20.998  0.00  0.00    +0.044 A 
ATOM     17  C   UNL     1      12.061  10.535  21.337  0.00  0.00    +0.048 A 
ATOM     19  C   UNL     1      11.183  10.707  22.424  0.00  0.00    +0.066 A 
ATOM     24  C   UNL     1      10.544   7.327  21.914  0.00  0.00    +0.172 C 
BRANCH  19  18
ATOM     18  C   UNL     1      10.918  11.977  23.203  0.00  0.00    +0.040 C 
ATOM     20  C   UNL     1      10.918  11.745  24.724  0.00  0.00    +0.010 C 
ATOM     21  C   UNL     1      11.939  13.105  22.952  0.00  0.00    +0.010 C 
ATOM     22  C   UNL     1      11.527  13.010  25.309  0.00  0.00    +0.001 C 
ATOM     23  C   UNL     1      12.604  13.369  24.300  0.00  0.00    +0.001 C 
ENDBRANCH  19  18
ENDBRANCH   9  15
BRANCH  10  16
ATOM     16  C   UNL     1      13.920  11.095  17.357  0.00  0.00    +0.124 C 
BRANCH  16   5
ATOM      1  O   UNL     1      13.602  10.830  14.574  0.00  0.00    -0.253 OA
ATOM      2  O   UNL     1      17.093  13.533  12.339  0.00  0.00    -0.377 OA
ATOM      5  N   UNL     1      14.828  11.602  16.353  0.00  0.00    -0.298 N 
ATOM      7  N   UNL     1      15.575  11.971  14.141  0.00  0.00    -0.281 N 
ATOM     25  C   UNL     1      14.598  11.429  14.993  0.00  0.00    +0.302 C 
ATOM     26  C   UNL     1      15.417  11.828  12.691  0.00  0.00    +0.137 C 
ATOM     27  C   UNL     1      16.857  12.560  14.554  0.00  0.00    +0.137 C 
ATOM     28  C   UNL     1      15.775  13.121  11.974  0.00  0.00    +0.179 C 
ATOM     29  C   UNL     1      17.168  13.810  13.738  0.00  0.00    +0.179 C 
ATOM     30  H   UNL     1      15.676  12.028  16.698  0.00  0.00    +0.150 HD
ENDBRANCH  16   5
ENDBRANCH  10  16
TORSDOF 4
ENDMDL
MODEL 7
REMARK VINA RESULT:      -6.3      1.821      2.159
REMARK  Name = 40779423
REMARK  5 active torsions:
REMARK  status: ('A' for Active; 'I' for Inactive)
REMARK    1  A    between atoms: N_4  and  C_24
REMARK    2  A    between atoms: N_5  and  C_16
REMARK    3  A    between atoms: C_9  and  C_15
REMARK    4  A    between atoms: C_10  and  C_16
REMARK    5  A    between atoms: C_18  and  C_19
REMARK                            x       y       z     vdW  Elec       q    Type
REMARK                         _______ _______ _______ _____ _____    ______ ____
ROOT
ATOM      3  N   UNL     1      -6.580 -10.540  18.123  0.00  0.00    -0.297 NA
ATOM      8  C   UNL     1      -4.510 -12.032  17.604  0.00  0.00    +0.002 C 
ATOM      9  C   UNL     1      -4.395 -10.669  16.868  0.00  0.00    +0.055 C 
ATOM     10  C   UNL     1      -7.022 -11.894  17.699  0.00  0.00    +0.074 C 
ATOM     11  C   UNL     1      -5.826 -12.725  17.191  0.00  0.00    +0.024 C 
ATOM     12  C   UNL     1      -5.746  -9.922  17.061  0.00  0.00    +0.094 C 
ATOM     13  C   UNL     1      -4.616 -11.718  19.112  0.00  0.00    +0.019 C 
ATOM     14  C   UNL     1      -5.742 -10.694  19.337  0.00  0.00    +0.085 C 
ENDROOT
BRANCH   9  15
ATOM      4  N   UNL     1      -2.626 -10.611  15.049  0.00  0.00    -0.271 N 
ATOM      6  N   UNL     1      -2.434 -10.626  13.719  0.00  0.00    -0.176 NA
ATOM     15  C   UNL     1      -3.938 -10.671  15.417  0.00  0.00    +0.044 A 
ATOM     17  C   UNL     1      -4.654 -10.728  14.246  0.00  0.00    +0.048 A 
ATOM     19  C   UNL     1      -3.677 -10.697  13.234  0.00  0.00    +0.066 A 
ATOM     24  C   UNL     1      -1.481 -10.536  15.926  0.00  0.00    +0.172 C 
BRANCH  19  18
ATOM     18  C   UNL     1      -3.898 -10.735  11.738  0.00  0.00    +0.040 C 
ATOM     20  C   UNL     1      -5.114  -9.900  11.300  0.00  0.00    +0.010 C 
ATOM     21  C   UNL     1      -2.711 -10.214  10.903  0.00  0.00    +0.010 C 
ATOM     22  C   UNL     1      -4.715  -9.310   9.956  0.00  0.00    +0.001 C 
ATOM     23  C   UNL     1      -3.239  -9.002  10.142  0.00  0.00    +0.001 C 
ENDBRANCH  19  18
ENDBRANCH   9  15
BRANCH  10  16
ATOM     16  C   UNL     1      -8.157 -11.842  16.674  0.00  0.00    +0.124 C 
BRANCH  16   5
ATOM      1  O   UNL     1     -10.749 -12.929  16.541  0.00  0.00    -0.253 OA
ATOM      2  O   UNL     1     -13.724 -10.234  19.434  0.00  0.00    -0.377 OA
ATOM      5  N   UNL     1      -9.347 -11.258  17.252  0.00  0.00    -0.298 N 
ATOM      7  N   UNL     1     -11.656 -11.169  17.749  0.00  0.00    -0.281 N 
ATOM     25  C   UNL     1     -10.596 -11.861  17.142  0.00  0.00    +0.302 C 
ATOM     26  C   UNL     1     -13.009 -11.728  17.675  0.00  0.00    +0.137 C 
ATOM     27  C   UNL     1     -11.589  -9.827  18.347  0.00  0.00    +0.137 C 
ATOM     28  C   UNL     1     -13.726 -11.598  19.010  0.00  0.00    +0.179 C 
ATOM     29  C   UNL     1     -12.390  -9.770  19.643  0.00  0.00    +0.179 C 
ATOM     30  H   UNL     1      -9.233 -10.351  17.680  0.00  0.00    +0.150 HD
ENDBRANCH  16   5
ENDBRANCH  10  16
TORSDOF 4
ENDMDL
MODEL 8
REMARK VINA RESULT:      -6.3      1.730      2.375
REMARK  Name = 40779423
REMARK  5 active torsions:
REMARK  status: ('A' for Active; 'I' for Inactive)
REMARK    1  A    between atoms: N_4  and  C_24
REMARK    2  A    between atoms: N_5  and  C_16
REMARK    3  A    between atoms: C_9  and  C_15
REMARK    4  A    between atoms: C_10  and  C_16
REMARK    5  A    between atoms: C_18  and  C_19
REMARK                            x       y       z     vdW  Elec       q    Type
REMARK                         _______ _______ _______ _____ _____    ______ ____
ROOT
ATOM      3  N   UNL     1      -5.726 -10.324  18.499  0.00  0.00    -0.297 NA
ATOM      8  C   UNL     1      -5.360 -12.414  16.989  0.00  0.00    +0.002 C 
ATOM      9  C   UNL     1      -4.339 -11.299  16.630  0.00  0.00    +0.055 C 
ATOM     10  C   UNL     1      -7.018 -10.755  17.904  0.00  0.00    +0.074 C 
ATOM     11  C   UNL     1      -6.793 -11.858  16.849  0.00  0.00    +0.024 C 
ATOM     12  C   UNL     1      -4.747 -10.025  17.424  0.00  0.00    +0.094 C 
ATOM     13  C   UNL     1      -5.147 -12.751  18.481  0.00  0.00    +0.019 C 
ATOM     14  C   UNL     1      -5.197 -11.452  19.304  0.00  0.00    +0.085 C 
ENDROOT
BRANCH   9  15
ATOM      4  N   UNL     1      -2.834 -10.802  14.648  0.00  0.00    -0.271 N 
ATOM      6  N   UNL     1      -2.821 -10.558  13.326  0.00  0.00    -0.176 NA
ATOM     15  C   UNL     1      -4.082 -11.005  15.159  0.00  0.00    +0.044 A 
ATOM     17  C   UNL     1      -4.946 -10.887  14.099  0.00  0.00    +0.048 A 
ATOM     19  C   UNL     1      -4.115 -10.612  12.997  0.00  0.00    +0.066 A 
ATOM     24  C   UNL     1      -1.585 -10.823  15.373  0.00  0.00    +0.172 C 
BRANCH  19  18
ATOM     18  C   UNL     1      -4.533 -10.385  11.560  0.00  0.00    +0.040 C 
ATOM     20  C   UNL     1      -5.262  -9.044  11.364  0.00  0.00    +0.010 C 
ATOM     21  C   UNL     1      -3.369 -10.381  10.549  0.00  0.00    +0.010 C 
ATOM     22  C   UNL     1      -4.823  -8.564   9.988  0.00  0.00    +0.001 C 
ATOM     23  C   UNL     1      -3.367  -8.988   9.926  0.00  0.00    +0.001 C 
ENDBRANCH  19  18
ENDBRANCH   9  15
BRANCH  10  16
ATOM     16  C   UNL     1      -7.819  -9.580  17.339  0.00  0.00    +0.124 C 
BRANCH  16   5
ATOM      1  O   UNL     1     -10.426  -9.321  16.311  0.00  0.00    -0.253 OA
ATOM      2  O   UNL     1     -10.233  -9.912  11.402  0.00  0.00    -0.377 OA
ATOM      5  N   UNL     1      -8.216  -9.835  15.973  0.00  0.00    -0.298 N 
ATOM      7  N   UNL     1      -9.759  -9.975  14.188  0.00  0.00    -0.281 N 
ATOM     25  C   UNL     1      -9.529  -9.683  15.542  0.00  0.00    +0.302 C 
ATOM     26  C   UNL     1     -11.116  -9.849  13.650  0.00  0.00    +0.137 C 
ATOM     27  C   UNL     1      -8.787 -10.554  13.247  0.00  0.00    +0.137 C 
ATOM     28  C   UNL     1     -11.100  -9.191  12.279  0.00  0.00    +0.179 C 
ATOM     29  C   UNL     1      -8.888  -9.883  11.882  0.00  0.00    +0.179 C 
ATOM     30  H   UNL     1      -7.497 -10.199  15.364  0.00  0.00    +0.150 HD
ENDBRANCH  16   5
ENDBRANCH  10  16
TORSDOF 4
ENDMDL
MODEL 9
REMARK VINA RESULT:      -6.3      2.060      5.283
REMARK  Name = 40779423
REMARK  5 active torsions:
REMARK  status: ('A' for Active; 'I' for Inactive)
REMARK    1  A    between atoms: N_4  and  C_24
REMARK    2  A    between atoms: N_5  and  C_16
REMARK    3  A    between atoms: C_9  and  C_15
REMARK    4  A    between atoms: C_10  and  C_16
REMARK    5  A    between atoms: C_18  and  C_19
REMARK                            x       y       z     vdW  Elec       q    Type
REMARK                         _______ _______ _______ _____ _____    ______ ____
ROOT
ATOM      3  N   UNL     1      -6.809 -10.644  10.062  0.00  0.00    -0.297 NA
ATOM      8  C   UNL     1      -5.443  -8.718  11.161  0.00  0.00    +0.002 C 
ATOM      9  C   UNL     1      -4.725 -10.080  11.367  0.00  0.00    +0.055 C 
ATOM     10  C   UNL     1      -7.696  -9.818  10.921  0.00  0.00    +0.074 C 
ATOM     11  C   UNL     1      -6.872  -8.803  11.741  0.00  0.00    +0.024 C 
ATOM     12  C   UNL     1      -5.689 -11.193  10.866  0.00  0.00    +0.094 C 
ATOM     13  C   UNL     1      -5.583  -8.513   9.637  0.00  0.00    +0.019 C 
ATOM     14  C   UNL     1      -6.237  -9.760   9.017  0.00  0.00    +0.085 C 
ENDROOT
BRANCH   9  15
ATOM      4  N   UNL     1      -2.810 -10.462  12.988  0.00  0.00    -0.271 N 
ATOM      6  N   UNL     1      -2.508 -10.746  14.267  0.00  0.00    -0.176 NA
ATOM     15  C   UNL     1      -4.149 -10.389  12.741  0.00  0.00    +0.044 A 
ATOM     17  C   UNL     1      -4.767 -10.642  13.941  0.00  0.00    +0.048 A 
ATOM     19  C   UNL     1      -3.708 -10.854  14.844  0.00  0.00    +0.066 A 
ATOM     24  C   UNL     1      -1.740 -10.272  12.037  0.00  0.00    +0.172 C 
BRANCH  19  18
ATOM     18  C   UNL     1      -3.804 -11.175  16.320  0.00  0.00    +0.040 C 
ATOM     20  C   UNL     1      -4.537 -10.078  17.113  0.00  0.00    +0.010 C 
ATOM     21  C   UNL     1      -4.545 -12.489  16.641  0.00  0.00    +0.010 C 
ATOM     22  C   UNL     1      -5.309 -10.829  18.188  0.00  0.00    +0.001 C 
ATOM     23  C   UNL     1      -5.762 -12.087  17.468  0.00  0.00    +0.001 C 
ENDBRANCH  19  18
ENDBRANCH   9  15
BRANCH  10  16
ATOM     16  C   UNL     1      -8.601 -10.670  11.814  0.00  0.00    +0.124 C 
BRANCH  16   5
ATOM      1  O   UNL     1      -8.433 -11.194  14.574  0.00  0.00    -0.253 OA
ATOM      2  O   UNL     1     -10.382  -7.355  17.012  0.00  0.00    -0.377 OA
ATOM      5  N   UNL     1      -9.195  -9.870  12.861  0.00  0.00    -0.298 N 
ATOM      7  N   UNL     1      -9.704  -9.328  15.105  0.00  0.00    -0.281 N 
ATOM     25  C   UNL     1      -9.064 -10.198  14.206  0.00  0.00    +0.302 C 
ATOM     26  C   UNL     1      -9.625  -9.601  16.542  0.00  0.00    +0.137 C 
ATOM     27  C   UNL     1     -10.596  -8.215  14.749  0.00  0.00    +0.137 C 
ATOM     28  C   UNL     1      -9.379  -8.322  17.327  0.00  0.00    +0.179 C 
ATOM     29  C   UNL     1     -10.327  -7.000  15.630  0.00  0.00    +0.179 C 
ATOM     30  H   UNL     1      -9.769  -9.098  12.557  0.00  0.00    +0.150 HD
ENDBRANCH  16   5
ENDBRANCH  10  16
TORSDOF 4
ENDMDL
MODEL 10
REMARK VINA RESULT:      -6.3      2.788      6.932
REMARK  Name = 40779423
REMARK  5 active torsions:
REMARK  status: ('A' for Active; 'I' for Inactive)
REMARK    1  A    between atoms: N_4  and  C_24
REMARK    2  A    between atoms: N_5  and  C_16
REMARK    3  A    between atoms: C_9  and  C_15
REMARK    4  A    between atoms: C_10  and  C_16
REMARK    5  A    between atoms: C_18  and  C_19
REMARK                            x       y       z     vdW  Elec       q    Type
REMARK                         _______ _______ _______ _____ _____    ______ ____
ROOT
ATOM      3  N   UNL     1      -5.353 -13.101  17.379  0.00  0.00    -0.297 NA
ATOM      8  C   UNL     1      -5.158 -10.573  17.972  0.00  0.00    +0.002 C 
ATOM      9  C   UNL     1      -6.600 -11.085  18.240  0.00  0.00    +0.055 C 
ATOM     10  C   UNL     1      -4.725 -12.362  16.253  0.00  0.00    +0.074 C 
ATOM     11  C   UNL     1      -4.788 -10.839  16.497  0.00  0.00    +0.024 C 
ATOM     12  C   UNL     1      -6.691 -12.532  17.677  0.00  0.00    +0.094 C 
ATOM     13  C   UNL     1      -4.212 -11.433  18.840  0.00  0.00    +0.019 C 
ATOM     14  C   UNL     1      -4.496 -12.922  18.576  0.00  0.00    +0.085 C 
ENDROOT
BRANCH   9  15
ATOM      4  N   UNL     1      -8.986 -10.236  18.401  0.00  0.00    -0.271 N 
ATOM      6  N   UNL     1      -9.880  -9.394  17.853  0.00  0.00    -0.176 NA
ATOM     15  C   UNL     1      -7.766 -10.216  17.792  0.00  0.00    +0.044 A 
ATOM     17  C   UNL     1      -7.868  -9.298  16.775  0.00  0.00    +0.048 A 
ATOM     19  C   UNL     1      -9.190  -8.824  16.861  0.00  0.00    +0.066 A 
ATOM     24  C   UNL     1      -9.381 -11.047  19.528  0.00  0.00    +0.172 C 
BRANCH  19  18
ATOM     18  C   UNL     1      -9.857  -7.789  15.982  0.00  0.00    +0.040 C 
ATOM     20  C   UNL     1     -10.631  -8.421  14.811  0.00  0.00    +0.010 C 
ATOM     21  C   UNL     1     -10.871  -6.886  16.714  0.00  0.00    +0.010 C 
ATOM     22  C   UNL     1     -11.848  -7.527  14.625  0.00  0.00    +0.001 C 
ATOM     23  C   UNL     1     -12.218  -7.150  16.049  0.00  0.00    +0.001 C 
ENDBRANCH  19  18
ENDBRANCH   9  15
BRANCH  10  16
ATOM     16  C   UNL     1      -5.322 -12.747  14.898  0.00  0.00    +0.124 C 
BRANCH  16   5
ATOM      1  O   UNL     1      -3.227 -12.246  13.086  0.00  0.00    -0.253 OA
ATOM      2  O   UNL     1      -4.576  -8.509  10.136  0.00  0.00    -0.377 OA
ATOM      5  N   UNL     1      -5.255 -11.639  13.971  0.00  0.00    -0.298 N 
ATOM      7  N   UNL     1      -4.259 -10.335  12.270  0.00  0.00    -0.281 N 
ATOM     25  C   UNL     1      -4.182 -11.462  13.105  0.00  0.00    +0.302 C 
ATOM     26  C   UNL     1      -3.167 -10.066  11.331  0.00  0.00    +0.137 C 
ATOM     27  C   UNL     1      -5.276  -9.275  12.333  0.00  0.00    +0.137 C 
ATOM     28  C   UNL     1      -3.707  -9.632   9.977  0.00  0.00    +0.179 C 
ATOM     29  C   UNL     1      -5.709  -8.854  10.933  0.00  0.00    +0.179 C 
ATOM     30  H   UNL     1      -6.001 -10.962  14.037  0.00  0.00    +0.150 HD
ENDBRANCH  16   5
ENDBRANCH  10  16
TORSDOF 4
ENDMDL
