MODEL 1
REMARK VINA RESULT:      -7.3      0.000      0.000
REMARK  Name = 25338588
REMARK  10 active torsions:
REMARK  status: ('A' for Active; 'I' for Inactive)
REMARK    1  A    between atoms: S_1  and  N_7
REMARK    2  A    between atoms: S_1  and  C_16
REMARK    3  A    between atoms: O_5  and  C_25
REMARK    4  A    between atoms: O_5  and  C_26
REMARK    5  A    between atoms: N_6  and  C_15
REMARK    6  A    between atoms: N_7  and  C_10
REMARK    7  A    between atoms: C_11  and  C_14
REMARK    8  A    between atoms: C_16  and  C_17
REMARK    9  A    between atoms: C_17  and  C_19
REMARK   10  A    between atoms: C_18  and  C_20
REMARK                            x       y       z     vdW  Elec       q    Type
REMARK                         _______ _______ _______ _____ _____    ______ ____
ROOT
ATOM      6  N   UNL     1      11.341   6.861  21.738  0.00  0.00    -0.293 NA
ATOM     10  C   UNL     1      10.598   9.040  22.116  0.00  0.00    +0.092 C 
ATOM     11  C   UNL     1      11.633   7.562  20.473  0.00  0.00    +0.147 C 
ATOM     12  C   UNL     1      11.325   9.042  20.773  0.00  0.00    +0.050 C 
ATOM     13  C   UNL     1      10.221   7.586  22.348  0.00  0.00    +0.105 C 
ATOM     15  C   UNL     1      11.038   5.446  21.556  0.00  0.00    +0.105 C 
ENDROOT
BRANCH  11  14
ATOM      2  O   UNL     1      13.267   7.579  18.655  0.00  0.00    -0.336 OA
ATOM      8  N   UNL     1      14.112   6.975  20.640  0.00  0.00    -0.190 NA
ATOM      9  N   UNL     1      14.626   7.322  18.438  0.00  0.00    -0.056 NA
ATOM     14  C   UNL     1      13.048   7.351  19.978  0.00  0.00    +0.245 A 
ATOM     18  C   UNL     1      15.056   6.972  19.654  0.00  0.00    +0.202 A 
BRANCH  18  20
ATOM     20  C   UNL     1      16.420   6.614  19.917  0.00  0.00    +0.023 A 
ATOM     21  C   UNL     1      17.113   5.803  19.018  0.00  0.00    +0.015 A 
ATOM     22  C   UNL     1      17.052   7.075  21.071  0.00  0.00    +0.015 A 
ATOM     23  C   UNL     1      18.439   5.454  19.274  0.00  0.00    +0.046 A 
ATOM     24  C   UNL     1      18.377   6.726  21.327  0.00  0.00    +0.046 A 
ATOM     25  C   UNL     1      19.071   5.915  20.428  0.00  0.00    +0.120 A 
BRANCH  25   5
ATOM      5  O   UNL     1      20.365   5.575  20.679  0.00  0.00    -0.495 OA
ATOM     26  C   UNL     1      20.873   5.870  21.980  0.00  0.00    +0.277 C 
ENDBRANCH  25   5
ENDBRANCH  18  20
ENDBRANCH  11  14
BRANCH  10   7
ATOM      7  N   UNL     1      11.518   9.502  23.187  0.00  0.00    -0.190 NA
ATOM     27  H   UNL     1      11.845   8.805  23.866  0.00  0.00    +0.148 HD
BRANCH   7   1
ATOM      1  S   UNL     1      11.536  11.154  23.596  0.00  0.00    +0.030 S 
ATOM      3  O   UNL     1      11.018  11.340  24.938  0.00  0.00    -0.158 OA
ATOM      4  O   UNL     1      10.989  11.902  22.481  0.00  0.00    -0.158 OA
BRANCH   1  16
ATOM     16  C   UNL     1      13.286  11.466  23.637  0.00  0.00    +0.185 C 
BRANCH  16  17
ATOM     17  C   UNL     1      13.943  11.105  22.315  0.00  0.00    +0.021 C 
ATOM     19  C   UNL     1      14.966   9.994  22.488  0.00  0.00    +0.005 C 
ENDBRANCH  16  17
ENDBRANCH   1  16
ENDBRANCH   7   1
ENDBRANCH  10   7
TORSDOF 7
ENDMDL
MODEL 2
REMARK VINA RESULT:      -7.2      1.320      1.997
REMARK  Name = 25338588
REMARK  10 active torsions:
REMARK  status: ('A' for Active; 'I' for Inactive)
REMARK    1  A    between atoms: S_1  and  N_7
REMARK    2  A    between atoms: S_1  and  C_16
REMARK    3  A    between atoms: O_5  and  C_25
REMARK    4  A    between atoms: O_5  and  C_26
REMARK    5  A    between atoms: N_6  and  C_15
REMARK    6  A    between atoms: N_7  and  C_10
REMARK    7  A    between atoms: C_11  and  C_14
REMARK    8  A    between atoms: C_16  and  C_17
REMARK    9  A    between atoms: C_17  and  C_19
REMARK   10  A    between atoms: C_18  and  C_20
REMARK                            x       y       z     vdW  Elec       q    Type
REMARK                         _______ _______ _______ _____ _____    ______ ____
ROOT
ATOM      6  N   UNL     1      11.425   6.861  21.699  0.00  0.00    -0.293 NA
ATOM     10  C   UNL     1      10.676   9.046  22.024  0.00  0.00    +0.092 C 
ATOM     11  C   UNL     1      11.746   7.540  20.429  0.00  0.00    +0.147 C 
ATOM     12  C   UNL     1      11.433   9.025  20.698  0.00  0.00    +0.050 C 
ATOM     13  C   UNL     1      10.292   7.596  22.271  0.00  0.00    +0.105 C 
ATOM     15  C   UNL     1      11.125   5.443  21.533  0.00  0.00    +0.105 C 
ENDROOT
BRANCH  11  14
ATOM      2  O   UNL     1      13.395   7.399  18.631  0.00  0.00    -0.336 OA
ATOM      8  N   UNL     1      14.242   7.061  20.676  0.00  0.00    -0.190 NA
ATOM      9  N   UNL     1      14.764   7.165  18.452  0.00  0.00    -0.056 NA
ATOM     14  C   UNL     1      13.171   7.321  19.969  0.00  0.00    +0.245 A 
ATOM     18  C   UNL     1      15.193   6.974  19.703  0.00  0.00    +0.202 A 
BRANCH  18  20
ATOM     20  C   UNL     1      16.566   6.696  20.013  0.00  0.00    +0.023 A 
ATOM     21  C   UNL     1      17.167   7.298  21.118  0.00  0.00    +0.015 A 
ATOM     22  C   UNL     1      17.300   5.825  19.208  0.00  0.00    +0.015 A 
ATOM     23  C   UNL     1      18.503   7.029  21.419  0.00  0.00    +0.046 A 
ATOM     24  C   UNL     1      18.635   5.556  19.508  0.00  0.00    +0.046 A 
ATOM     25  C   UNL     1      19.236   6.158  20.613  0.00  0.00    +0.120 A 
BRANCH  25   5
ATOM      5  O   UNL     1      20.539   5.894  20.906  0.00  0.00    -0.495 OA
ATOM     26  C   UNL     1      21.022   4.588  20.593  0.00  0.00    +0.277 C 
ENDBRANCH  25   5
ENDBRANCH  18  20
ENDBRANCH  11  14
BRANCH  10   7
ATOM      7  N   UNL     1      11.571   9.525  23.107  0.00  0.00    -0.190 NA
ATOM     27  H   UNL     1      11.734   8.896  23.903  0.00  0.00    +0.148 HD
BRANCH   7   1
ATOM      1  S   UNL     1      11.814  11.200  23.291  0.00  0.00    +0.030 S 
ATOM      3  O   UNL     1      10.996  11.928  22.340  0.00  0.00    -0.158 OA
ATOM      4  O   UNL     1      13.241  11.443  23.378  0.00  0.00    -0.158 OA
BRANCH   1  16
ATOM     16  C   UNL     1      11.131  11.458  24.912  0.00  0.00    +0.185 C 
BRANCH  16  17
ATOM     17  C   UNL     1      10.721  12.907  25.115  0.00  0.00    +0.021 C 
ATOM     19  C   UNL     1      11.808  13.698  25.822  0.00  0.00    +0.005 C 
ENDBRANCH  16  17
ENDBRANCH   1  16
ENDBRANCH   7   1
ENDBRANCH  10   7
TORSDOF 7
ENDMDL
MODEL 3
REMARK VINA RESULT:      -5.9      3.256      5.404
REMARK  Name = 25338588
REMARK  10 active torsions:
REMARK  status: ('A' for Active; 'I' for Inactive)
REMARK    1  A    between atoms: S_1  and  N_7
REMARK    2  A    between atoms: S_1  and  C_16
REMARK    3  A    between atoms: O_5  and  C_25
REMARK    4  A    between atoms: O_5  and  C_26
REMARK    5  A    between atoms: N_6  and  C_15
REMARK    6  A    between atoms: N_7  and  C_10
REMARK    7  A    between atoms: C_11  and  C_14
REMARK    8  A    between atoms: C_16  and  C_17
REMARK    9  A    between atoms: C_17  and  C_19
REMARK   10  A    between atoms: C_18  and  C_20
REMARK                            x       y       z     vdW  Elec       q    Type
REMARK                         _______ _______ _______ _____ _____    ______ ____
ROOT
ATOM      6  N   UNL     1      16.624   8.778  20.490  0.00  0.00    -0.293 NA
ATOM     10  C   UNL     1      14.447   7.954  20.341  0.00  0.00    +0.092 C 
ATOM     11  C   UNL     1      16.682   7.486  21.201  0.00  0.00    +0.147 C 
ATOM     12  C   UNL     1      15.304   6.845  20.946  0.00  0.00    +0.050 C 
ATOM     13  C   UNL     1      15.233   9.230  20.594  0.00  0.00    +0.105 C 
ATOM     15  C   UNL     1      17.558   9.767  21.016  0.00  0.00    +0.105 C 
ENDROOT
BRANCH  11  14
ATOM      2  O   UNL     1      17.622   5.867  19.629  0.00  0.00    -0.336 OA
ATOM      8  N   UNL     1      19.006   6.432  21.297  0.00  0.00    -0.190 NA
ATOM      9  N   UNL     1      18.801   5.142  19.420  0.00  0.00    -0.056 NA
ATOM     14  C   UNL     1      17.827   6.602  20.755  0.00  0.00    +0.245 A 
ATOM     18  C   UNL     1      19.568   5.529  20.444  0.00  0.00    +0.202 A 
BRANCH  18  20
ATOM     20  C   UNL     1      20.899   5.031  20.641  0.00  0.00    +0.023 A 
ATOM     21  C   UNL     1      21.100   3.694  20.982  0.00  0.00    +0.015 A 
ATOM     22  C   UNL     1      21.991   5.885  20.493  0.00  0.00    +0.015 A 
ATOM     23  C   UNL     1      22.394   3.210  21.175  0.00  0.00    +0.046 A 
ATOM     24  C   UNL     1      23.285   5.402  20.687  0.00  0.00    +0.046 A 
ATOM     25  C   UNL     1      23.486   4.065  21.028  0.00  0.00    +0.120 A 
BRANCH  25   5
ATOM      5  O   UNL     1      24.750   3.594  21.216  0.00  0.00    -0.495 OA
ATOM     26  C   UNL     1      25.043   2.298  20.693  0.00  0.00    +0.277 C 
ENDBRANCH  25   5
ENDBRANCH  18  20
ENDBRANCH  11  14
BRANCH  10   7
ATOM      7  N   UNL     1      14.295   7.733  18.880  0.00  0.00    -0.190 NA
ATOM     27  H   UNL     1      15.150   7.579  18.332  0.00  0.00    +0.148 HD
BRANCH   7   1
ATOM      1  S   UNL     1      12.884   8.291  18.108  0.00  0.00    +0.030 S 
ATOM      3  O   UNL     1      12.037   7.169  17.752  0.00  0.00    -0.158 OA
ATOM      4  O   UNL     1      13.271   9.273  17.114  0.00  0.00    -0.158 OA
BRANCH   1  16
ATOM     16  C   UNL     1      12.101   9.166  19.443  0.00  0.00    +0.185 C 
BRANCH  16  17
ATOM     17  C   UNL     1      10.886   8.413  19.962  0.00  0.00    +0.021 C 
ATOM     19  C   UNL     1      10.804   8.469  21.478  0.00  0.00    +0.005 C 
ENDBRANCH  16  17
ENDBRANCH   1  16
ENDBRANCH   7   1
ENDBRANCH  10   7
TORSDOF 7
ENDMDL
MODEL 4
REMARK VINA RESULT:      -5.7     26.629     28.596
REMARK  Name = 25338588
REMARK  10 active torsions:
REMARK  status: ('A' for Active; 'I' for Inactive)
REMARK    1  A    between atoms: S_1  and  N_7
REMARK    2  A    between atoms: S_1  and  C_16
REMARK    3  A    between atoms: O_5  and  C_25
REMARK    4  A    between atoms: O_5  and  C_26
REMARK    5  A    between atoms: N_6  and  C_15
REMARK    6  A    between atoms: N_7  and  C_10
REMARK    7  A    between atoms: C_11  and  C_14
REMARK    8  A    between atoms: C_16  and  C_17
REMARK    9  A    between atoms: C_17  and  C_19
REMARK   10  A    between atoms: C_18  and  C_20
REMARK                            x       y       z     vdW  Elec       q    Type
REMARK                         _______ _______ _______ _____ _____    ______ ____
ROOT
ATOM      6  N   UNL     1      -3.652 -11.994  11.334  0.00  0.00    -0.293 NA
ATOM     10  C   UNL     1      -3.709 -10.116   9.951  0.00  0.00    +0.092 C 
ATOM     11  C   UNL     1      -2.689 -11.065  11.955  0.00  0.00    +0.147 C 
ATOM     12  C   UNL     1      -2.857  -9.752  11.165  0.00  0.00    +0.050 C 
ATOM     13  C   UNL     1      -3.695 -11.636   9.912  0.00  0.00    +0.105 C 
ATOM     15  C   UNL     1      -3.307 -13.397  11.531  0.00  0.00    +0.105 C 
ENDROOT
BRANCH  11  14
ATOM      2  O   UNL     1      -1.800 -10.562  14.175  0.00  0.00    -0.336 OA
ATOM      8  N   UNL     1      -4.000 -10.981  14.144  0.00  0.00    -0.190 NA
ATOM      9  N   UNL     1      -2.238 -10.444  15.500  0.00  0.00    -0.056 NA
ATOM     14  C   UNL     1      -2.900 -10.880  13.442  0.00  0.00    +0.245 A 
ATOM     18  C   UNL     1      -3.545 -10.705  15.400  0.00  0.00    +0.202 A 
BRANCH  18  20
ATOM     20  C   UNL     1      -4.422 -10.697  16.535  0.00  0.00    +0.023 A 
ATOM     21  C   UNL     1      -4.055 -11.364  17.704  0.00  0.00    +0.015 A 
ATOM     22  C   UNL     1      -5.641 -10.024  16.470  0.00  0.00    +0.015 A 
ATOM     23  C   UNL     1      -4.908 -11.358  18.808  0.00  0.00    +0.046 A 
ATOM     24  C   UNL     1      -6.495 -10.019  17.573  0.00  0.00    +0.046 A 
ATOM     25  C   UNL     1      -6.127 -10.686  18.742  0.00  0.00    +0.120 A 
BRANCH  25   5
ATOM      5  O   UNL     1      -6.961 -10.679  19.819  0.00  0.00    -0.495 OA
ATOM     26  C   UNL     1      -8.285 -11.171  19.617  0.00  0.00    +0.277 C 
ENDBRANCH  25   5
ENDBRANCH  18  20
ENDBRANCH  11  14
BRANCH  10   7
ATOM      7  N   UNL     1      -5.098  -9.627  10.145  0.00  0.00    -0.190 NA
ATOM     27  H   UNL     1      -5.437  -9.530  11.110  0.00  0.00    +0.148 HD
BRANCH   7   1
ATOM      1  S   UNL     1      -6.213  -9.794   8.870  0.00  0.00    +0.030 S 
ATOM      3  O   UNL     1      -7.014 -10.988   9.064  0.00  0.00    -0.158 OA
ATOM      4  O   UNL     1      -5.510  -9.569   7.622  0.00  0.00    -0.158 OA
BRANCH   1  16
ATOM     16  C   UNL     1      -7.255  -8.383   9.155  0.00  0.00    +0.185 C 
BRANCH  16  17
ATOM     17  C   UNL     1      -7.774  -7.805   7.848  0.00  0.00    +0.021 C 
ATOM     19  C   UNL     1      -8.147  -6.340   7.998  0.00  0.00    +0.005 C 
ENDBRANCH  16  17
ENDBRANCH   1  16
ENDBRANCH   7   1
ENDBRANCH  10   7
TORSDOF 7
ENDMDL
MODEL 5
REMARK VINA RESULT:      -5.7     26.674     28.692
REMARK  Name = 25338588
REMARK  10 active torsions:
REMARK  status: ('A' for Active; 'I' for Inactive)
REMARK    1  A    between atoms: S_1  and  N_7
REMARK    2  A    between atoms: S_1  and  C_16
REMARK    3  A    between atoms: O_5  and  C_25
REMARK    4  A    between atoms: O_5  and  C_26
REMARK    5  A    between atoms: N_6  and  C_15
REMARK    6  A    between atoms: N_7  and  C_10
REMARK    7  A    between atoms: C_11  and  C_14
REMARK    8  A    between atoms: C_16  and  C_17
REMARK    9  A    between atoms: C_17  and  C_19
REMARK   10  A    between atoms: C_18  and  C_20
REMARK                            x       y       z     vdW  Elec       q    Type
REMARK                         _______ _______ _______ _____ _____    ______ ____
ROOT
ATOM      6  N   UNL     1      -3.363 -12.582  12.141  0.00  0.00    -0.293 NA
ATOM     10  C   UNL     1      -3.361 -10.802  10.633  0.00  0.00    +0.092 C 
ATOM     11  C   UNL     1      -2.513 -11.565  12.791  0.00  0.00    +0.147 C 
ATOM     12  C   UNL     1      -2.658 -10.317  11.899  0.00  0.00    +0.050 C 
ATOM     13  C   UNL     1      -3.273 -12.318  10.701  0.00  0.00    +0.105 C 
ATOM     15  C   UNL     1      -2.976 -13.950  12.469  0.00  0.00    +0.105 C 
ENDROOT
BRANCH  11  14
ATOM      2  O   UNL     1      -1.876 -10.925  15.062  0.00  0.00    -0.336 OA
ATOM      8  N   UNL     1      -4.058 -11.369  14.815  0.00  0.00    -0.190 NA
ATOM      9  N   UNL     1      -2.457 -10.735  16.322  0.00  0.00    -0.056 NA
ATOM     14  C   UNL     1      -2.888 -11.297  14.233  0.00  0.00    +0.245 A 
ATOM     18  C   UNL     1      -3.744 -11.016  16.095  0.00  0.00    +0.202 A 
BRANCH  18  20
ATOM     20  C   UNL     1      -4.740 -10.953  17.125  0.00  0.00    +0.023 A 
ATOM     21  C   UNL     1      -5.960 -10.322  16.878  0.00  0.00    +0.015 A 
ATOM     22  C   UNL     1      -4.489 -11.520  18.374  0.00  0.00    +0.015 A 
ATOM     23  C   UNL     1      -6.928 -10.259  17.881  0.00  0.00    +0.046 A 
ATOM     24  C   UNL     1      -5.456 -11.457  19.376  0.00  0.00    +0.046 A 
ATOM     25  C   UNL     1      -6.676 -10.826  19.130  0.00  0.00    +0.120 A 
BRANCH  25   5
ATOM      5  O   UNL     1      -7.620 -10.765  20.108  0.00  0.00    -0.495 OA
ATOM     26  C   UNL     1      -8.959 -11.094  19.739  0.00  0.00    +0.277 C 
ENDBRANCH  25   5
ENDBRANCH  18  20
ENDBRANCH  11  14
BRANCH  10   7
ATOM      7  N   UNL     1      -4.783 -10.376  10.652  0.00  0.00    -0.190 NA
ATOM     27  H   UNL     1      -5.452 -10.972  11.153  0.00  0.00    +0.148 HD
BRANCH   7   1
ATOM      1  S   UNL     1      -5.338  -9.318   9.439  0.00  0.00    +0.030 S 
ATOM      3  O   UNL     1      -4.213  -8.682   8.781  0.00  0.00    -0.158 OA
ATOM      4  O   UNL     1      -6.420  -8.525   9.991  0.00  0.00    -0.158 OA
BRANCH   1  16
ATOM     16  C   UNL     1      -6.058 -10.475   8.296  0.00  0.00    +0.185 C 
BRANCH  16  17
ATOM     17  C   UNL     1      -5.493 -10.293   6.896  0.00  0.00    +0.021 C 
ATOM     19  C   UNL     1      -6.475  -9.569   5.991  0.00  0.00    +0.005 C 
ENDBRANCH  16  17
ENDBRANCH   1  16
ENDBRANCH   7   1
ENDBRANCH  10   7
TORSDOF 7
ENDMDL
MODEL 6
REMARK VINA RESULT:      -5.6      4.697     10.004
REMARK  Name = 25338588
REMARK  10 active torsions:
REMARK  status: ('A' for Active; 'I' for Inactive)
REMARK    1  A    between atoms: S_1  and  N_7
REMARK    2  A    between atoms: S_1  and  C_16
REMARK    3  A    between atoms: O_5  and  C_25
REMARK    4  A    between atoms: O_5  and  C_26
REMARK    5  A    between atoms: N_6  and  C_15
REMARK    6  A    between atoms: N_7  and  C_10
REMARK    7  A    between atoms: C_11  and  C_14
REMARK    8  A    between atoms: C_16  and  C_17
REMARK    9  A    between atoms: C_17  and  C_19
REMARK   10  A    between atoms: C_18  and  C_20
REMARK                            x       y       z     vdW  Elec       q    Type
REMARK                         _______ _______ _______ _____ _____    ______ ____
ROOT
ATOM      6  N   UNL     1      20.941   6.357  22.591  0.00  0.00    -0.293 NA
ATOM     10  C   UNL     1      22.837   6.042  21.270  0.00  0.00    +0.092 C 
ATOM     11  C   UNL     1      20.638   7.097  21.350  0.00  0.00    +0.147 C 
ATOM     12  C   UNL     1      21.796   6.739  20.398  0.00  0.00    +0.050 C 
ATOM     13  C   UNL     1      22.403   6.334  22.697  0.00  0.00    +0.105 C 
ATOM     15  C   UNL     1      20.319   6.940  23.774  0.00  0.00    +0.105 C 
ENDROOT
BRANCH  11  14
ATOM      2  O   UNL     1      19.237   5.735  19.882  0.00  0.00    -0.336 OA
ATOM      8  N   UNL     1      18.122   7.334  20.984  0.00  0.00    -0.190 NA
ATOM      9  N   UNL     1      17.899   5.621  19.485  0.00  0.00    -0.056 NA
ATOM     14  C   UNL     1      19.281   6.767  20.766  0.00  0.00    +0.245 A 
ATOM     18  C   UNL     1      17.305   6.598  20.178  0.00  0.00    +0.202 A 
BRANCH  18  20
ATOM     20  C   UNL     1      15.898   6.863  20.085  0.00  0.00    +0.023 A 
ATOM     21  C   UNL     1      15.120   6.909  21.243  0.00  0.00    +0.015 A 
ATOM     22  C   UNL     1      15.308   7.072  18.840  0.00  0.00    +0.015 A 
ATOM     23  C   UNL     1      13.752   7.165  21.153  0.00  0.00    +0.046 A 
ATOM     24  C   UNL     1      13.940   7.328  18.750  0.00  0.00    +0.046 A 
ATOM     25  C   UNL     1      13.162   7.374  19.907  0.00  0.00    +0.120 A 
BRANCH  25   5
ATOM      5  O   UNL     1      11.827   7.624  19.818  0.00  0.00    -0.495 OA
ATOM     26  C   UNL     1      11.406   8.549  18.816  0.00  0.00    +0.277 C 
ENDBRANCH  25   5
ENDBRANCH  18  20
ENDBRANCH  11  14
BRANCH  10   7
ATOM      7  N   UNL     1      22.804   4.578  21.020  0.00  0.00    -0.190 NA
ATOM     27  H   UNL     1      21.973   4.061  21.332  0.00  0.00    +0.148 HD
BRANCH   7   1
ATOM      1  S   UNL     1      24.274   3.753  20.786  0.00  0.00    +0.030 S 
ATOM      3  O   UNL     1      25.159   3.982  21.912  0.00  0.00    -0.158 OA
ATOM      4  O   UNL     1      24.722   4.003  19.429  0.00  0.00    -0.158 OA
BRANCH   1  16
ATOM     16  C   UNL     1      23.721   2.064  20.859  0.00  0.00    +0.185 C 
BRANCH  16  17
ATOM     17  C   UNL     1      24.736   1.180  21.565  0.00  0.00    +0.021 C 
ATOM     19  C   UNL     1      24.296   0.851  22.982  0.00  0.00    +0.005 C 
ENDBRANCH  16  17
ENDBRANCH   1  16
ENDBRANCH   7   1
ENDBRANCH  10   7
TORSDOF 7
ENDMDL
MODEL 7
REMARK VINA RESULT:      -5.5     26.474     29.494
REMARK  Name = 25338588
REMARK  10 active torsions:
REMARK  status: ('A' for Active; 'I' for Inactive)
REMARK    1  A    between atoms: S_1  and  N_7
REMARK    2  A    between atoms: S_1  and  C_16
REMARK    3  A    between atoms: O_5  and  C_25
REMARK    4  A    between atoms: O_5  and  C_26
REMARK    5  A    between atoms: N_6  and  C_15
REMARK    6  A    between atoms: N_7  and  C_10
REMARK    7  A    between atoms: C_11  and  C_14
REMARK    8  A    between atoms: C_16  and  C_17
REMARK    9  A    between atoms: C_17  and  C_19
REMARK   10  A    between atoms: C_18  and  C_20
REMARK                            x       y       z     vdW  Elec       q    Type
REMARK                         _______ _______ _______ _____ _____    ______ ____
ROOT
ATOM      6  N   UNL     1      -5.874 -11.925  17.626  0.00  0.00    -0.293 NA
ATOM     10  C   UNL     1      -3.734 -11.233  17.005  0.00  0.00    +0.092 C 
ATOM     11  C   UNL     1      -5.965 -10.452  17.615  0.00  0.00    +0.147 C 
ATOM     12  C   UNL     1      -4.619  -9.989  17.022  0.00  0.00    +0.050 C 
ATOM     13  C   UNL     1      -4.464 -12.237  17.882  0.00  0.00    +0.105 C 
ATOM     15  C   UNL     1      -6.755 -12.548  18.607  0.00  0.00    +0.105 C 
ENDROOT
BRANCH  11  14
ATOM      2  O   UNL     1      -7.176 -10.198  15.507  0.00  0.00    -0.336 OA
ATOM      8  N   UNL     1      -8.182  -9.236  17.262  0.00  0.00    -0.190 NA
ATOM      9  N   UNL     1      -8.352  -9.619  15.014  0.00  0.00    -0.056 NA
ATOM     14  C   UNL     1      -7.154  -9.926  16.839  0.00  0.00    +0.245 A 
ATOM     18  C   UNL     1      -8.890  -9.071  16.108  0.00  0.00    +0.202 A 
BRANCH  18  20
ATOM     20  C   UNL     1     -10.132  -8.354  16.080  0.00  0.00    +0.023 A 
ATOM     21  C   UNL     1     -11.331  -9.028  16.312  0.00  0.00    +0.015 A 
ATOM     22  C   UNL     1     -10.140  -6.985  15.820  0.00  0.00    +0.015 A 
ATOM     23  C   UNL     1     -12.539  -8.332  16.284  0.00  0.00    +0.046 A 
ATOM     24  C   UNL     1     -11.348  -6.288  15.791  0.00  0.00    +0.046 A 
ATOM     25  C   UNL     1     -12.548  -6.962  16.023  0.00  0.00    +0.120 A 
BRANCH  25   5
ATOM      5  O   UNL     1     -13.726  -6.281  15.995  0.00  0.00    -0.495 OA
ATOM     26  C   UNL     1     -14.670  -6.658  14.994  0.00  0.00    +0.277 C 
ENDBRANCH  25   5
ENDBRANCH  18  20
ENDBRANCH  11  14
BRANCH  10   7
ATOM      7  N   UNL     1      -3.627 -11.755  15.619  0.00  0.00    -0.190 NA
ATOM     27  H   UNL     1      -4.321 -12.450  15.318  0.00  0.00    +0.148 HD
BRANCH   7   1
ATOM      1  S   UNL     1      -2.129 -11.655  14.817  0.00  0.00    +0.030 S 
ATOM      3  O   UNL     1      -1.797 -12.935  14.223  0.00  0.00    -0.158 OA
ATOM      4  O   UNL     1      -1.192 -10.979  15.694  0.00  0.00    -0.158 OA
BRANCH   1  16
ATOM     16  C   UNL     1      -2.533 -10.529  13.502  0.00  0.00    +0.185 C 
BRANCH  16  17
ATOM     17  C   UNL     1      -1.956 -10.997  12.176  0.00  0.00    +0.021 C 
ATOM     19  C   UNL     1      -3.041 -11.156  11.124  0.00  0.00    +0.005 C 
ENDBRANCH  16  17
ENDBRANCH   1  16
ENDBRANCH   7   1
ENDBRANCH  10   7
TORSDOF 7
ENDMDL
MODEL 8
REMARK VINA RESULT:      -5.3     26.337     29.061
REMARK  Name = 25338588
REMARK  10 active torsions:
REMARK  status: ('A' for Active; 'I' for Inactive)
REMARK    1  A    between atoms: S_1  and  N_7
REMARK    2  A    between atoms: S_1  and  C_16
REMARK    3  A    between atoms: O_5  and  C_25
REMARK    4  A    between atoms: O_5  and  C_26
REMARK    5  A    between atoms: N_6  and  C_15
REMARK    6  A    between atoms: N_7  and  C_10
REMARK    7  A    between atoms: C_11  and  C_14
REMARK    8  A    between atoms: C_16  and  C_17
REMARK    9  A    between atoms: C_17  and  C_19
REMARK   10  A    between atoms: C_18  and  C_20
REMARK                            x       y       z     vdW  Elec       q    Type
REMARK                         _______ _______ _______ _____ _____    ______ ____
ROOT
ATOM      6  N   UNL     1      -4.253 -12.623  15.611  0.00  0.00    -0.293 NA
ATOM     10  C   UNL     1      -2.557 -11.230  14.822  0.00  0.00    +0.092 C 
ATOM     11  C   UNL     1      -3.971 -11.725  16.748  0.00  0.00    +0.147 C 
ATOM     12  C   UNL     1      -2.992 -10.680  16.178  0.00  0.00    +0.050 C 
ATOM     13  C   UNL     1      -3.014 -12.679  14.829  0.00  0.00    +0.105 C 
ATOM     15  C   UNL     1      -4.697 -13.950  16.023  0.00  0.00    +0.105 C 
ENDROOT
BRANCH  11  14
ATOM      2  O   UNL     1      -5.191 -10.860  18.681  0.00  0.00    -0.336 OA
ATOM      8  N   UNL     1      -6.325 -10.735  16.754  0.00  0.00    -0.190 NA
ATOM      9  N   UNL     1      -6.427 -10.283  18.994  0.00  0.00    -0.056 NA
ATOM     14  C   UNL     1      -5.213 -11.095  17.343  0.00  0.00    +0.245 A 
ATOM     18  C   UNL     1      -7.040 -10.242  17.807  0.00  0.00    +0.202 A 
BRANCH  18  20
ATOM     20  C   UNL     1      -8.364  -9.716  17.639  0.00  0.00    +0.023 A 
ATOM     21  C   UNL     1      -9.403 -10.174  18.449  0.00  0.00    +0.015 A 
ATOM     22  C   UNL     1      -8.611  -8.748  16.667  0.00  0.00    +0.015 A 
ATOM     23  C   UNL     1     -10.691  -9.663  18.286  0.00  0.00    +0.046 A 
ATOM     24  C   UNL     1      -9.899  -8.238  16.502  0.00  0.00    +0.046 A 
ATOM     25  C   UNL     1     -10.939  -8.696  17.312  0.00  0.00    +0.120 A 
BRANCH  25   5
ATOM      5  O   UNL     1     -12.195  -8.196  17.152  0.00  0.00    -0.495 OA
ATOM     26  C   UNL     1     -12.429  -7.386  16.000  0.00  0.00    +0.277 C 
ENDBRANCH  25   5
ENDBRANCH  18  20
ENDBRANCH  11  14
BRANCH  10   7
ATOM      7  N   UNL     1      -3.244 -10.487  13.734  0.00  0.00    -0.190 NA
ATOM     27  H   UNL     1      -4.208 -10.179  13.905  0.00  0.00    +0.148 HD
BRANCH   7   1
ATOM      1  S   UNL     1      -2.685 -10.669  12.137  0.00  0.00    +0.030 S 
ATOM      3  O   UNL     1      -2.736 -12.065  11.748  0.00  0.00    -0.158 OA
ATOM      4  O   UNL     1      -1.460  -9.906  11.997  0.00  0.00    -0.158 OA
BRANCH   1  16
ATOM     16  C   UNL     1      -3.954  -9.804  11.242  0.00  0.00    +0.185 C 
BRANCH  16  17
ATOM     17  C   UNL     1      -3.405  -9.173   9.972  0.00  0.00    +0.021 C 
ATOM     19  C   UNL     1      -4.439  -9.173   8.859  0.00  0.00    +0.005 C 
ENDBRANCH  16  17
ENDBRANCH   1  16
ENDBRANCH   7   1
ENDBRANCH  10   7
TORSDOF 7
ENDMDL
MODEL 9
REMARK VINA RESULT:      -5.3     15.910     17.620
REMARK  Name = 25338588
REMARK  10 active torsions:
REMARK  status: ('A' for Active; 'I' for Inactive)
REMARK    1  A    between atoms: S_1  and  N_7
REMARK    2  A    between atoms: S_1  and  C_16
REMARK    3  A    between atoms: O_5  and  C_25
REMARK    4  A    between atoms: O_5  and  C_26
REMARK    5  A    between atoms: N_6  and  C_15
REMARK    6  A    between atoms: N_7  and  C_10
REMARK    7  A    between atoms: C_11  and  C_14
REMARK    8  A    between atoms: C_16  and  C_17
REMARK    9  A    between atoms: C_17  and  C_19
REMARK   10  A    between atoms: C_18  and  C_20
REMARK                            x       y       z     vdW  Elec       q    Type
REMARK                         _______ _______ _______ _____ _____    ______ ____
ROOT
ATOM      6  N   UNL     1       9.833   5.726   7.413  0.00  0.00    -0.293 NA
ATOM     10  C   UNL     1       8.622   7.712   7.596  0.00  0.00    +0.092 C 
ATOM     11  C   UNL     1       9.194   5.878   6.091  0.00  0.00    +0.147 C 
ATOM     12  C   UNL     1       8.549   7.277   6.134  0.00  0.00    +0.050 C 
ATOM     13  C   UNL     1       8.971   6.444   8.358  0.00  0.00    +0.105 C 
ATOM     15  C   UNL     1      10.026   4.334   7.803  0.00  0.00    +0.105 C 
ENDROOT
BRANCH  11  14
ATOM      2  O   UNL     1      11.265   6.502   4.953  0.00  0.00    -0.336 OA
ATOM      8  N   UNL     1      10.082   4.921   3.897  0.00  0.00    -0.190 NA
ATOM      9  N   UNL     1      11.990   6.178   3.800  0.00  0.00    -0.056 NA
ATOM     14  C   UNL     1      10.156   5.716   4.933  0.00  0.00    +0.245 A 
ATOM     18  C   UNL     1      11.228   5.239   3.230  0.00  0.00    +0.202 A 
BRANCH  18  20
ATOM     20  C   UNL     1      11.585   4.601   1.996  0.00  0.00    +0.023 A 
ATOM     21  C   UNL     1      10.747   4.710   0.886  0.00  0.00    +0.015 A 
ATOM     22  C   UNL     1      12.770   3.871   1.906  0.00  0.00    +0.015 A 
ATOM     23  C   UNL     1      11.093   4.089  -0.314  0.00  0.00    +0.046 A 
ATOM     24  C   UNL     1      13.116   3.249   0.706  0.00  0.00    +0.046 A 
ATOM     25  C   UNL     1      12.277   3.358  -0.403  0.00  0.00    +0.120 A 
BRANCH  25   5
ATOM      5  O   UNL     1      12.616   2.751  -1.574  0.00  0.00    -0.495 OA
ATOM     26  C   UNL     1      11.549   2.392  -2.451  0.00  0.00    +0.277 C 
ENDBRANCH  25   5
ENDBRANCH  18  20
ENDBRANCH  11  14
BRANCH  10   7
ATOM      7  N   UNL     1       9.699   8.720   7.768  0.00  0.00    -0.190 NA
ATOM     27  H   UNL     1      10.143   8.788   8.692  0.00  0.00    +0.148 HD
BRANCH   7   1
ATOM      1  S   UNL     1       9.761  10.045   6.701  0.00  0.00    +0.030 S 
ATOM      3  O   UNL     1       8.489  10.197   6.023  0.00  0.00    -0.158 OA
ATOM      4  O   UNL     1      10.997   9.960   5.947  0.00  0.00    -0.158 OA
BRANCH   1  16
ATOM     16  C   UNL     1       9.933  11.389   7.853  0.00  0.00    +0.185 C 
BRANCH  16  17
ATOM     17  C   UNL     1      10.067  10.881   9.280  0.00  0.00    +0.021 C 
ATOM     19  C   UNL     1       8.937  11.392  10.158  0.00  0.00    +0.005 C 
ENDBRANCH  16  17
ENDBRANCH   1  16
ENDBRANCH   7   1
ENDBRANCH  10   7
TORSDOF 7
ENDMDL
MODEL 10
REMARK VINA RESULT:      -5.2     18.750     21.267
REMARK  Name = 25338588
REMARK  10 active torsions:
REMARK  status: ('A' for Active; 'I' for Inactive)
REMARK    1  A    between atoms: S_1  and  N_7
REMARK    2  A    between atoms: S_1  and  C_16
REMARK    3  A    between atoms: O_5  and  C_25
REMARK    4  A    between atoms: O_5  and  C_26
REMARK    5  A    between atoms: N_6  and  C_15
REMARK    6  A    between atoms: N_7  and  C_10
REMARK    7  A    between atoms: C_11  and  C_14
REMARK    8  A    between atoms: C_16  and  C_17
REMARK    9  A    between atoms: C_17  and  C_19
REMARK   10  A    between atoms: C_18  and  C_20
REMARK                            x       y       z     vdW  Elec       q    Type
REMARK                         _______ _______ _______ _____ _____    ______ ____
ROOT
ATOM      6  N   UNL     1      12.313   3.909   0.389  0.00  0.00    -0.293 NA
ATOM     10  C   UNL     1      11.589   4.926  -1.582  0.00  0.00    +0.092 C 
ATOM     11  C   UNL     1      12.285   5.347   0.719  0.00  0.00    +0.147 C 
ATOM     12  C   UNL     1      11.628   6.010  -0.507  0.00  0.00    +0.050 C 
ATOM     13  C   UNL     1      12.512   3.836  -1.062  0.00  0.00    +0.105 C 
ATOM     15  C   UNL     1      13.340   3.172   1.116  0.00  0.00    +0.105 C 
ENDROOT
BRANCH  11  14
ATOM      2  O   UNL     1      10.435   6.421   1.902  0.00  0.00    -0.336 OA
ATOM      8  N   UNL     1      11.841   5.295   3.234  0.00  0.00    -0.190 NA
ATOM      9  N   UNL     1       9.942   6.569   3.204  0.00  0.00    -0.056 NA
ATOM     14  C   UNL     1      11.554   5.657   2.009  0.00  0.00    +0.245 A 
ATOM     18  C   UNL     1      10.825   5.878   3.932  0.00  0.00    +0.202 A 
BRANCH  18  20
ATOM     20  C   UNL     1      10.718   5.751   5.357  0.00  0.00    +0.023 A 
ATOM     21  C   UNL     1       9.822   4.836   5.910  0.00  0.00    +0.015 A 
ATOM     22  C   UNL     1      11.509   6.542   6.188  0.00  0.00    +0.015 A 
ATOM     23  C   UNL     1       9.717   4.713   7.295  0.00  0.00    +0.046 A 
ATOM     24  C   UNL     1      11.404   6.420   7.574  0.00  0.00    +0.046 A 
ATOM     25  C   UNL     1      10.508   5.505   8.127  0.00  0.00    +0.120 A 
BRANCH  25   5
ATOM      5  O   UNL     1      10.407   5.385   9.480  0.00  0.00    -0.495 OA
ATOM     26  C   UNL     1       9.329   4.596   9.982  0.00  0.00    +0.277 C 
ENDBRANCH  25   5
ENDBRANCH  18  20
ENDBRANCH  11  14
BRANCH  10   7
ATOM      7  N   UNL     1      10.207   4.399  -1.716  0.00  0.00    -0.190 NA
ATOM     27  H   UNL     1       9.887   3.722  -1.013  0.00  0.00    +0.148 HD
BRANCH   7   1
ATOM      1  S   UNL     1       9.451   4.459  -3.239  0.00  0.00    +0.030 S 
ATOM      3  O   UNL     1       8.407   5.465  -3.237  0.00  0.00    -0.158 OA
ATOM      4  O   UNL     1       9.168   3.099  -3.657  0.00  0.00    -0.158 OA
BRANCH   1  16
ATOM     16  C   UNL     1      10.787   5.057  -4.249  0.00  0.00    +0.185 C 
BRANCH  16  17
ATOM     17  C   UNL     1      10.959   4.209  -5.498  0.00  0.00    +0.021 C 
ATOM     19  C   UNL     1      12.200   3.337  -5.411  0.00  0.00    +0.005 C 
ENDBRANCH  16  17
ENDBRANCH   1  16
ENDBRANCH   7   1
ENDBRANCH  10   7
TORSDOF 7
ENDMDL
