MODEL 1
REMARK VINA RESULT:      -9.0      0.000      0.000
REMARK  Name = 25338519
REMARK  5 active torsions:
REMARK  status: ('A' for Active; 'I' for Inactive)
REMARK    1  A    between atoms: N_3  and  C_13
REMARK    2  A    between atoms: N_4  and  C_8
REMARK    3  A    between atoms: C_9  and  C_12
REMARK    4  A    between atoms: C_14  and  C_16
REMARK    5  A    between atoms: C_15  and  C_17
REMARK                            x       y       z     vdW  Elec       q    Type
REMARK                         _______ _______ _______ _____ _____    ______ ____
ROOT
ATOM      3  N   UNL     1      11.448   6.906  21.635  0.00  0.00    -0.293 NA
ATOM      8  C   UNL     1      10.667   9.093  21.834  0.00  0.00    +0.089 C 
ATOM      9  C   UNL     1      11.708   7.494  20.308  0.00  0.00    +0.147 C 
ATOM     10  C   UNL     1      11.339   8.983  20.466  0.00  0.00    +0.052 C 
ATOM     11  C   UNL     1      10.319   7.656  22.193  0.00  0.00    +0.107 C 
ATOM     13  C   UNL     1      11.178   5.473  21.585  0.00  0.00    +0.105 C 
ENDROOT
BRANCH   9  12
ATOM      1  O   UNL     1      13.363   7.538  18.511  0.00  0.00    -0.336 OA
ATOM      5  N   UNL     1      14.188   6.918  20.499  0.00  0.00    -0.190 NA
ATOM      6  N   UNL     1      14.726   7.290  18.307  0.00  0.00    -0.056 NA
ATOM     12  C   UNL     1      13.129   7.296  19.827  0.00  0.00    +0.245 A 
ATOM     15  C   UNL     1      15.143   6.930  19.524  0.00  0.00    +0.202 A 
BRANCH  15  17
ATOM     17  C   UNL     1      16.505   6.576  19.800  0.00  0.00    +0.023 A 
ATOM     18  C   UNL     1      17.167   7.149  20.886  0.00  0.00    +0.020 A 
ATOM     19  C   UNL     1      17.165   5.662  18.984  0.00  0.00    +0.012 A 
ATOM     22  C   UNL     1      18.501   6.814  21.171  0.00  0.00    -0.017 A 
ATOM     23  C   UNL     1      19.173   5.884  20.341  0.00  0.00    -0.018 A 
ATOM     24  C   UNL     1      18.491   5.318  19.252  0.00  0.00    +0.009 A 
ATOM     26  C   UNL     1      19.183   7.380  22.260  0.00  0.00    +0.008 A 
ATOM     27  C   UNL     1      20.506   5.548  20.625  0.00  0.00    +0.008 A 
ATOM     29  C   UNL     1      20.509   7.035  22.527  0.00  0.00    +0.001 A 
ATOM     30  C   UNL     1      21.168   6.121  21.711  0.00  0.00    +0.001 A 
ENDBRANCH  15  17
ENDBRANCH   9  12
BRANCH   8   4
ATOM      2  O   UNL     1      11.096  11.894  22.293  0.00  0.00    -0.270 OA
ATOM      4  N   UNL     1      11.550   9.681  22.814  0.00  0.00    -0.307 N 
ATOM     14  C   UNL     1      11.690  11.052  22.961  0.00  0.00    +0.246 C 
ATOM     31  H   UNL     1      12.150   9.046  23.332  0.00  0.00    +0.149 HD
BRANCH  14  16
ATOM      7  N   UNL     1      13.052  12.506  26.157  0.00  0.00    -0.263 NA
ATOM     16  C   UNL     1      12.658  11.497  23.996  0.00  0.00    +0.055 A 
ATOM     20  C   UNL     1      14.028  11.341  23.811  0.00  0.00    +0.016 A 
ATOM     21  C   UNL     1      12.225  12.080  25.176  0.00  0.00    +0.123 A 
ATOM     25  C   UNL     1      14.910  11.767  24.798  0.00  0.00    +0.020 A 
ATOM     28  C   UNL     1      14.376  12.338  25.942  0.00  0.00    +0.111 A 
ENDBRANCH  14  16
ENDBRANCH   8   4
TORSDOF 4
ENDMDL
MODEL 2
REMARK VINA RESULT:      -7.7     27.216     29.947
REMARK  Name = 25338519
REMARK  5 active torsions:
REMARK  status: ('A' for Active; 'I' for Inactive)
REMARK    1  A    between atoms: N_3  and  C_13
REMARK    2  A    between atoms: N_4  and  C_8
REMARK    3  A    between atoms: C_9  and  C_12
REMARK    4  A    between atoms: C_14  and  C_16
REMARK    5  A    between atoms: C_15  and  C_17
REMARK                            x       y       z     vdW  Elec       q    Type
REMARK                         _______ _______ _______ _____ _____    ______ ____
ROOT
ATOM      3  N   UNL     1      -4.498 -12.616  15.824  0.00  0.00    -0.293 NA
ATOM      8  C   UNL     1      -2.893 -11.184  14.926  0.00  0.00    +0.089 C 
ATOM      9  C   UNL     1      -4.280 -11.621  16.890  0.00  0.00    +0.147 C 
ATOM     10  C   UNL     1      -3.335 -10.579  16.258  0.00  0.00    +0.052 C 
ATOM     11  C   UNL     1      -3.253 -12.656  15.050  0.00  0.00    +0.107 C 
ATOM     13  C   UNL     1      -4.866 -13.933  16.333  0.00  0.00    +0.105 C 
ENDROOT
BRANCH   9  12
ATOM      1  O   UNL     1      -5.667 -10.883  18.760  0.00  0.00    -0.336 OA
ATOM      5  N   UNL     1      -6.600 -10.563  16.749  0.00  0.00    -0.190 NA
ATOM      6  N   UNL     1      -6.916 -10.297  18.998  0.00  0.00    -0.056 NA
ATOM     12  C   UNL     1      -5.559 -11.004  17.412  0.00  0.00    +0.245 A 
ATOM     15  C   UNL     1      -7.405 -10.138  17.765  0.00  0.00    +0.202 A 
BRANCH  15  17
ATOM     17  C   UNL     1      -8.693  -9.560  17.514  0.00  0.00    +0.023 A 
ATOM     18  C   UNL     1      -8.801  -8.422  16.713  0.00  0.00    +0.020 A 
ATOM     19  C   UNL     1      -9.834 -10.134  18.067  0.00  0.00    +0.012 A 
ATOM     22  C   UNL     1     -10.054  -7.842  16.456  0.00  0.00    -0.017 A 
ATOM     23  C   UNL     1     -11.215  -8.426  17.019  0.00  0.00    -0.018 A 
ATOM     24  C   UNL     1     -11.087  -9.571  17.822  0.00  0.00    +0.009 A 
ATOM     26  C   UNL     1     -10.182  -6.697  15.654  0.00  0.00    +0.008 A 
ATOM     27  C   UNL     1     -12.468  -7.847  16.763  0.00  0.00    +0.008 A 
ATOM     29  C   UNL     1     -11.436  -6.135  15.410  0.00  0.00    +0.001 A 
ATOM     30  C   UNL     1     -12.576  -6.709  15.964  0.00  0.00    +0.001 A 
ENDBRANCH  15  17
ENDBRANCH   9  12
BRANCH   8   4
ATOM      2  O   UNL     1      -1.963 -11.051  12.213  0.00  0.00    -0.270 OA
ATOM      4  N   UNL     1      -3.573 -10.568  13.811  0.00  0.00    -0.307 N 
ATOM     14  C   UNL     1      -3.041 -10.555  12.531  0.00  0.00    +0.246 C 
ATOM     31  H   UNL     1      -4.420 -10.048  14.019  0.00  0.00    +0.149 HD
BRANCH  14  16
ATOM      7  N   UNL     1      -5.975  -8.915  10.832  0.00  0.00    -0.263 NA
ATOM     16  C   UNL     1      -3.851  -9.858  11.500  0.00  0.00    +0.055 A 
ATOM     20  C   UNL     1      -3.299  -9.496  10.276  0.00  0.00    +0.016 A 
ATOM     21  C   UNL     1      -5.183  -9.547  11.727  0.00  0.00    +0.123 A 
ATOM     25  C   UNL     1      -4.082  -8.844   9.331  0.00  0.00    +0.020 A 
ATOM     28  C   UNL     1      -5.403  -8.579   9.654  0.00  0.00    +0.111 A 
ENDBRANCH  14  16
ENDBRANCH   8   4
TORSDOF 4
ENDMDL
MODEL 3
REMARK VINA RESULT:      -7.6      2.269      8.145
REMARK  Name = 25338519
REMARK  5 active torsions:
REMARK  status: ('A' for Active; 'I' for Inactive)
REMARK    1  A    between atoms: N_3  and  C_13
REMARK    2  A    between atoms: N_4  and  C_8
REMARK    3  A    between atoms: C_9  and  C_12
REMARK    4  A    between atoms: C_14  and  C_16
REMARK    5  A    between atoms: C_15  and  C_17
REMARK                            x       y       z     vdW  Elec       q    Type
REMARK                         _______ _______ _______ _____ _____    ______ ____
ROOT
ATOM      3  N   UNL     1      13.339   9.030  18.136  0.00  0.00    -0.293 NA
ATOM      8  C   UNL     1      14.267   6.936  18.573  0.00  0.00    +0.089 C 
ATOM      9  C   UNL     1      12.305   8.347  18.936  0.00  0.00    +0.147 C 
ATOM     10  C   UNL     1      12.961   7.019  19.364  0.00  0.00    +0.052 C 
ATOM     11  C   UNL     1      14.096   7.967  17.468  0.00  0.00    +0.107 C 
ATOM     13  C   UNL     1      12.789   9.988  17.184  0.00  0.00    +0.105 C 
ENDROOT
BRANCH   9  12
ATOM      1  O   UNL     1      10.951   8.546  20.960  0.00  0.00    -0.336 OA
ATOM      5  N   UNL     1      12.112  10.393  20.452  0.00  0.00    -0.190 NA
ATOM      6  N   UNL     1      10.648   9.483  21.955  0.00  0.00    -0.056 NA
ATOM     12  C   UNL     1      11.819   9.161  20.115  0.00  0.00    +0.245 A 
ATOM     15  C   UNL     1      11.370  10.545  21.587  0.00  0.00    +0.202 A 
BRANCH  15  17
ATOM     17  C   UNL     1      11.373  11.771  22.330  0.00  0.00    +0.023 A 
ATOM     18  C   UNL     1      11.839  11.788  23.645  0.00  0.00    +0.020 A 
ATOM     19  C   UNL     1      10.912  12.944  21.739  0.00  0.00    +0.012 A 
ATOM     22  C   UNL     1      11.849  12.980  24.387  0.00  0.00    -0.017 A 
ATOM     23  C   UNL     1      11.381  14.173  23.786  0.00  0.00    -0.018 A 
ATOM     24  C   UNL     1      10.916  14.138  22.462  0.00  0.00    +0.009 A 
ATOM     26  C   UNL     1      12.314  13.016  25.712  0.00  0.00    +0.008 A 
ATOM     27  C   UNL     1      11.391  15.366  24.527  0.00  0.00    +0.008 A 
ATOM     29  C   UNL     1      12.317  14.210  26.434  0.00  0.00    +0.001 A 
ATOM     30  C   UNL     1      11.856  15.382  25.843  0.00  0.00    +0.001 A 
ENDBRANCH  15  17
ENDBRANCH   9  12
BRANCH   8   4
ATOM      2  O   UNL     1      16.721   5.454  18.714  0.00  0.00    -0.270 OA
ATOM      4  N   UNL     1      15.410   7.238  19.402  0.00  0.00    -0.307 N 
ATOM     14  C   UNL     1      16.556   6.458  19.401  0.00  0.00    +0.246 C 
ATOM     31  H   UNL     1      15.306   7.995  20.071  0.00  0.00    +0.149 HD
BRANCH  14  16
ATOM      7  N   UNL     1      18.437   8.477  21.964  0.00  0.00    -0.263 NA
ATOM     16  C   UNL     1      17.632   6.888  20.330  0.00  0.00    +0.055 A 
ATOM     20  C   UNL     1      18.808   6.155  20.454  0.00  0.00    +0.016 A 
ATOM     21  C   UNL     1      17.497   8.031  21.101  0.00  0.00    +0.123 A 
ATOM     25  C   UNL     1      19.798   6.581  21.332  0.00  0.00    +0.020 A 
ATOM     28  C   UNL     1      19.566   7.739  22.058  0.00  0.00    +0.111 A 
ENDBRANCH  14  16
ENDBRANCH   8   4
TORSDOF 4
ENDMDL
MODEL 4
REMARK VINA RESULT:      -7.5      4.801      6.251
REMARK  Name = 25338519
REMARK  5 active torsions:
REMARK  status: ('A' for Active; 'I' for Inactive)
REMARK    1  A    between atoms: N_3  and  C_13
REMARK    2  A    between atoms: N_4  and  C_8
REMARK    3  A    between atoms: C_9  and  C_12
REMARK    4  A    between atoms: C_14  and  C_16
REMARK    5  A    between atoms: C_15  and  C_17
REMARK                            x       y       z     vdW  Elec       q    Type
REMARK                         _______ _______ _______ _____ _____    ______ ____
ROOT
ATOM      3  N   UNL     1      14.987   7.584  20.107  0.00  0.00    -0.293 NA
ATOM      8  C   UNL     1      12.971   7.279  21.238  0.00  0.00    +0.089 C 
ATOM      9  C   UNL     1      14.057   7.139  19.053  0.00  0.00    +0.147 C 
ATOM     10  C   UNL     1      12.683   7.078  19.750  0.00  0.00    +0.052 C 
ATOM     11  C   UNL     1      14.467   7.031  21.362  0.00  0.00    +0.107 C 
ATOM     13  C   UNL     1      16.367   7.179  19.864  0.00  0.00    +0.105 C 
ENDROOT
BRANCH   9  12
ATOM      1  O   UNL     1      13.596   7.485  16.679  0.00  0.00    -0.336 OA
ATOM      5  N   UNL     1      14.425   9.286  17.722  0.00  0.00    -0.190 NA
ATOM      6  N   UNL     1      13.686   8.491  15.709  0.00  0.00    -0.056 NA
ATOM     12  C   UNL     1      14.050   8.036  17.835  0.00  0.00    +0.245 A 
ATOM     15  C   UNL     1      14.182   9.521  16.400  0.00  0.00    +0.202 A 
BRANCH  15  17
ATOM     17  C   UNL     1      14.446  10.797  15.800  0.00  0.00    +0.023 A 
ATOM     18  C   UNL     1      15.539  11.554  16.225  0.00  0.00    +0.020 A 
ATOM     19  C   UNL     1      13.613  11.279  14.795  0.00  0.00    +0.012 A 
ATOM     22  C   UNL     1      15.812  12.805  15.649  0.00  0.00    -0.017 A 
ATOM     23  C   UNL     1      14.964  13.295  14.626  0.00  0.00    -0.018 A 
ATOM     24  C   UNL     1      13.870  12.519  14.211  0.00  0.00    +0.009 A 
ATOM     26  C   UNL     1      16.906  13.581  16.064  0.00  0.00    +0.008 A 
ATOM     27  C   UNL     1      15.237  14.546  14.049  0.00  0.00    +0.008 A 
ATOM     29  C   UNL     1      17.162  14.822  15.479  0.00  0.00    +0.001 A 
ATOM     30  C   UNL     1      16.329  15.303  14.475  0.00  0.00    +0.001 A 
ENDBRANCH  15  17
ENDBRANCH   9  12
BRANCH   8   4
ATOM      2  O   UNL     1      10.524   8.079  22.507  0.00  0.00    -0.270 OA
ATOM      4  N   UNL     1      12.621   8.610  21.672  0.00  0.00    -0.307 N 
ATOM     14  C   UNL     1      11.408   8.899  22.279  0.00  0.00    +0.246 C 
ATOM     31  H   UNL     1      13.260   9.358  21.424  0.00  0.00    +0.149 HD
BRANCH  14  16
ATOM      7  N   UNL     1      10.620  11.959  24.329  0.00  0.00    -0.263 NA
ATOM     16  C   UNL     1      11.189  10.323  22.643  0.00  0.00    +0.055 A 
ATOM     20  C   UNL     1      11.335  11.335  21.701  0.00  0.00    +0.016 A 
ATOM     21  C   UNL     1      10.834  10.684  23.932  0.00  0.00    +0.123 A 
ATOM     25  C   UNL     1      11.124  12.658  22.071  0.00  0.00    +0.020 A 
ATOM     28  C   UNL     1      10.771  12.915  23.386  0.00  0.00    +0.111 A 
ENDBRANCH  14  16
ENDBRANCH   8   4
TORSDOF 4
ENDMDL
MODEL 5
REMARK VINA RESULT:      -7.4      4.926      6.513
REMARK  Name = 25338519
REMARK  5 active torsions:
REMARK  status: ('A' for Active; 'I' for Inactive)
REMARK    1  A    between atoms: N_3  and  C_13
REMARK    2  A    between atoms: N_4  and  C_8
REMARK    3  A    between atoms: C_9  and  C_12
REMARK    4  A    between atoms: C_14  and  C_16
REMARK    5  A    between atoms: C_15  and  C_17
REMARK                            x       y       z     vdW  Elec       q    Type
REMARK                         _______ _______ _______ _____ _____    ______ ____
ROOT
ATOM      3  N   UNL     1      14.812   7.462  20.013  0.00  0.00    -0.293 NA
ATOM      8  C   UNL     1      12.742   7.258  21.066  0.00  0.00    +0.089 C 
ATOM      9  C   UNL     1      13.896   7.089  18.919  0.00  0.00    +0.147 C 
ATOM     10  C   UNL     1      12.497   7.099  19.566  0.00  0.00    +0.052 C 
ATOM     11  C   UNL     1      14.215   6.921  21.239  0.00  0.00    +0.107 C 
ATOM     13  C   UNL     1      16.174   6.979  19.812  0.00  0.00    +0.105 C 
ENDROOT
BRANCH   9  12
ATOM      1  O   UNL     1      13.543   7.499  16.537  0.00  0.00    -0.336 OA
ATOM      5  N   UNL     1      14.438   9.231  17.640  0.00  0.00    -0.190 NA
ATOM      6  N   UNL     1      13.726   8.513  15.588  0.00  0.00    -0.056 NA
ATOM     12  C   UNL     1      13.987   8.004  17.718  0.00  0.00    +0.245 A 
ATOM     15  C   UNL     1      14.258   9.501  16.315  0.00  0.00    +0.202 A 
BRANCH  15  17
ATOM     17  C   UNL     1      14.618  10.767  15.748  0.00  0.00    +0.023 A 
ATOM     18  C   UNL     1      15.294  10.818  14.528  0.00  0.00    +0.020 A 
ATOM     19  C   UNL     1      14.293  11.945  16.414  0.00  0.00    +0.012 A 
ATOM     22  C   UNL     1      15.654  12.050  13.958  0.00  0.00    -0.017 A 
ATOM     23  C   UNL     1      15.323  13.249  14.636  0.00  0.00    -0.018 A 
ATOM     24  C   UNL     1      14.642  13.178  15.862  0.00  0.00    +0.009 A 
ATOM     26  C   UNL     1      16.334  12.121  12.732  0.00  0.00    +0.008 A 
ATOM     27  C   UNL     1      15.682  14.481  14.067  0.00  0.00    +0.008 A 
ATOM     29  C   UNL     1      16.684  13.354  12.182  0.00  0.00    +0.001 A 
ATOM     30  C   UNL     1      16.359  14.532  12.848  0.00  0.00    +0.001 A 
ENDBRANCH  15  17
ENDBRANCH   9  12
BRANCH   8   4
ATOM      2  O   UNL     1      10.541   8.083  22.714  0.00  0.00    -0.270 OA
ATOM      4  N   UNL     1      12.455   8.602  21.512  0.00  0.00    -0.307 N 
ATOM     14  C   UNL     1      11.362   8.903  22.310  0.00  0.00    +0.246 C 
ATOM     31  H   UNL     1      13.032   9.346  21.132  0.00  0.00    +0.149 HD
BRANCH  14  16
ATOM      7  N   UNL     1      11.153  12.645  21.947  0.00  0.00    -0.263 NA
ATOM     16  C   UNL     1      11.191  10.336  22.660  0.00  0.00    +0.055 A 
ATOM     20  C   UNL     1      10.918  10.728  23.966  0.00  0.00    +0.016 A 
ATOM     21  C   UNL     1      11.297  11.325  21.695  0.00  0.00    +0.123 A 
ATOM     25  C   UNL     1      10.762  12.077  24.264  0.00  0.00    +0.020 A 
ATOM     28  C   UNL     1      10.888  12.988  23.227  0.00  0.00    +0.111 A 
ENDBRANCH  14  16
ENDBRANCH   8   4
TORSDOF 4
ENDMDL
MODEL 6
REMARK VINA RESULT:      -7.4     26.813     29.664
REMARK  Name = 25338519
REMARK  5 active torsions:
REMARK  status: ('A' for Active; 'I' for Inactive)
REMARK    1  A    between atoms: N_3  and  C_13
REMARK    2  A    between atoms: N_4  and  C_8
REMARK    3  A    between atoms: C_9  and  C_12
REMARK    4  A    between atoms: C_14  and  C_16
REMARK    5  A    between atoms: C_15  and  C_17
REMARK                            x       y       z     vdW  Elec       q    Type
REMARK                         _______ _______ _______ _____ _____    ______ ____
ROOT
ATOM      3  N   UNL     1      -2.824 -12.618  14.028  0.00  0.00    -0.293 NA
ATOM      8  C   UNL     1      -2.085 -10.885  12.655  0.00  0.00    +0.089 C 
ATOM      9  C   UNL     1      -2.484 -11.540  14.975  0.00  0.00    +0.147 C 
ATOM     10  C   UNL     1      -2.138 -10.333  14.079  0.00  0.00    +0.052 C 
ATOM     11  C   UNL     1      -1.989 -12.391  12.844  0.00  0.00    +0.107 C 
ATOM     13  C   UNL     1      -2.630 -13.952  14.583  0.00  0.00    +0.105 C 
ENDROOT
BRANCH   9  12
ATOM      1  O   UNL     1      -3.273 -11.344  17.279  0.00  0.00    -0.336 OA
ATOM      5  N   UNL     1      -4.827 -10.869  15.737  0.00  0.00    -0.190 NA
ATOM      6  N   UNL     1      -4.436 -11.016  17.986  0.00  0.00    -0.056 NA
ATOM     12  C   UNL     1      -3.588 -11.232  15.962  0.00  0.00    +0.245 A 
ATOM     15  C   UNL     1      -5.307 -10.749  17.008  0.00  0.00    +0.202 A 
BRANCH  15  17
ATOM     17  C   UNL     1      -6.662 -10.358  17.268  0.00  0.00    +0.023 A 
ATOM     18  C   UNL     1      -7.357 -10.920  18.339  0.00  0.00    +0.020 A 
ATOM     19  C   UNL     1      -7.283  -9.417  16.452  0.00  0.00    +0.012 A 
ATOM     22  C   UNL     1      -8.684 -10.548  18.608  0.00  0.00    -0.017 A 
ATOM     23  C   UNL     1      -9.316  -9.591  17.778  0.00  0.00    -0.018 A 
ATOM     24  C   UNL     1      -8.601  -9.035  16.704  0.00  0.00    +0.009 A 
ATOM     26  C   UNL     1      -9.399 -11.104  19.681  0.00  0.00    +0.008 A 
ATOM     27  C   UNL     1     -10.643  -9.218  18.046  0.00  0.00    +0.008 A 
ATOM     29  C   UNL     1     -10.717 -10.722  19.933  0.00  0.00    +0.001 A 
ATOM     30  C   UNL     1     -11.338  -9.782  19.117  0.00  0.00    +0.001 A 
ENDBRANCH  15  17
ENDBRANCH   9  12
BRANCH   8   4
ATOM      2  O   UNL     1      -2.198  -9.121  10.393  0.00  0.00    -0.270 OA
ATOM      4  N   UNL     1      -3.263 -10.523  11.901  0.00  0.00    -0.307 N 
ATOM     14  C   UNL     1      -3.216  -9.659  10.818  0.00  0.00    +0.246 C 
ATOM     31  H   UNL     1      -4.155 -10.849  12.258  0.00  0.00    +0.149 HD
BRANCH  14  16
ATOM      7  N   UNL     1      -6.850  -8.767  10.387  0.00  0.00    -0.263 NA
ATOM     16  C   UNL     1      -4.518  -9.368  10.166  0.00  0.00    +0.055 A 
ATOM     20  C   UNL     1      -4.654  -9.411   8.782  0.00  0.00    +0.016 A 
ATOM     21  C   UNL     1      -5.637  -9.043  10.916  0.00  0.00    +0.123 A 
ATOM     25  C   UNL     1      -5.885  -9.133   8.200  0.00  0.00    +0.020 A 
ATOM     28  C   UNL     1      -6.943  -8.820   9.039  0.00  0.00    +0.111 A 
ENDBRANCH  14  16
ENDBRANCH   8   4
TORSDOF 4
ENDMDL
MODEL 7
REMARK VINA RESULT:      -7.4     27.764     29.447
REMARK  Name = 25338519
REMARK  5 active torsions:
REMARK  status: ('A' for Active; 'I' for Inactive)
REMARK    1  A    between atoms: N_3  and  C_13
REMARK    2  A    between atoms: N_4  and  C_8
REMARK    3  A    between atoms: C_9  and  C_12
REMARK    4  A    between atoms: C_14  and  C_16
REMARK    5  A    between atoms: C_15  and  C_17
REMARK                            x       y       z     vdW  Elec       q    Type
REMARK                         _______ _______ _______ _____ _____    ______ ____
ROOT
ATOM      3  N   UNL     1      -7.008 -10.917  18.843  0.00  0.00    -0.293 NA
ATOM      8  C   UNL     1      -9.158 -11.413  18.091  0.00  0.00    +0.089 C 
ATOM      9  C   UNL     1      -6.799 -12.011  17.876  0.00  0.00    +0.147 C 
ATOM     10  C   UNL     1      -8.190 -12.249  17.256  0.00  0.00    +0.052 C 
ATOM     11  C   UNL     1      -8.372 -11.086  19.352  0.00  0.00    +0.107 C 
ATOM     13  C   UNL     1      -6.023 -10.904  19.919  0.00  0.00    +0.105 C 
ENDROOT
BRANCH   9  12
ATOM      1  O   UNL     1      -4.452 -11.913  17.203  0.00  0.00    -0.336 OA
ATOM      5  N   UNL     1      -5.887 -11.257  15.613  0.00  0.00    -0.190 NA
ATOM      6  N   UNL     1      -3.672 -11.564  16.094  0.00  0.00    -0.056 NA
ATOM     12  C   UNL     1      -5.743 -11.704  16.836  0.00  0.00    +0.245 A 
ATOM     15  C   UNL     1      -4.590 -11.187  15.197  0.00  0.00    +0.202 A 
BRANCH  15  17
ATOM     17  C   UNL     1      -4.243 -10.739  13.881  0.00  0.00    +0.023 A 
ATOM     18  C   UNL     1      -5.202 -10.113  13.082  0.00  0.00    +0.020 A 
ATOM     19  C   UNL     1      -2.951 -10.926  13.399  0.00  0.00    +0.012 A 
ATOM     22  C   UNL     1      -4.880  -9.668  11.791  0.00  0.00    -0.017 A 
ATOM     23  C   UNL     1      -3.566  -9.858  11.301  0.00  0.00    -0.018 A 
ATOM     24  C   UNL     1      -2.613 -10.489  12.118  0.00  0.00    +0.009 A 
ATOM     26  C   UNL     1      -5.832  -9.037  10.973  0.00  0.00    +0.008 A 
ATOM     27  C   UNL     1      -3.242  -9.412  10.009  0.00  0.00    +0.008 A 
ATOM     29  C   UNL     1      -5.493  -8.600   9.692  0.00  0.00    +0.001 A 
ATOM     30  C   UNL     1      -4.202  -8.788   9.211  0.00  0.00    +0.001 A 
ENDBRANCH  15  17
ENDBRANCH   9  12
BRANCH   8   4
ATOM      2  O   UNL     1     -11.477  -9.811  18.636  0.00  0.00    -0.270 OA
ATOM      4  N   UNL     1      -9.560 -10.212  17.396  0.00  0.00    -0.307 N 
ATOM     14  C   UNL     1     -10.703  -9.504  17.734  0.00  0.00    +0.246 C 
ATOM     31  H   UNL     1      -9.024  -9.957  16.572  0.00  0.00    +0.149 HD
BRANCH  14  16
ATOM      7  N   UNL     1     -10.160  -6.409  15.658  0.00  0.00    -0.263 NA
ATOM     16  C   UNL     1     -10.991  -8.306  16.905  0.00  0.00    +0.055 A 
ATOM     20  C   UNL     1     -12.298  -7.947  16.592  0.00  0.00    +0.016 A 
ATOM     21  C   UNL     1      -9.967  -7.511  16.417  0.00  0.00    +0.123 A 
ATOM     25  C   UNL     1     -12.537  -6.821  15.814  0.00  0.00    +0.020 A 
ATOM     28  C   UNL     1     -11.443  -6.091  15.375  0.00  0.00    +0.111 A 
ENDBRANCH  14  16
ENDBRANCH   8   4
TORSDOF 4
ENDMDL
MODEL 8
REMARK VINA RESULT:      -7.3      1.561      2.538
REMARK  Name = 25338519
REMARK  5 active torsions:
REMARK  status: ('A' for Active; 'I' for Inactive)
REMARK    1  A    between atoms: N_3  and  C_13
REMARK    2  A    between atoms: N_4  and  C_8
REMARK    3  A    between atoms: C_9  and  C_12
REMARK    4  A    between atoms: C_14  and  C_16
REMARK    5  A    between atoms: C_15  and  C_17
REMARK                            x       y       z     vdW  Elec       q    Type
REMARK                         _______ _______ _______ _____ _____    ______ ____
ROOT
ATOM      3  N   UNL     1      12.787   7.843  19.760  0.00  0.00    -0.293 NA
ATOM      8  C   UNL     1      12.826  10.174  19.722  0.00  0.00    +0.089 C 
ATOM      9  C   UNL     1      13.874   8.162  18.815  0.00  0.00    +0.147 C 
ATOM     10  C   UNL     1      14.017   9.695  18.893  0.00  0.00    +0.052 C 
ATOM     11  C   UNL     1      11.872   8.989  19.720  0.00  0.00    +0.107 C 
ATOM     13  C   UNL     1      12.106   6.592  19.451  0.00  0.00    +0.105 C 
ENDROOT
BRANCH   9  12
ATOM      1  O   UNL     1      15.436   6.333  18.384  0.00  0.00    -0.336 OA
ATOM      5  N   UNL     1      16.091   7.730  20.007  0.00  0.00    -0.190 NA
ATOM      6  N   UNL     1      16.667   5.848  18.841  0.00  0.00    -0.056 NA
ATOM     12  C   UNL     1      15.170   7.442  19.121  0.00  0.00    +0.245 A 
ATOM     15  C   UNL     1      16.989   6.724  19.797  0.00  0.00    +0.202 A 
BRANCH  15  17
ATOM     17  C   UNL     1      18.200   6.624  20.559  0.00  0.00    +0.023 A 
ATOM     18  C   UNL     1      19.137   5.637  20.252  0.00  0.00    +0.020 A 
ATOM     19  C   UNL     1      18.439   7.512  21.604  0.00  0.00    +0.012 A 
ATOM     22  C   UNL     1      20.328   5.525  20.988  0.00  0.00    -0.017 A 
ATOM     23  C   UNL     1      20.572   6.428  22.050  0.00  0.00    -0.018 A 
ATOM     24  C   UNL     1      19.618   7.415  22.345  0.00  0.00    +0.009 A 
ATOM     26  C   UNL     1      21.282   4.538  20.693  0.00  0.00    +0.008 A 
ATOM     27  C   UNL     1      21.763   6.318  22.787  0.00  0.00    +0.008 A 
ATOM     29  C   UNL     1      22.460   4.443  21.435  0.00  0.00    +0.001 A 
ATOM     30  C   UNL     1      22.699   5.330  22.480  0.00  0.00    +0.001 A 
ENDBRANCH  15  17
ENDBRANCH   9  12
BRANCH   8   4
ATOM      2  O   UNL     1      11.301  11.708  21.609  0.00  0.00    -0.270 OA
ATOM      4  N   UNL     1      13.221  10.529  21.065  0.00  0.00    -0.307 N 
ATOM     14  C   UNL     1      12.412  11.277  21.905  0.00  0.00    +0.246 C 
ATOM     31  H   UNL     1      14.169  10.295  21.342  0.00  0.00    +0.149 HD
BRANCH  14  16
ATOM      7  N   UNL     1      14.854  11.491  24.765  0.00  0.00    -0.263 NA
ATOM     16  C   UNL     1      12.975  11.580  23.246  0.00  0.00    +0.055 A 
ATOM     20  C   UNL     1      12.209  12.211  24.220  0.00  0.00    +0.016 A 
ATOM     21  C   UNL     1      14.281  11.244  23.565  0.00  0.00    +0.123 A 
ATOM     25  C   UNL     1      12.763  12.481  25.466  0.00  0.00    +0.020 A 
ATOM     28  C   UNL     1      14.078  12.105  25.686  0.00  0.00    +0.111 A 
ENDBRANCH  14  16
ENDBRANCH   8   4
TORSDOF 4
ENDMDL
MODEL 9
REMARK VINA RESULT:      -7.3     26.196     30.075
REMARK  Name = 25338519
REMARK  5 active torsions:
REMARK  status: ('A' for Active; 'I' for Inactive)
REMARK    1  A    between atoms: N_3  and  C_13
REMARK    2  A    between atoms: N_4  and  C_8
REMARK    3  A    between atoms: C_9  and  C_12
REMARK    4  A    between atoms: C_14  and  C_16
REMARK    5  A    between atoms: C_15  and  C_17
REMARK                            x       y       z     vdW  Elec       q    Type
REMARK                         _______ _______ _______ _____ _____    ______ ____
ROOT
ATOM      3  N   UNL     1     -13.397   9.776  33.513  0.00  0.00    -0.293 NA
ATOM      8  C   UNL     1     -11.239  10.161  32.719  0.00  0.00    +0.089 C 
ATOM      9  C   UNL     1     -13.226   8.764  32.453  0.00  0.00    +0.147 C 
ATOM     10  C   UNL     1     -11.753   8.902  32.021  0.00  0.00    +0.052 C 
ATOM     11  C   UNL     1     -12.503  10.883  33.158  0.00  0.00    +0.107 C 
ATOM     13  C   UNL     1     -14.778  10.219  33.667  0.00  0.00    +0.105 C 
ENDROOT
BRANCH   9  12
ATOM      1  O   UNL     1     -13.751   7.174  34.232  0.00  0.00    -0.336 OA
ATOM      5  N   UNL     1     -13.726   6.275  32.181  0.00  0.00    -0.190 NA
ATOM      6  N   UNL     1     -14.056   5.818  34.397  0.00  0.00    -0.056 NA
ATOM     12  C   UNL     1     -13.572   7.360  32.899  0.00  0.00    +0.245 A 
ATOM     15  C   UNL     1     -14.022   5.355  33.144  0.00  0.00    +0.202 A 
BRANCH  15  17
ATOM     17  C   UNL     1     -14.281   3.983  32.821  0.00  0.00    +0.023 A 
ATOM     18  C   UNL     1     -14.320   3.576  31.486  0.00  0.00    +0.020 A 
ATOM     19  C   UNL     1     -14.492   3.056  33.838  0.00  0.00    +0.012 A 
ATOM     22  C   UNL     1     -14.571   2.236  31.152  0.00  0.00    -0.017 A 
ATOM     23  C   UNL     1     -14.785   1.293  32.186  0.00  0.00    -0.018 A 
ATOM     24  C   UNL     1     -14.742   1.720  33.523  0.00  0.00    +0.009 A 
ATOM     26  C   UNL     1     -14.614   1.809  29.815  0.00  0.00    +0.008 A 
ATOM     27  C   UNL     1     -15.036  -0.048  31.853  0.00  0.00    +0.008 A 
ATOM     29  C   UNL     1     -14.866   0.472  29.502  0.00  0.00    +0.001 A 
ATOM     30  C   UNL     1     -15.076  -0.453  30.518  0.00  0.00    +0.001 A 
ENDBRANCH  15  17
ENDBRANCH   9  12
BRANCH   8   4
ATOM      2  O   UNL     1      -8.534  11.023  33.147  0.00  0.00    -0.270 OA
ATOM      4  N   UNL     1     -10.399   9.837  33.848  0.00  0.00    -0.307 N 
ATOM     14  C   UNL     1      -9.099  10.303  33.967  0.00  0.00    +0.246 C 
ATOM     31  H   UNL     1     -10.764   9.163  34.514  0.00  0.00    +0.149 HD
BRANCH  14  16
ATOM      7  N   UNL     1      -6.324   9.895  36.480  0.00  0.00    -0.263 NA
ATOM     16  C   UNL     1      -8.359   9.858  35.174  0.00  0.00    +0.055 A 
ATOM     20  C   UNL     1      -8.953   9.021  36.113  0.00  0.00    +0.016 A 
ATOM     21  C   UNL     1      -7.053  10.263  35.403  0.00  0.00    +0.123 A 
ATOM     25  C   UNL     1      -8.235   8.621  37.234  0.00  0.00    +0.020 A 
ATOM     28  C   UNL     1      -6.935   9.082  37.370  0.00  0.00    +0.111 A 
ENDBRANCH  14  16
ENDBRANCH   8   4
TORSDOF 4
ENDMDL
MODEL 10
REMARK VINA RESULT:      -7.2     24.053     26.733
REMARK  Name = 25338519
REMARK  5 active torsions:
REMARK  status: ('A' for Active; 'I' for Inactive)
REMARK    1  A    between atoms: N_3  and  C_13
REMARK    2  A    between atoms: N_4  and  C_8
REMARK    3  A    between atoms: C_9  and  C_12
REMARK    4  A    between atoms: C_14  and  C_16
REMARK    5  A    between atoms: C_15  and  C_17
REMARK                            x       y       z     vdW  Elec       q    Type
REMARK                         _______ _______ _______ _____ _____    ______ ____
ROOT
ATOM      3  N   UNL     1       5.914   6.972  -5.389  0.00  0.00    -0.293 NA
ATOM      8  C   UNL     1       4.043   6.962  -3.998  0.00  0.00    +0.089 C 
ATOM      9  C   UNL     1       6.482   7.107  -4.035  0.00  0.00    +0.147 C 
ATOM     10  C   UNL     1       5.273   6.949  -3.091  0.00  0.00    +0.052 C 
ATOM     11  C   UNL     1       4.558   7.527  -5.313  0.00  0.00    +0.107 C 
ATOM     13  C   UNL     1       6.714   7.630  -6.416  0.00  0.00    +0.105 C 
ENDROOT
BRANCH   9  12
ATOM      1  O   UNL     1       7.713   5.076  -4.611  0.00  0.00    -0.336 OA
ATOM      5  N   UNL     1       8.445   6.093  -2.754  0.00  0.00    -0.190 NA
ATOM      6  N   UNL     1       8.778   4.301  -4.137  0.00  0.00    -0.056 NA
ATOM     12  C   UNL     1       7.582   6.111  -3.741  0.00  0.00    +0.245 A 
ATOM     15  C   UNL     1       9.157   4.965  -3.041  0.00  0.00    +0.202 A 
BRANCH  15  17
ATOM     17  C   UNL     1      10.242   4.528  -2.211  0.00  0.00    +0.023 A 
ATOM     18  C   UNL     1      10.184   4.718  -0.830  0.00  0.00    +0.020 A 
ATOM     19  C   UNL     1      11.353   3.915  -2.784  0.00  0.00    +0.012 A 
ATOM     22  C   UNL     1      11.238   4.296  -0.003  0.00  0.00    -0.017 A 
ATOM     23  C   UNL     1      12.367   3.673  -0.586  0.00  0.00    -0.018 A 
ATOM     24  C   UNL     1      12.409   3.490  -1.978  0.00  0.00    +0.009 A 
ATOM     26  C   UNL     1      11.197   4.479   1.388  0.00  0.00    +0.008 A 
ATOM     27  C   UNL     1      13.422   3.251   0.240  0.00  0.00    +0.008 A 
ATOM     29  C   UNL     1      12.254   4.054   2.194  0.00  0.00    +0.001 A 
ATOM     30  C   UNL     1      13.363   3.442   1.621  0.00  0.00    +0.001 A 
ENDBRANCH  15  17
ENDBRANCH   9  12
BRANCH   8   4
ATOM      2  O   UNL     1       1.454   6.299  -5.045  0.00  0.00    -0.270 OA
ATOM      4  N   UNL     1       3.497   5.637  -4.173  0.00  0.00    -0.307 N 
ATOM     14  C   UNL     1       2.230   5.416  -4.689  0.00  0.00    +0.246 C 
ATOM     31  H   UNL     1       4.042   4.863  -3.805  0.00  0.00    +0.149 HD
BRANCH  14  16
ATOM      7  N   UNL     1       0.160   2.296  -4.281  0.00  0.00    -0.263 NA
ATOM     16  C   UNL     1       1.805   3.996  -4.781  0.00  0.00    +0.055 A 
ATOM     20  C   UNL     1       2.599   3.050  -5.420  0.00  0.00    +0.016 A 
ATOM     21  C   UNL     1       0.605   3.572  -4.233  0.00  0.00    +0.123 A 
ATOM     25  C   UNL     1       2.175   1.728  -5.489  0.00  0.00    +0.020 A 
ATOM     28  C   UNL     1       0.959   1.405  -4.909  0.00  0.00    +0.111 A 
ENDBRANCH  14  16
ENDBRANCH   8   4
TORSDOF 4
ENDMDL
