MODEL 1
REMARK VINA RESULT:      -6.8      0.000      0.000
REMARK  Name = 75536976
REMARK  5 active torsions:
REMARK  status: ('A' for Active; 'I' for Inactive)
REMARK    1  A    between atoms: S_1  and  N_6
REMARK    2  A    between atoms: S_1  and  C_16
REMARK    3  A    between atoms: N_7  and  C_15
REMARK    4  A    between atoms: C_15  and  C_17
REMARK    5  A    between atoms: C_16  and  C_18
REMARK                            x       y       z     vdW  Elec       q    Type
REMARK                         _______ _______ _______ _____ _____    ______ ____
ROOT
ATOM      2  O   UNL     1      15.828   9.744  20.144  0.00  0.00    -0.252 OA
ATOM      5  N   UNL     1      17.267   8.138  21.078  0.00  0.00    -0.278 N 
ATOM      6  N   UNL     1      19.679   6.954  21.849  0.00  0.00    -0.178 NA
ATOM      7  N   UNL     1      15.586   7.429  19.767  0.00  0.00    -0.279 N 
ATOM      9  C   UNL     1      17.334   6.691  21.151  0.00  0.00    +0.111 C 
ATOM     10  C   UNL     1      18.762   6.213  20.919  0.00  0.00    +0.133 C 
ATOM     11  C   UNL     1      16.328   6.227  20.099  0.00  0.00    +0.133 C 
ATOM     12  C   UNL     1      18.201   8.939  21.843  0.00  0.00    +0.127 C 
ATOM     13  C   UNL     1      19.625   8.436  21.621  0.00  0.00    +0.128 C 
ATOM     14  C   UNL     1      16.181   8.584  20.312  0.00  0.00    +0.305 C 
ENDROOT
BRANCH   6   1
ATOM      1  S   UNL     1      21.255   6.296  21.996  0.00  0.00    +0.036 S 
ATOM      3  O   UNL     1      21.295   5.446  23.166  0.00  0.00    -0.158 OA
ATOM      4  O   UNL     1      22.219   7.353  21.790  0.00  0.00    -0.158 OA
BRANCH   1  16
ATOM     16  C   UNL     1      21.262   5.256  20.560  0.00  0.00    +0.220 C 
BRANCH  16  18
ATOM     18  C   UNL     1      22.456   4.356  20.654  0.00  0.00    -0.025 A 
ATOM     21  C   UNL     1      22.310   3.052  21.131  0.00  0.00    +0.005 A 
ATOM     22  C   UNL     1      23.713   4.820  20.268  0.00  0.00    +0.005 A 
ATOM     24  C   UNL     1      23.422   2.214  21.219  0.00  0.00    +0.000 A 
ATOM     25  C   UNL     1      24.824   3.982  20.356  0.00  0.00    +0.000 A 
ATOM     27  C   UNL     1      24.678   2.680  20.832  0.00  0.00    +0.000 A 
ENDBRANCH  16  18
ENDBRANCH   1  16
ENDBRANCH   6   1
BRANCH   7  15
ATOM     15  C   UNL     1      14.453   7.406  18.868  0.00  0.00    +0.146 C 
BRANCH  15  17
ATOM      8  N   UNL     1      10.900   8.432  19.659  0.00  0.00    -0.263 NA
ATOM     17  C   UNL     1      13.150   7.552  19.603  0.00  0.00    -0.012 A 
ATOM     19  C   UNL     1      12.967   6.981  20.857  0.00  0.00    +0.008 A 
ATOM     20  C   UNL     1      12.095   8.261  19.053  0.00  0.00    +0.115 A 
ATOM     23  C   UNL     1      11.751   7.135  21.514  0.00  0.00    +0.020 A 
ATOM     26  C   UNL     1      10.759   7.863  20.878  0.00  0.00    +0.111 A 
ENDBRANCH  15  17
ENDBRANCH   7  15
TORSDOF 5
ENDMDL
MODEL 2
REMARK VINA RESULT:      -6.7      5.309      9.185
REMARK  Name = 75536976
REMARK  5 active torsions:
REMARK  status: ('A' for Active; 'I' for Inactive)
REMARK    1  A    between atoms: S_1  and  N_6
REMARK    2  A    between atoms: S_1  and  C_16
REMARK    3  A    between atoms: N_7  and  C_15
REMARK    4  A    between atoms: C_15  and  C_17
REMARK    5  A    between atoms: C_16  and  C_18
REMARK                            x       y       z     vdW  Elec       q    Type
REMARK                         _______ _______ _______ _____ _____    ______ ____
ROOT
ATOM      2  O   UNL     1      12.330   6.623  18.884  0.00  0.00    -0.252 OA
ATOM      5  N   UNL     1      12.924   8.734  18.037  0.00  0.00    -0.278 N 
ATOM      6  N   UNL     1      13.481  10.698  16.127  0.00  0.00    -0.178 NA
ATOM      7  N   UNL     1      14.130   7.888  19.733  0.00  0.00    -0.279 N 
ATOM      9  C   UNL     1      13.853   9.791  18.385  0.00  0.00    +0.111 C 
ATOM     10  C   UNL     1      14.534  10.333  17.134  0.00  0.00    +0.133 C 
ATOM     11  C   UNL     1      14.796   9.131  19.388  0.00  0.00    +0.133 C 
ATOM     12  C   UNL     1      11.952   8.950  16.983  0.00  0.00    +0.127 C 
ATOM     13  C   UNL     1      12.642   9.514  15.745  0.00  0.00    +0.128 C 
ATOM     14  C   UNL     1      13.036   7.624  18.886  0.00  0.00    +0.305 C 
ENDROOT
BRANCH   6   1
ATOM      1  S   UNL     1      14.026  11.660  14.817  0.00  0.00    +0.036 S 
ATOM      3  O   UNL     1      14.393  12.965  15.321  0.00  0.00    -0.158 OA
ATOM      4  O   UNL     1      13.108  11.500  13.712  0.00  0.00    -0.158 OA
BRANCH   1  16
ATOM     16  C   UNL     1      15.517  10.783  14.426  0.00  0.00    +0.220 C 
BRANCH  16  18
ATOM     18  C   UNL     1      16.485  11.766  13.843  0.00  0.00    -0.025 A 
ATOM     21  C   UNL     1      17.581  12.194  14.593  0.00  0.00    +0.005 A 
ATOM     22  C   UNL     1      16.290  12.255  12.552  0.00  0.00    +0.005 A 
ATOM     24  C   UNL     1      18.483  13.110  14.049  0.00  0.00    +0.000 A 
ATOM     25  C   UNL     1      17.191  13.172  12.009  0.00  0.00    +0.000 A 
ATOM     27  C   UNL     1      18.287  13.599  12.758  0.00  0.00    +0.000 A 
ENDBRANCH  16  18
ENDBRANCH   1  16
ENDBRANCH   6   1
BRANCH   7  15
ATOM     15  C   UNL     1      14.649   6.997  20.748  0.00  0.00    +0.146 C 
BRANCH  15  17
ATOM      8  N   UNL     1      18.356   6.467  21.269  0.00  0.00    -0.263 NA
ATOM     17  C   UNL     1      16.076   6.612  20.481  0.00  0.00    -0.012 A 
ATOM     19  C   UNL     1      16.456   6.068  19.260  0.00  0.00    +0.008 A 
ATOM     20  C   UNL     1      17.056   6.790  21.444  0.00  0.00    +0.115 A 
ATOM     23  C   UNL     1      17.785   5.722  19.042  0.00  0.00    +0.020 A 
ATOM     26  C   UNL     1      18.688   5.940  20.069  0.00  0.00    +0.111 A 
ENDBRANCH  15  17
ENDBRANCH   7  15
TORSDOF 5
ENDMDL
MODEL 3
REMARK VINA RESULT:      -6.5     32.998     35.263
REMARK  Name = 75536976
REMARK  5 active torsions:
REMARK  status: ('A' for Active; 'I' for Inactive)
REMARK    1  A    between atoms: S_1  and  N_6
REMARK    2  A    between atoms: S_1  and  C_16
REMARK    3  A    between atoms: N_7  and  C_15
REMARK    4  A    between atoms: C_15  and  C_17
REMARK    5  A    between atoms: C_16  and  C_18
REMARK                            x       y       z     vdW  Elec       q    Type
REMARK                         _______ _______ _______ _____ _____    ______ ____
ROOT
ATOM      2  O   UNL     1     -15.467  -0.173  29.473  0.00  0.00    -0.252 OA
ATOM      5  N   UNL     1     -16.327   1.480  28.041  0.00  0.00    -0.278 N 
ATOM      6  N   UNL     1     -17.040   2.710  25.634  0.00  0.00    -0.178 NA
ATOM      7  N   UNL     1     -14.990   2.123  29.728  0.00  0.00    -0.279 N 
ATOM      9  C   UNL     1     -16.337   2.929  27.982  0.00  0.00    +0.111 C 
ATOM     10  C   UNL     1     -16.081   3.405  26.556  0.00  0.00    +0.133 C 
ATOM     11  C   UNL     1     -15.268   3.342  28.992  0.00  0.00    +0.133 C 
ATOM     12  C   UNL     1     -17.124   0.718  27.101  0.00  0.00    +0.127 C 
ATOM     13  C   UNL     1     -16.877   1.218  25.681  0.00  0.00    +0.128 C 
ATOM     14  C   UNL     1     -15.583   0.996  29.126  0.00  0.00    +0.305 C 
ENDROOT
BRANCH   6   1
ATOM      1  S   UNL     1     -17.155   3.381  24.061  0.00  0.00    +0.036 S 
ATOM      3  O   UNL     1     -18.552   3.574  23.740  0.00  0.00    -0.158 OA
ATOM      4  O   UNL     1     -16.264   2.657  23.182  0.00  0.00    -0.158 OA
BRANCH   1  16
ATOM     16  C   UNL     1     -16.440   4.972  24.381  0.00  0.00    +0.220 C 
BRANCH  16  18
ATOM     18  C   UNL     1     -15.700   5.395  23.149  0.00  0.00    -0.025 A 
ATOM     21  C   UNL     1     -14.307   5.319  23.111  0.00  0.00    +0.005 A 
ATOM     22  C   UNL     1     -16.402   5.867  22.040  0.00  0.00    +0.005 A 
ATOM     24  C   UNL     1     -13.618   5.713  21.964  0.00  0.00    +0.000 A 
ATOM     25  C   UNL     1     -15.713   6.261  20.894  0.00  0.00    +0.000 A 
ATOM     27  C   UNL     1     -14.322   6.184  20.856  0.00  0.00    +0.000 A 
ENDBRANCH  16  18
ENDBRANCH   1  16
ENDBRANCH   6   1
BRANCH   7  15
ATOM     15  C   UNL     1     -14.094   2.101  30.864  0.00  0.00    +0.146 C 
BRANCH  15  17
ATOM      8  N   UNL     1     -13.832   5.102  33.151  0.00  0.00    -0.263 NA
ATOM     17  C   UNL     1     -14.459   3.140  31.887  0.00  0.00    -0.012 A 
ATOM     19  C   UNL     1     -15.701   3.125  32.512  0.00  0.00    +0.008 A 
ATOM     20  C   UNL     1     -13.568   4.140  32.239  0.00  0.00    +0.115 A 
ATOM     23  C   UNL     1     -16.010   4.098  33.455  0.00  0.00    +0.020 A 
ATOM     26  C   UNL     1     -15.049   5.055  33.737  0.00  0.00    +0.111 A 
ENDBRANCH  15  17
ENDBRANCH   7  15
TORSDOF 5
ENDMDL
MODEL 4
REMARK VINA RESULT:      -6.4      5.802      8.603
REMARK  Name = 75536976
REMARK  5 active torsions:
REMARK  status: ('A' for Active; 'I' for Inactive)
REMARK    1  A    between atoms: S_1  and  N_6
REMARK    2  A    between atoms: S_1  and  C_16
REMARK    3  A    between atoms: N_7  and  C_15
REMARK    4  A    between atoms: C_15  and  C_17
REMARK    5  A    between atoms: C_16  and  C_18
REMARK                            x       y       z     vdW  Elec       q    Type
REMARK                         _______ _______ _______ _____ _____    ______ ____
ROOT
ATOM      2  O   UNL     1      14.842  10.057  14.538  0.00  0.00    -0.252 OA
ATOM      5  N   UNL     1      14.362   9.676  16.807  0.00  0.00    -0.278 N 
ATOM      6  N   UNL     1      12.853   8.992  19.059  0.00  0.00    -0.178 NA
ATOM      7  N   UNL     1      15.495  11.535  16.255  0.00  0.00    -0.279 N 
ATOM      9  C   UNL     1      14.703  10.286  18.079  0.00  0.00    +0.111 C 
ATOM     10  C   UNL     1      13.476  10.356  18.980  0.00  0.00    +0.133 C 
ATOM     11  C   UNL     1      15.284  11.642  17.687  0.00  0.00    +0.133 C 
ATOM     12  C   UNL     1      13.642   8.418  16.784  0.00  0.00    +0.127 C 
ATOM     13  C   UNL     1      12.431   8.493  17.708  0.00  0.00    +0.128 C 
ATOM     14  C   UNL     1      14.895  10.379  15.718  0.00  0.00    +0.305 C 
ENDROOT
BRANCH   6   1
ATOM      1  S   UNL     1      11.695   8.790  20.306  0.00  0.00    +0.036 S 
ATOM      3  O   UNL     1      10.449   8.353  19.715  0.00  0.00    -0.158 OA
ATOM      4  O   UNL     1      11.760   9.933  21.188  0.00  0.00    -0.158 OA
BRANCH   1  16
ATOM     16  C   UNL     1      12.421   7.406  21.145  0.00  0.00    +0.220 C 
BRANCH  16  18
ATOM     18  C   UNL     1      13.907   7.505  20.984  0.00  0.00    -0.025 A 
ATOM     21  C   UNL     1      14.561   6.714  20.039  0.00  0.00    +0.005 A 
ATOM     22  C   UNL     1      14.638   8.386  21.781  0.00  0.00    +0.005 A 
ATOM     24  C   UNL     1      15.945   6.807  19.890  0.00  0.00    +0.000 A 
ATOM     25  C   UNL     1      16.022   8.478  21.632  0.00  0.00    +0.000 A 
ATOM     27  C   UNL     1      16.675   7.688  20.687  0.00  0.00    +0.000 A 
ENDBRANCH  16  18
ENDBRANCH   1  16
ENDBRANCH   6   1
BRANCH   7  15
ATOM     15  C   UNL     1      16.138  12.585  15.495  0.00  0.00    +0.146 C 
BRANCH  15  17
ATOM      8  N   UNL     1      19.617  11.507  14.477  0.00  0.00    -0.263 NA
ATOM     17  C   UNL     1      17.633  12.443  15.493  0.00  0.00    -0.012 A 
ATOM     19  C   UNL     1      18.415  13.075  16.454  0.00  0.00    +0.008 A 
ATOM     20  C   UNL     1      18.277  11.677  14.535  0.00  0.00    +0.115 A 
ATOM     23  C   UNL     1      19.796  12.923  16.428  0.00  0.00    +0.020 A 
ATOM     26  C   UNL     1      20.343  12.136  15.428  0.00  0.00    +0.111 A 
ENDBRANCH  15  17
ENDBRANCH   7  15
TORSDOF 5
ENDMDL
MODEL 5
REMARK VINA RESULT:      -6.4     30.252     32.379
REMARK  Name = 75536976
REMARK  5 active torsions:
REMARK  status: ('A' for Active; 'I' for Inactive)
REMARK    1  A    between atoms: S_1  and  N_6
REMARK    2  A    between atoms: S_1  and  C_16
REMARK    3  A    between atoms: N_7  and  C_15
REMARK    4  A    between atoms: C_15  and  C_17
REMARK    5  A    between atoms: C_16  and  C_18
REMARK                            x       y       z     vdW  Elec       q    Type
REMARK                         _______ _______ _______ _____ _____    ______ ____
ROOT
ATOM      2  O   UNL     1     -12.332  -4.513  13.704  0.00  0.00    -0.252 OA
ATOM      5  N   UNL     1     -11.916  -6.667  14.547  0.00  0.00    -0.278 N 
ATOM      6  N   UNL     1     -10.526  -8.726  15.829  0.00  0.00    -0.178 NA
ATOM      7  N   UNL     1     -12.769  -6.478  12.478  0.00  0.00    -0.279 N 
ATOM      9  C   UNL     1     -12.168  -8.033  14.132  0.00  0.00    +0.111 C 
ATOM     10  C   UNL     1     -10.946  -8.904  14.399  0.00  0.00    +0.133 C 
ATOM     11  C   UNL     1     -12.547  -7.901  12.659  0.00  0.00    +0.133 C 
ATOM     12  C   UNL     1     -11.385  -6.405  15.871  0.00  0.00    +0.127 C 
ATOM     13  C   UNL     1     -10.177  -7.299  16.134  0.00  0.00    +0.128 C 
ATOM     14  C   UNL     1     -12.341  -5.732  13.593  0.00  0.00    +0.305 C 
ENDROOT
BRANCH   6   1
ATOM      1  S   UNL     1      -9.412  -9.890  16.412  0.00  0.00    +0.036 S 
ATOM      3  O   UNL     1      -8.816 -10.568  15.282  0.00  0.00    -0.158 OA
ATOM      4  O   UNL     1     -10.027 -10.618  17.499  0.00  0.00    -0.158 OA
BRANCH   1  16
ATOM     16  C   UNL     1      -8.197  -8.796  17.101  0.00  0.00    +0.220 C 
BRANCH  16  18
ATOM     18  C   UNL     1      -6.939  -9.584  17.307  0.00  0.00    -0.025 A 
ATOM     21  C   UNL     1      -6.773 -10.343  18.466  0.00  0.00    +0.005 A 
ATOM     22  C   UNL     1      -5.933  -9.558  16.340  0.00  0.00    +0.005 A 
ATOM     24  C   UNL     1      -5.602 -11.076  18.657  0.00  0.00    +0.000 A 
ATOM     25  C   UNL     1      -4.762 -10.291  16.532  0.00  0.00    +0.000 A 
ATOM     27  C   UNL     1      -4.597 -11.049  17.691  0.00  0.00    +0.000 A 
ENDBRANCH  16  18
ENDBRANCH   1  16
ENDBRANCH   6   1
BRANCH   7  15
ATOM     15  C   UNL     1     -13.252  -5.931  11.229  0.00  0.00    +0.146 C 
BRANCH  15  17
ATOM      8  N   UNL     1     -10.243  -5.816   8.942  0.00  0.00    -0.263 NA
ATOM     17  C   UNL     1     -12.135  -5.389  10.383  0.00  0.00    -0.012 A 
ATOM     19  C   UNL     1     -11.939  -4.019  10.248  0.00  0.00    +0.008 A 
ATOM     20  C   UNL     1     -11.267  -6.237   9.716  0.00  0.00    +0.115 A 
ATOM     23  C   UNL     1     -10.895  -3.547   9.460  0.00  0.00    +0.020 A 
ATOM     26  C   UNL     1     -10.083  -4.478   8.834  0.00  0.00    +0.111 A 
ENDBRANCH  15  17
ENDBRANCH   7  15
TORSDOF 5
ENDMDL
MODEL 6
REMARK VINA RESULT:      -6.4     28.691     31.337
REMARK  Name = 75536976
REMARK  5 active torsions:
REMARK  status: ('A' for Active; 'I' for Inactive)
REMARK    1  A    between atoms: S_1  and  N_6
REMARK    2  A    between atoms: S_1  and  C_16
REMARK    3  A    between atoms: N_7  and  C_15
REMARK    4  A    between atoms: C_15  and  C_17
REMARK    5  A    between atoms: C_16  and  C_18
REMARK                            x       y       z     vdW  Elec       q    Type
REMARK                         _______ _______ _______ _____ _____    ______ ____
ROOT
ATOM      2  O   UNL     1      -3.369 -14.131  14.122  0.00  0.00    -0.252 OA
ATOM      5  N   UNL     1      -4.036 -12.625  15.798  0.00  0.00    -0.278 N 
ATOM      6  N   UNL     1      -5.758 -11.296  17.554  0.00  0.00    -0.178 NA
ATOM      7  N   UNL     1      -2.653 -11.886  14.190  0.00  0.00    -0.279 N 
ATOM      9  C   UNL     1      -3.706 -11.269  16.196  0.00  0.00    +0.111 C 
ATOM     10  C   UNL     1      -4.971 -10.498  16.555  0.00  0.00    +0.133 C 
ATOM     11  C   UNL     1      -2.941 -10.714  14.996  0.00  0.00    +0.133 C 
ATOM     12  C   UNL     1      -4.900 -13.430  16.639  0.00  0.00    +0.127 C 
ATOM     13  C   UNL     1      -6.151 -12.639  17.011  0.00  0.00    +0.128 C 
ATOM     14  C   UNL     1      -3.353 -13.022  14.640  0.00  0.00    +0.305 C 
ENDROOT
BRANCH   6   1
ATOM      1  S   UNL     1      -7.011 -10.437  18.349  0.00  0.00    +0.036 S 
ATOM      3  O   UNL     1      -7.361  -9.284  17.550  0.00  0.00    -0.158 OA
ATOM      4  O   UNL     1      -6.674 -10.320  19.751  0.00  0.00    -0.158 OA
BRANCH   1  16
ATOM     16  C   UNL     1      -8.313 -11.631  18.194  0.00  0.00    +0.220 C 
BRANCH  16  18
ATOM     18  C   UNL     1      -9.603 -10.942  18.518  0.00  0.00    -0.025 A 
ATOM     21  C   UNL     1      -9.988 -10.772  19.849  0.00  0.00    +0.005 A 
ATOM     22  C   UNL     1     -10.421 -10.472  17.491  0.00  0.00    +0.005 A 
ATOM     24  C   UNL     1     -11.190 -10.130  20.150  0.00  0.00    +0.000 A 
ATOM     25  C   UNL     1     -11.623  -9.831  17.793  0.00  0.00    +0.000 A 
ATOM     27  C   UNL     1     -12.006  -9.661  19.122  0.00  0.00    +0.000 A 
ENDBRANCH  16  18
ENDBRANCH   1  16
ENDBRANCH   6   1
BRANCH   7  15
ATOM     15  C   UNL     1      -1.840 -11.812  12.995  0.00  0.00    +0.146 C 
BRANCH  15  17
ATOM      8  N   UNL     1      -4.179 -11.788  10.023  0.00  0.00    -0.263 NA
ATOM     17  C   UNL     1      -2.624 -11.317  11.812  0.00  0.00    -0.012 A 
ATOM     19  C   UNL     1      -2.541  -9.991  11.402  0.00  0.00    +0.008 A 
ATOM     20  C   UNL     1      -3.449 -12.167  11.096  0.00  0.00    +0.115 A 
ATOM     23  C   UNL     1      -3.277  -9.562  10.303  0.00  0.00    +0.020 A 
ATOM     26  C   UNL     1      -4.073 -10.491   9.654  0.00  0.00    +0.111 A 
ENDBRANCH  15  17
ENDBRANCH   7  15
TORSDOF 5
ENDMDL
MODEL 7
REMARK VINA RESULT:      -6.2     17.413     19.895
REMARK  Name = 75536976
REMARK  5 active torsions:
REMARK  status: ('A' for Active; 'I' for Inactive)
REMARK    1  A    between atoms: S_1  and  N_6
REMARK    2  A    between atoms: S_1  and  C_16
REMARK    3  A    between atoms: N_7  and  C_15
REMARK    4  A    between atoms: C_15  and  C_17
REMARK    5  A    between atoms: C_16  and  C_18
REMARK                            x       y       z     vdW  Elec       q    Type
REMARK                         _______ _______ _______ _____ _____    ______ ____
ROOT
ATOM      2  O   UNL     1      12.457   8.949   4.001  0.00  0.00    -0.252 OA
ATOM      5  N   UNL     1      11.891   7.099   2.667  0.00  0.00    -0.278 N 
ATOM      6  N   UNL     1      11.363   5.646   0.337  0.00  0.00    -0.178 NA
ATOM      7  N   UNL     1      10.668   7.499   4.508  0.00  0.00    -0.279 N 
ATOM      9  C   UNL     1      10.972   5.979   2.744  0.00  0.00    +0.111 C 
ATOM     10  C   UNL     1      10.302   5.748   1.395  0.00  0.00    +0.133 C 
ATOM     11  C   UNL     1      10.017   6.370   3.870  0.00  0.00    +0.133 C 
ATOM     12  C   UNL     1      12.869   7.152   1.599  0.00  0.00    +0.127 C 
ATOM     13  C   UNL     1      12.190   6.895   0.256  0.00  0.00    +0.128 C 
ATOM     14  C   UNL     1      11.762   7.970   3.757  0.00  0.00    +0.305 C 
ENDROOT
BRANCH   6   1
ATOM      1  S   UNL     1      10.834   5.023  -1.169  0.00  0.00    +0.036 S 
ATOM      3  O   UNL     1      11.465   5.777  -2.230  0.00  0.00    -0.158 OA
ATOM      4  O   UNL     1       9.401   4.835  -1.116  0.00  0.00    -0.158 OA
BRANCH   1  16
ATOM     16  C   UNL     1      11.601   3.425  -1.098  0.00  0.00    +0.220 C 
BRANCH  16  18
ATOM     18  C   UNL     1      12.913   3.581  -0.394  0.00  0.00    -0.025 A 
ATOM     21  C   UNL     1      13.015   3.283   0.966  0.00  0.00    +0.005 A 
ATOM     22  C   UNL     1      14.034   4.024  -1.096  0.00  0.00    +0.005 A 
ATOM     24  C   UNL     1      14.238   3.427   1.621  0.00  0.00    +0.000 A 
ATOM     25  C   UNL     1      15.256   4.169  -0.440  0.00  0.00    +0.000 A 
ATOM     27  C   UNL     1      15.358   3.871   0.919  0.00  0.00    +0.000 A 
ENDBRANCH  16  18
ENDBRANCH   1  16
ENDBRANCH   6   1
BRANCH   7  15
ATOM     15  C   UNL     1      10.136   8.115   5.704  0.00  0.00    +0.146 C 
BRANCH  15  17
ATOM      8  N   UNL     1      11.251   5.564   8.263  0.00  0.00    -0.263 NA
ATOM     17  C   UNL     1      10.094   7.155   6.860  0.00  0.00    -0.012 A 
ATOM     19  C   UNL     1       8.924   6.954   7.582  0.00  0.00    +0.008 A 
ATOM     20  C   UNL     1      11.220   6.442   7.237  0.00  0.00    +0.115 A 
ATOM     23  C   UNL     1       8.916   6.058   8.646  0.00  0.00    +0.020 A 
ATOM     26  C   UNL     1      10.094   5.394   8.943  0.00  0.00    +0.111 A 
ENDBRANCH  15  17
ENDBRANCH   7  15
TORSDOF 5
ENDMDL
MODEL 8
REMARK VINA RESULT:      -6.1     15.890     19.258
REMARK  Name = 75536976
REMARK  5 active torsions:
REMARK  status: ('A' for Active; 'I' for Inactive)
REMARK    1  A    between atoms: S_1  and  N_6
REMARK    2  A    between atoms: S_1  and  C_16
REMARK    3  A    between atoms: N_7  and  C_15
REMARK    4  A    between atoms: C_15  and  C_17
REMARK    5  A    between atoms: C_16  and  C_18
REMARK                            x       y       z     vdW  Elec       q    Type
REMARK                         _______ _______ _______ _____ _____    ______ ____
ROOT
ATOM      2  O   UNL     1      13.062   7.029   2.308  0.00  0.00    -0.252 OA
ATOM      5  N   UNL     1      11.492   6.483   3.970  0.00  0.00    -0.278 N 
ATOM      6  N   UNL     1      10.517   5.904   6.526  0.00  0.00    -0.178 NA
ATOM      7  N   UNL     1      11.438   5.341   2.037  0.00  0.00    -0.279 N 
ATOM      9  C   UNL     1      10.330   5.624   4.088  0.00  0.00    +0.111 C 
ATOM     10  C   UNL     1      10.340   4.896   5.427  0.00  0.00    +0.133 C 
ATOM     11  C   UNL     1      10.426   4.712   2.866  0.00  0.00    +0.133 C 
ATOM     12  C   UNL     1      11.819   7.400   5.044  0.00  0.00    +0.127 C 
ATOM     13  C   UNL     1      11.803   6.665   6.381  0.00  0.00    +0.128 C 
ATOM     14  C   UNL     1      12.115   6.370   2.719  0.00  0.00    +0.305 C 
ENDROOT
BRANCH   6   1
ATOM      1  S   UNL     1      10.185   5.327   8.105  0.00  0.00    +0.036 S 
ATOM      3  O   UNL     1      11.239   5.768   8.991  0.00  0.00    -0.158 OA
ATOM      4  O   UNL     1       9.794   3.937   8.018  0.00  0.00    -0.158 OA
BRANCH   1  16
ATOM     16  C   UNL     1       8.734   6.285   8.456  0.00  0.00    +0.220 C 
BRANCH  16  18
ATOM     18  C   UNL     1       8.805   7.536   7.634  0.00  0.00    -0.025 A 
ATOM     21  C   UNL     1       8.149   7.600   6.404  0.00  0.00    +0.005 A 
ATOM     22  C   UNL     1       9.526   8.636   8.098  0.00  0.00    +0.005 A 
ATOM     24  C   UNL     1       8.215   8.765   5.639  0.00  0.00    +0.000 A 
ATOM     25  C   UNL     1       9.592   9.800   7.333  0.00  0.00    +0.000 A 
ATOM     27  C   UNL     1       8.937   9.864   6.104  0.00  0.00    +0.000 A 
ENDBRANCH  16  18
ENDBRANCH   1  16
ENDBRANCH   6   1
BRANCH   7  15
ATOM     15  C   UNL     1      11.765   4.843   0.718  0.00  0.00    +0.146 C 
BRANCH  15  17
ATOM      8  N   UNL     1      15.078   3.229   1.565  0.00  0.00    -0.263 NA
ATOM     17  C   UNL     1      13.204   4.424   0.616  0.00  0.00    -0.012 A 
ATOM     19  C   UNL     1      13.990   4.815  -0.462  0.00  0.00    +0.008 A 
ATOM     20  C   UNL     1      13.791   3.639   1.595  0.00  0.00    +0.115 A 
ATOM     23  C   UNL     1      15.319   4.414  -0.528  0.00  0.00    +0.020 A 
ATOM     26  C   UNL     1      15.811   3.629   0.501  0.00  0.00    +0.111 A 
ENDBRANCH  15  17
ENDBRANCH   7  15
TORSDOF 5
ENDMDL
MODEL 9
REMARK VINA RESULT:      -6.1     28.553     30.443
REMARK  Name = 75536976
REMARK  5 active torsions:
REMARK  status: ('A' for Active; 'I' for Inactive)
REMARK    1  A    between atoms: S_1  and  N_6
REMARK    2  A    between atoms: S_1  and  C_16
REMARK    3  A    between atoms: N_7  and  C_15
REMARK    4  A    between atoms: C_15  and  C_17
REMARK    5  A    between atoms: C_16  and  C_18
REMARK                            x       y       z     vdW  Elec       q    Type
REMARK                         _______ _______ _______ _____ _____    ______ ____
ROOT
ATOM      2  O   UNL     1      -6.358 -10.302  19.521  0.00  0.00    -0.252 OA
ATOM      5  N   UNL     1      -5.495 -11.374  17.617  0.00  0.00    -0.278 N 
ATOM      6  N   UNL     1      -3.908 -11.745  15.345  0.00  0.00    -0.178 NA
ATOM      7  N   UNL     1      -7.720 -11.374  17.922  0.00  0.00    -0.279 N 
ATOM      9  C   UNL     1      -6.010 -12.200  16.541  0.00  0.00    +0.111 C 
ATOM     10  C   UNL     1      -5.403 -11.776  15.209  0.00  0.00    +0.133 C 
ATOM     11  C   UNL     1      -7.523 -12.019  16.637  0.00  0.00    +0.133 C 
ATOM     12  C   UNL     1      -4.065 -11.179  17.750  0.00  0.00    +0.127 C 
ATOM     13  C   UNL     1      -3.465 -10.779  16.405  0.00  0.00    +0.128 C 
ATOM     14  C   UNL     1      -6.505 -10.939  18.486  0.00  0.00    +0.305 C 
ENDROOT
BRANCH   6   1
ATOM      1  S   UNL     1      -3.043 -11.654  13.868  0.00  0.00    +0.036 S 
ATOM      3  O   UNL     1      -2.167 -12.800  13.773  0.00  0.00    -0.158 OA
ATOM      4  O   UNL     1      -2.552 -10.304  13.701  0.00  0.00    -0.158 OA
BRANCH   1  16
ATOM     16  C   UNL     1      -4.389 -11.894  12.738  0.00  0.00    +0.220 C 
BRANCH  16  18
ATOM     18  C   UNL     1      -4.419 -10.719  11.809  0.00  0.00    -0.025 A 
ATOM     21  C   UNL     1      -3.482 -10.618  10.781  0.00  0.00    +0.005 A 
ATOM     22  C   UNL     1      -5.384  -9.725  11.973  0.00  0.00    +0.005 A 
ATOM     24  C   UNL     1      -3.511  -9.523   9.916  0.00  0.00    +0.000 A 
ATOM     25  C   UNL     1      -5.412  -8.630  11.109  0.00  0.00    +0.000 A 
ATOM     27  C   UNL     1      -4.476  -8.530  10.081  0.00  0.00    +0.000 A 
ENDBRANCH  16  18
ENDBRANCH   1  16
ENDBRANCH   6   1
BRANCH   7  15
ATOM     15  C   UNL     1      -9.040 -11.113  18.454  0.00  0.00    +0.146 C 
BRANCH  15  17
ATOM      8  N   UNL     1      -9.375  -7.775  16.709  0.00  0.00    -0.263 NA
ATOM     17  C   UNL     1      -9.663  -9.892  17.839  0.00  0.00    -0.012 A 
ATOM     19  C   UNL     1     -11.043  -9.724  17.819  0.00  0.00    +0.008 A 
ATOM     20  C   UNL     1      -8.880  -8.897  17.277  0.00  0.00    +0.115 A 
ATOM     23  C   UNL     1     -11.590  -8.582  17.245  0.00  0.00    +0.020 A 
ATOM     26  C   UNL     1     -10.721  -7.646  16.708  0.00  0.00    +0.111 A 
ENDBRANCH  15  17
ENDBRANCH   7  15
TORSDOF 5
ENDMDL
MODEL 10
REMARK VINA RESULT:      -6.1      5.707      8.201
REMARK  Name = 75536976
REMARK  5 active torsions:
REMARK  status: ('A' for Active; 'I' for Inactive)
REMARK    1  A    between atoms: S_1  and  N_6
REMARK    2  A    between atoms: S_1  and  C_16
REMARK    3  A    between atoms: N_7  and  C_15
REMARK    4  A    between atoms: C_15  and  C_17
REMARK    5  A    between atoms: C_16  and  C_18
REMARK                            x       y       z     vdW  Elec       q    Type
REMARK                         _______ _______ _______ _____ _____    ______ ____
ROOT
ATOM      2  O   UNL     1      14.676   8.892  14.623  0.00  0.00    -0.252 OA
ATOM      5  N   UNL     1      14.269   9.054  16.932  0.00  0.00    -0.278 N 
ATOM      6  N   UNL     1      12.924   8.711  19.359  0.00  0.00    -0.178 NA
ATOM      7  N   UNL     1      14.977  10.887  15.843  0.00  0.00    -0.279 N 
ATOM      9  C   UNL     1      14.458  10.047  17.974  0.00  0.00    +0.111 C 
ATOM     10  C   UNL     1      13.236  10.100  18.884  0.00  0.00    +0.133 C 
ATOM     11  C   UNL     1      14.734  11.335  17.202  0.00  0.00    +0.133 C 
ATOM     12  C   UNL     1      13.840   7.716  17.286  0.00  0.00    +0.127 C 
ATOM     13  C   UNL     1      12.632   7.784  18.215  0.00  0.00    +0.128 C 
ATOM     14  C   UNL     1      14.647   9.529  15.669  0.00  0.00    +0.305 C 
ENDROOT
BRANCH   6   1
ATOM      1  S   UNL     1      11.825   8.618  20.671  0.00  0.00    +0.036 S 
ATOM      3  O   UNL     1      10.586   8.042  20.198  0.00  0.00    -0.158 OA
ATOM      4  O   UNL     1      11.856   9.872  21.390  0.00  0.00    -0.158 OA
BRANCH   1  16
ATOM     16  C   UNL     1      12.660   7.399  21.652  0.00  0.00    +0.220 C 
BRANCH  16  18
ATOM     18  C   UNL     1      14.132   7.576  21.443  0.00  0.00    -0.025 A 
ATOM     21  C   UNL     1      14.857   6.615  20.736  0.00  0.00    +0.005 A 
ATOM     22  C   UNL     1      14.780   8.700  21.955  0.00  0.00    +0.005 A 
ATOM     24  C   UNL     1      16.228   6.781  20.541  0.00  0.00    +0.000 A 
ATOM     25  C   UNL     1      16.151   8.864  21.761  0.00  0.00    +0.000 A 
ATOM     27  C   UNL     1      16.875   7.904  21.054  0.00  0.00    +0.000 A 
ENDBRANCH  16  18
ENDBRANCH   1  16
ENDBRANCH   6   1
BRANCH   7  15
ATOM     15  C   UNL     1      15.384  11.800  14.797  0.00  0.00    +0.146 C 
BRANCH  15  17
ATOM      8  N   UNL     1      12.200  13.086  13.212  0.00  0.00    -0.263 NA
ATOM     17  C   UNL     1      14.274  12.732  14.402  0.00  0.00    -0.012 A 
ATOM     19  C   UNL     1      14.266  14.057  14.825  0.00  0.00    +0.008 A 
ATOM     20  C   UNL     1      13.228  12.300  13.604  0.00  0.00    +0.115 A 
ATOM     23  C   UNL     1      13.227  14.897  14.443  0.00  0.00    +0.020 A 
ATOM     26  C   UNL     1      12.227  14.368  13.643  0.00  0.00    +0.111 A 
ENDBRANCH  15  17
ENDBRANCH   7  15
TORSDOF 5
ENDMDL
