MODEL 1
REMARK VINA RESULT:      -7.8      0.000      0.000
REMARK  Name = 40587851
REMARK  6 active torsions:
REMARK  status: ('A' for Active; 'I' for Inactive)
REMARK    1  A    between atoms: O_4  and  C_31
REMARK    2  A    between atoms: O_4  and  C_32
REMARK    3  A    between atoms: N_5  and  C_11
REMARK    4  A    between atoms: N_6  and  C_12
REMARK    5  A    between atoms: C_16  and  C_17
REMARK    6  A    between atoms: C_18  and  C_23
REMARK                            x       y       z     vdW  Elec       q    Type
REMARK                         _______ _______ _______ _____ _____    ______ ____
ROOT
ATOM      1  O   UNL     1      -5.163  -8.719  10.631  0.00  0.00    -0.370 OA
ATOM      2  O   UNL     1      -6.364 -11.593  10.438  0.00  0.00    -0.370 OA
ATOM      9  C   UNL     1      -5.036 -11.094  10.673  0.00  0.00    +0.171 C 
ATOM     10  C   UNL     1      -4.860  -9.859   9.811  0.00  0.00    +0.171 C 
ATOM     11  C   UNL     1      -4.912 -10.579  12.087  0.00  0.00    +0.130 C 
ATOM     12  C   UNL     1      -5.899 -10.017   8.725  0.00  0.00    +0.130 C 
ATOM     13  C   UNL     1      -5.433  -9.159  11.970  0.00  0.00    +0.185 C 
ATOM     14  C   UNL     1      -7.000 -10.783   9.438  0.00  0.00    +0.185 C 
ENDROOT
BRANCH  11   5
ATOM      5  N   UNL     1      -3.523 -10.571  12.491  0.00  0.00    -0.306 N 
ATOM      7  N   UNL     1      -4.077 -10.639  14.745  0.00  0.00    -0.214 NA
ATOM      8  N   UNL     1      -1.778 -10.587  14.023  0.00  0.00    -0.223 NA
ATOM     15  C   UNL     1      -3.108 -10.599  13.811  0.00  0.00    +0.216 A 
ATOM     18  C   UNL     1      -3.638 -10.669  16.021  0.00  0.00    +0.076 A 
ATOM     21  C   UNL     1      -1.409 -10.619  15.321  0.00  0.00    +0.116 A 
ATOM     22  C   UNL     1      -2.303 -10.661  16.372  0.00  0.00    +0.048 A 
ATOM     33  H   UNL     1      -2.799 -10.596  11.782  0.00  0.00    +0.149 HD
BRANCH  18  23
ATOM     23  C   UNL     1      -4.673 -10.711  17.025  0.00  0.00    +0.001 A 
ATOM     27  C   UNL     1      -4.447 -11.371  18.232  0.00  0.00    +0.013 A 
ATOM     28  C   UNL     1      -5.901 -10.093  16.786  0.00  0.00    +0.013 A 
ATOM     29  C   UNL     1      -5.449 -11.413  19.202  0.00  0.00    +0.046 A 
ATOM     30  C   UNL     1      -6.903 -10.135  17.756  0.00  0.00    +0.046 A 
ATOM     31  C   UNL     1      -6.676 -10.795  18.964  0.00  0.00    +0.120 A 
BRANCH  31   4
ATOM      4  O   UNL     1      -7.655 -10.837  19.910  0.00  0.00    -0.495 OA
ATOM     32  C   UNL     1      -8.954 -11.243  19.482  0.00  0.00    +0.277 C 
ENDBRANCH  31   4
ENDBRANCH  18  23
ENDBRANCH  11   5
BRANCH  12   6
ATOM      3  O   UNL     1      -6.517  -9.613   5.949  0.00  0.00    -0.270 OA
ATOM      6  N   UNL     1      -5.378 -10.767   7.608  0.00  0.00    -0.304 N 
ATOM     16  C   UNL     1      -5.737 -10.496   6.295  0.00  0.00    +0.244 C 
ATOM     34  H   UNL     1      -4.814 -11.582   7.824  0.00  0.00    +0.149 HD
BRANCH  16  17
ATOM     17  C   UNL     1      -5.133 -11.377   5.262  0.00  0.00    +0.037 A 
ATOM     19  C   UNL     1      -5.837 -11.666   4.093  0.00  0.00    +0.013 A 
ATOM     20  C   UNL     1      -3.861 -11.912   5.461  0.00  0.00    +0.013 A 
ATOM     24  C   UNL     1      -5.269 -12.493   3.124  0.00  0.00    +0.001 A 
ATOM     25  C   UNL     1      -3.293 -12.739   4.491  0.00  0.00    +0.001 A 
ATOM     26  C   UNL     1      -3.998 -13.029   3.323  0.00  0.00    +0.000 A 
ENDBRANCH  16  17
ENDBRANCH  12   6
TORSDOF 5
ENDMDL
MODEL 2
REMARK VINA RESULT:      -7.2      7.468      8.730
REMARK  Name = 40587851
REMARK  6 active torsions:
REMARK  status: ('A' for Active; 'I' for Inactive)
REMARK    1  A    between atoms: O_4  and  C_31
REMARK    2  A    between atoms: O_4  and  C_32
REMARK    3  A    between atoms: N_5  and  C_11
REMARK    4  A    between atoms: N_6  and  C_12
REMARK    5  A    between atoms: C_16  and  C_17
REMARK    6  A    between atoms: C_18  and  C_23
REMARK                            x       y       z     vdW  Elec       q    Type
REMARK                         _______ _______ _______ _____ _____    ______ ____
ROOT
ATOM      1  O   UNL     1     -10.960  -5.984  16.564  0.00  0.00    -0.370 OA
ATOM      2  O   UNL     1     -12.479  -7.859  14.586  0.00  0.00    -0.370 OA
ATOM      9  C   UNL     1     -11.091  -7.521  14.752  0.00  0.00    +0.171 C 
ATOM     10  C   UNL     1     -11.029  -6.053  15.131  0.00  0.00    +0.171 C 
ATOM     11  C   UNL     1     -10.517  -8.236  15.952  0.00  0.00    +0.130 C 
ATOM     12  C   UNL     1     -12.343  -5.490  14.640  0.00  0.00    +0.130 C 
ATOM     13  C   UNL     1     -10.888  -7.314  17.099  0.00  0.00    +0.185 C 
ATOM     14  C   UNL     1     -13.277  -6.681  14.774  0.00  0.00    +0.185 C 
ENDROOT
BRANCH  11   5
ATOM      5  N   UNL     1      -9.079  -8.330  15.831  0.00  0.00    -0.306 N 
ATOM      7  N   UNL     1      -8.955 -10.005  17.434  0.00  0.00    -0.214 NA
ATOM      8  N   UNL     1      -6.976  -9.174  16.339  0.00  0.00    -0.223 NA
ATOM     15  C   UNL     1      -8.302  -9.208  16.567  0.00  0.00    +0.216 A 
ATOM     18  C   UNL     1      -8.169 -10.851  18.133  0.00  0.00    +0.076 A 
ATOM     21  C   UNL     1      -6.250 -10.045  17.071  0.00  0.00    +0.116 A 
ATOM     22  C   UNL     1      -6.798 -10.915  17.992  0.00  0.00    +0.048 A 
ATOM     33  H   UNL     1      -8.600  -7.764  15.139  0.00  0.00    +0.149 HD
BRANCH  18  23
ATOM     23  C   UNL     1      -8.864 -11.707  19.063  0.00  0.00    +0.001 A 
ATOM     27  C   UNL     1      -8.294 -12.917  19.457  0.00  0.00    +0.013 A 
ATOM     28  C   UNL     1     -10.109 -11.326  19.565  0.00  0.00    +0.013 A 
ATOM     29  C   UNL     1      -8.967 -13.746  20.355  0.00  0.00    +0.046 A 
ATOM     30  C   UNL     1     -10.783 -12.155  20.462  0.00  0.00    +0.046 A 
ATOM     31  C   UNL     1     -10.211 -13.365  20.857  0.00  0.00    +0.120 A 
BRANCH  31   4
ATOM      4  O   UNL     1     -10.869 -14.174  21.732  0.00  0.00    -0.495 OA
ATOM     32  C   UNL     1     -12.135 -13.722  22.208  0.00  0.00    +0.277 C 
ENDBRANCH  31   4
ENDBRANCH  18  23
ENDBRANCH  11   5
BRANCH  12   6
ATOM      3  O   UNL     1     -14.012  -3.553  13.333  0.00  0.00    -0.270 OA
ATOM      6  N   UNL     1     -12.245  -5.054  13.268  0.00  0.00    -0.304 N 
ATOM     16  C   UNL     1     -13.102  -4.108  12.724  0.00  0.00    +0.244 C 
ATOM     34  H   UNL     1     -11.587  -5.548  12.674  0.00  0.00    +0.149 HD
BRANCH  16  17
ATOM     17  C   UNL     1     -12.886  -3.786  11.289  0.00  0.00    +0.037 A 
ATOM     19  C   UNL     1     -13.967  -3.423  10.485  0.00  0.00    +0.013 A 
ATOM     20  C   UNL     1     -11.603  -3.846  10.747  0.00  0.00    +0.013 A 
ATOM     24  C   UNL     1     -13.764  -3.122   9.139  0.00  0.00    +0.001 A 
ATOM     25  C   UNL     1     -11.399  -3.544   9.400  0.00  0.00    +0.001 A 
ATOM     26  C   UNL     1     -12.480  -3.181   8.597  0.00  0.00    +0.000 A 
ENDBRANCH  16  17
ENDBRANCH  12   6
TORSDOF 5
ENDMDL
MODEL 3
REMARK VINA RESULT:      -7.0     25.433     27.122
REMARK  Name = 40587851
REMARK  6 active torsions:
REMARK  status: ('A' for Active; 'I' for Inactive)
REMARK    1  A    between atoms: O_4  and  C_31
REMARK    2  A    between atoms: O_4  and  C_32
REMARK    3  A    between atoms: N_5  and  C_11
REMARK    4  A    between atoms: N_6  and  C_12
REMARK    5  A    between atoms: C_16  and  C_17
REMARK    6  A    between atoms: C_18  and  C_23
REMARK                            x       y       z     vdW  Elec       q    Type
REMARK                         _______ _______ _______ _____ _____    ______ ____
ROOT
ATOM      1  O   UNL     1      11.396  13.715  10.032  0.00  0.00    -0.370 OA
ATOM      2  O   UNL     1       9.955  11.746  11.976  0.00  0.00    -0.370 OA
ATOM      9  C   UNL     1      11.328  11.913  11.583  0.00  0.00    +0.171 C 
ATOM     10  C   UNL     1      11.332  12.282  10.112  0.00  0.00    +0.171 C 
ATOM     11  C   UNL     1      11.927  13.118  12.269  0.00  0.00    +0.130 C 
ATOM     12  C   UNL     1       9.999  11.785   9.604  0.00  0.00    +0.130 C 
ATOM     13  C   UNL     1      11.518  14.258  11.355  0.00  0.00    +0.185 C 
ATOM     14  C   UNL     1       9.112  11.924  10.829  0.00  0.00    +0.185 C 
ENDROOT
BRANCH  11   5
ATOM      5  N   UNL     1      13.367  13.000  12.308  0.00  0.00    -0.306 N 
ATOM      7  N   UNL     1      13.299  11.590  14.151  0.00  0.00    -0.214 NA
ATOM      8  N   UNL     1      15.393  12.234  13.147  0.00  0.00    -0.223 NA
ATOM     15  C   UNL     1      14.050  12.242  13.244  0.00  0.00    +0.216 A 
ATOM     18  C   UNL     1      13.996  10.858  15.046  0.00  0.00    +0.076 A 
ATOM     21  C   UNL     1      16.026  11.482  14.073  0.00  0.00    +0.116 A 
ATOM     22  C   UNL     1      15.373  10.766  15.056  0.00  0.00    +0.048 A 
ATOM     33  H   UNL     1      13.924  13.450  11.589  0.00  0.00    +0.149 HD
BRANCH  18  23
ATOM     23  C   UNL     1      13.196  10.157  16.021  0.00  0.00    +0.001 A 
ATOM     27  C   UNL     1      13.565  10.168  17.366  0.00  0.00    +0.013 A 
ATOM     28  C   UNL     1      12.052   9.466  15.617  0.00  0.00    +0.013 A 
ATOM     29  C   UNL     1      12.792   9.489  18.307  0.00  0.00    +0.046 A 
ATOM     30  C   UNL     1      11.279   8.787  16.559  0.00  0.00    +0.046 A 
ATOM     31  C   UNL     1      11.650   8.799  17.904  0.00  0.00    +0.120 A 
BRANCH  31   4
ATOM      4  O   UNL     1      10.896   8.135  18.823  0.00  0.00    -0.495 OA
ATOM     32  C   UNL     1      11.077   8.492  20.192  0.00  0.00    +0.277 C 
ENDBRANCH  31   4
ENDBRANCH  18  23
ENDBRANCH  11   5
BRANCH  12   6
ATOM      3  O   UNL     1       9.805  10.820   6.906  0.00  0.00    -0.270 OA
ATOM      6  N   UNL     1      10.084  10.411   9.172  0.00  0.00    -0.304 N 
ATOM     16  C   UNL     1       9.977  10.040   7.839  0.00  0.00    +0.244 C 
ATOM     34  H   UNL     1      10.117   9.702   9.897  0.00  0.00    +0.149 HD
BRANCH  16  17
ATOM     17  C   UNL     1      10.060   8.583   7.562  0.00  0.00    +0.037 A 
ATOM     19  C   UNL     1       9.031   7.736   7.973  0.00  0.00    +0.013 A 
ATOM     20  C   UNL     1      11.165   8.063   6.891  0.00  0.00    +0.013 A 
ATOM     24  C   UNL     1       9.109   6.367   7.713  0.00  0.00    +0.001 A 
ATOM     25  C   UNL     1      11.243   6.694   6.630  0.00  0.00    +0.001 A 
ATOM     26  C   UNL     1      10.214   5.847   7.041  0.00  0.00    +0.000 A 
ENDBRANCH  16  17
ENDBRANCH  12   6
TORSDOF 5
ENDMDL
MODEL 4
REMARK VINA RESULT:      -7.0      2.061     11.003
REMARK  Name = 40587851
REMARK  6 active torsions:
REMARK  status: ('A' for Active; 'I' for Inactive)
REMARK    1  A    between atoms: O_4  and  C_31
REMARK    2  A    between atoms: O_4  and  C_32
REMARK    3  A    between atoms: N_5  and  C_11
REMARK    4  A    between atoms: N_6  and  C_12
REMARK    5  A    between atoms: C_16  and  C_17
REMARK    6  A    between atoms: C_18  and  C_23
REMARK                            x       y       z     vdW  Elec       q    Type
REMARK                         _______ _______ _______ _____ _____    ______ ____
ROOT
ATOM      1  O   UNL     1      -3.041  -9.913  11.786  0.00  0.00    -0.370 OA
ATOM      2  O   UNL     1      -4.464 -12.640  12.307  0.00  0.00    -0.370 OA
ATOM      9  C   UNL     1      -4.948 -11.305  12.083  0.00  0.00    +0.171 C 
ATOM     10  C   UNL     1      -3.985 -10.357  12.773  0.00  0.00    +0.171 C 
ATOM     11  C   UNL     1      -4.836 -10.945  10.621  0.00  0.00    +0.130 C 
ATOM     12  C   UNL     1      -3.298 -11.218  13.808  0.00  0.00    +0.130 C 
ATOM     13  C   UNL     1      -3.405 -10.455  10.507  0.00  0.00    +0.185 C 
ATOM     14  C   UNL     1      -3.300 -12.586  13.145  0.00  0.00    +0.185 C 
ENDROOT
BRANCH  11   5
ATOM      5  N   UNL     1      -5.758  -9.877  10.303  0.00  0.00    -0.306 N 
ATOM      7  N   UNL     1      -5.732 -10.399   8.040  0.00  0.00    -0.214 NA
ATOM      8  N   UNL     1      -7.060  -8.575   8.887  0.00  0.00    -0.223 NA
ATOM     15  C   UNL     1      -6.202  -9.604   9.020  0.00  0.00    +0.216 A 
ATOM     18  C   UNL     1      -6.188 -10.107   6.803  0.00  0.00    +0.076 A 
ATOM     21  C   UNL     1      -7.475  -8.339   7.625  0.00  0.00    +0.116 A 
ATOM     22  C   UNL     1      -7.068  -9.080   6.533  0.00  0.00    +0.048 A 
ATOM     33  H   UNL     1      -6.149  -9.317  11.052  0.00  0.00    +0.149 HD
BRANCH  18  23
ATOM     23  C   UNL     1      -5.687 -10.956   5.749  0.00  0.00    +0.001 A 
ATOM     27  C   UNL     1      -6.435 -11.142   4.587  0.00  0.00    +0.013 A 
ATOM     28  C   UNL     1      -4.453 -11.593   5.894  0.00  0.00    +0.013 A 
ATOM     29  C   UNL     1      -5.951 -11.963   3.569  0.00  0.00    +0.046 A 
ATOM     30  C   UNL     1      -3.969 -12.414   4.876  0.00  0.00    +0.046 A 
ATOM     31  C   UNL     1      -4.718 -12.600   3.714  0.00  0.00    +0.120 A 
BRANCH  31   4
ATOM      4  O   UNL     1      -4.246 -13.403   2.721  0.00  0.00    -0.495 OA
ATOM     32  C   UNL     1      -3.066 -12.973   2.045  0.00  0.00    +0.277 C 
ENDBRANCH  31   4
ENDBRANCH  18  23
ENDBRANCH  11   5
BRANCH  12   6
ATOM      3  O   UNL     1      -2.260 -10.679  16.430  0.00  0.00    -0.270 OA
ATOM      6  N   UNL     1      -4.037 -11.236  15.047  0.00  0.00    -0.304 N 
ATOM     16  C   UNL     1      -3.445 -10.960  16.272  0.00  0.00    +0.244 C 
ATOM     34  H   UNL     1      -4.995 -11.567  15.007  0.00  0.00    +0.149 HD
BRANCH  16  17
ATOM     17  C   UNL     1      -4.336 -11.046  17.458  0.00  0.00    +0.037 A 
ATOM     19  C   UNL     1      -5.548 -10.354  17.471  0.00  0.00    +0.013 A 
ATOM     20  C   UNL     1      -3.962 -11.818  18.556  0.00  0.00    +0.013 A 
ATOM     24  C   UNL     1      -6.384 -10.434  18.584  0.00  0.00    +0.001 A 
ATOM     25  C   UNL     1      -4.798 -11.898  19.670  0.00  0.00    +0.001 A 
ATOM     26  C   UNL     1      -6.010 -11.206  19.683  0.00  0.00    +0.000 A 
ENDBRANCH  16  17
ENDBRANCH  12   6
TORSDOF 5
ENDMDL
MODEL 5
REMARK VINA RESULT:      -7.0     23.131     25.361
REMARK  Name = 40587851
REMARK  6 active torsions:
REMARK  status: ('A' for Active; 'I' for Inactive)
REMARK    1  A    between atoms: O_4  and  C_31
REMARK    2  A    between atoms: O_4  and  C_32
REMARK    3  A    between atoms: N_5  and  C_11
REMARK    4  A    between atoms: N_6  and  C_12
REMARK    5  A    between atoms: C_16  and  C_17
REMARK    6  A    between atoms: C_18  and  C_23
REMARK                            x       y       z     vdW  Elec       q    Type
REMARK                         _______ _______ _______ _____ _____    ______ ____
ROOT
ATOM      1  O   UNL     1       7.765   6.675  -6.048  0.00  0.00    -0.370 OA
ATOM      2  O   UNL     1       6.706   6.220  -3.148  0.00  0.00    -0.370 OA
ATOM      9  C   UNL     1       7.499   5.421  -4.042  0.00  0.00    +0.171 C 
ATOM     10  C   UNL     1       6.962   5.648  -5.443  0.00  0.00    +0.171 C 
ATOM     11  C   UNL     1       8.914   5.947  -4.100  0.00  0.00    +0.130 C 
ATOM     12  C   UNL     1       5.552   6.145  -5.221  0.00  0.00    +0.130 C 
ATOM     13  C   UNL     1       8.820   7.042  -5.146  0.00  0.00    +0.185 C 
ATOM     14  C   UNL     1       5.671   6.877  -3.895  0.00  0.00    +0.185 C 
ENDROOT
BRANCH  11   5
ATOM      5  N   UNL     1       9.811   4.904  -4.545  0.00  0.00    -0.306 N 
ATOM      7  N   UNL     1      10.573   4.504  -2.388  0.00  0.00    -0.214 NA
ATOM      8  N   UNL     1      11.415   3.248  -4.264  0.00  0.00    -0.223 NA
ATOM     15  C   UNL     1      10.637   4.188  -3.695  0.00  0.00    +0.216 A 
ATOM     18  C   UNL     1      11.387   3.784  -1.588  0.00  0.00    +0.076 A 
ATOM     21  C   UNL     1      12.204   2.567  -3.407  0.00  0.00    +0.116 A 
ATOM     22  C   UNL     1      12.232   2.794  -2.045  0.00  0.00    +0.048 A 
ATOM     33  H   UNL     1       9.816   4.635  -5.522  0.00  0.00    +0.149 HD
BRANCH  18  23
ATOM     23  C   UNL     1      11.322   4.120  -0.186  0.00  0.00    +0.001 A 
ATOM     27  C   UNL     1      12.329   3.696   0.681  0.00  0.00    +0.013 A 
ATOM     28  C   UNL     1      10.249   4.866   0.303  0.00  0.00    +0.013 A 
ATOM     29  C   UNL     1      12.264   4.019   2.036  0.00  0.00    +0.046 A 
ATOM     30  C   UNL     1      10.185   5.190   1.659  0.00  0.00    +0.046 A 
ATOM     31  C   UNL     1      11.193   4.765   2.525  0.00  0.00    +0.120 A 
BRANCH  31   4
ATOM      4  O   UNL     1      11.129   5.079   3.848  0.00  0.00    -0.495 OA
ATOM     32  C   UNL     1      11.595   6.372   4.232  0.00  0.00    +0.277 C 
ENDBRANCH  31   4
ENDBRANCH  18  23
ENDBRANCH  11   5
BRANCH  12   6
ATOM      3  O   UNL     1       2.693   6.304  -5.433  0.00  0.00    -0.270 OA
ATOM      6  N   UNL     1       4.620   5.048  -5.131  0.00  0.00    -0.304 N 
ATOM     16  C   UNL     1       3.248   5.224  -5.247  0.00  0.00    +0.244 C 
ATOM     34  H   UNL     1       4.997   4.143  -4.870  0.00  0.00    +0.149 HD
BRANCH  16  17
ATOM     17  C   UNL     1       2.421   3.998  -5.105  0.00  0.00    +0.037 A 
ATOM     19  C   UNL     1       1.166   4.068  -4.501  0.00  0.00    +0.013 A 
ATOM     20  C   UNL     1       2.901   2.777  -5.578  0.00  0.00    +0.013 A 
ATOM     24  C   UNL     1       0.391   2.916  -4.368  0.00  0.00    +0.001 A 
ATOM     25  C   UNL     1       2.125   1.624  -5.445  0.00  0.00    +0.001 A 
ATOM     26  C   UNL     1       0.870   1.695  -4.841  0.00  0.00    +0.000 A 
ENDBRANCH  16  17
ENDBRANCH  12   6
TORSDOF 5
ENDMDL
MODEL 6
REMARK VINA RESULT:      -7.0      4.950     10.925
REMARK  Name = 40587851
REMARK  6 active torsions:
REMARK  status: ('A' for Active; 'I' for Inactive)
REMARK    1  A    between atoms: O_4  and  C_31
REMARK    2  A    between atoms: O_4  and  C_32
REMARK    3  A    between atoms: N_5  and  C_11
REMARK    4  A    between atoms: N_6  and  C_12
REMARK    5  A    between atoms: C_16  and  C_17
REMARK    6  A    between atoms: C_18  and  C_23
REMARK                            x       y       z     vdW  Elec       q    Type
REMARK                         _______ _______ _______ _____ _____    ______ ____
ROOT
ATOM      1  O   UNL     1      -9.824 -10.653  16.173  0.00  0.00    -0.370 OA
ATOM      2  O   UNL     1     -10.047  -7.578  16.657  0.00  0.00    -0.370 OA
ATOM      9  C   UNL     1      -9.678  -8.683  17.500  0.00  0.00    +0.171 C 
ATOM     10  C   UNL     1     -10.560  -9.855  17.115  0.00  0.00    +0.171 C 
ATOM     11  C   UNL     1      -8.280  -9.149  17.172  0.00  0.00    +0.130 C 
ATOM     12  C   UNL     1     -11.752  -9.214  16.443  0.00  0.00    +0.130 C 
ATOM     13  C   UNL     1      -8.509 -10.100  16.012  0.00  0.00    +0.185 C 
ATOM     14  C   UNL     1     -11.143  -7.971  15.818  0.00  0.00    +0.185 C 
ENDROOT
BRANCH  11   5
ATOM      5  N   UNL     1      -7.719  -9.861  18.299  0.00  0.00    -0.306 N 
ATOM      7  N   UNL     1      -5.744 -10.305  17.160  0.00  0.00    -0.214 NA
ATOM      8  N   UNL     1      -6.081 -11.066  19.422  0.00  0.00    -0.223 NA
ATOM     15  C   UNL     1      -6.460 -10.436  18.293  0.00  0.00    +0.216 A 
ATOM     18  C   UNL     1      -4.521 -10.874  17.190  0.00  0.00    +0.076 A 
ATOM     21  C   UNL     1      -4.847 -11.612  19.383  0.00  0.00    +0.116 A 
ATOM     22  C   UNL     1      -4.015 -11.547  18.283  0.00  0.00    +0.048 A 
ATOM     33  H   UNL     1      -8.241  -9.910  19.167  0.00  0.00    +0.149 HD
BRANCH  18  23
ATOM     23  C   UNL     1      -3.750 -10.736  15.978  0.00  0.00    +0.001 A 
ATOM     27  C   UNL     1      -2.363 -10.617  16.043  0.00  0.00    +0.013 A 
ATOM     28  C   UNL     1      -4.395 -10.718  14.740  0.00  0.00    +0.013 A 
ATOM     29  C   UNL     1      -1.618 -10.482  14.871  0.00  0.00    +0.046 A 
ATOM     30  C   UNL     1      -3.651 -10.582  13.568  0.00  0.00    +0.046 A 
ATOM     31  C   UNL     1      -2.262 -10.464  13.634  0.00  0.00    +0.120 A 
BRANCH  31   4
ATOM      4  O   UNL     1      -1.536 -10.330  12.491  0.00  0.00    -0.495 OA
ATOM     32  C   UNL     1      -2.251  -9.983  11.305  0.00  0.00    +0.277 C 
ENDBRANCH  31   4
ENDBRANCH  18  23
ENDBRANCH  11   5
BRANCH  12   6
ATOM      3  O   UNL     1     -13.901 -10.897  17.337  0.00  0.00    -0.270 OA
ATOM      6  N   UNL     1     -12.772  -8.872  17.404  0.00  0.00    -0.304 N 
ATOM     16  C   UNL     1     -13.775  -9.757  17.774  0.00  0.00    +0.244 C 
ATOM     34  H   UNL     1     -12.796  -7.910  17.726  0.00  0.00    +0.149 HD
BRANCH  16  17
ATOM     17  C   UNL     1     -14.764  -9.243  18.756  0.00  0.00    +0.037 A 
ATOM     19  C   UNL     1     -15.908  -8.580  18.312  0.00  0.00    +0.013 A 
ATOM     20  C   UNL     1     -14.549  -9.424  20.122  0.00  0.00    +0.013 A 
ATOM     24  C   UNL     1     -16.837  -8.097  19.235  0.00  0.00    +0.001 A 
ATOM     25  C   UNL     1     -15.478  -8.942  21.045  0.00  0.00    +0.001 A 
ATOM     26  C   UNL     1     -16.621  -8.278  20.601  0.00  0.00    +0.000 A 
ENDBRANCH  16  17
ENDBRANCH  12   6
TORSDOF 5
ENDMDL
MODEL 7
REMARK VINA RESULT:      -7.0     26.718     29.909
REMARK  Name = 40587851
REMARK  6 active torsions:
REMARK  status: ('A' for Active; 'I' for Inactive)
REMARK    1  A    between atoms: O_4  and  C_31
REMARK    2  A    between atoms: O_4  and  C_32
REMARK    3  A    between atoms: N_5  and  C_11
REMARK    4  A    between atoms: N_6  and  C_12
REMARK    5  A    between atoms: C_16  and  C_17
REMARK    6  A    between atoms: C_18  and  C_23
REMARK                            x       y       z     vdW  Elec       q    Type
REMARK                         _______ _______ _______ _____ _____    ______ ____
ROOT
ATOM      1  O   UNL     1      14.457   8.354  17.994  0.00  0.00    -0.370 OA
ATOM      2  O   UNL     1      11.535   9.254  17.371  0.00  0.00    -0.370 OA
ATOM      9  C   UNL     1      12.806   9.921  17.298  0.00  0.00    +0.171 C 
ATOM     10  C   UNL     1      13.637   9.434  18.470  0.00  0.00    +0.171 C 
ATOM     11  C   UNL     1      13.573   9.456  16.083  0.00  0.00    +0.130 C 
ATOM     12  C   UNL     1      12.615   8.921  19.459  0.00  0.00    +0.130 C 
ATOM     13  C   UNL     1      14.254   8.194  16.582  0.00  0.00    +0.185 C 
ATOM     14  C   UNL     1      11.500   8.434  18.549  0.00  0.00    +0.185 C 
ENDROOT
BRANCH  11   5
ATOM      5  N   UNL     1      14.561  10.445  15.714  0.00  0.00    -0.306 N 
ATOM      7  N   UNL     1      13.207  11.313  14.039  0.00  0.00    -0.214 NA
ATOM      8  N   UNL     1      15.396  12.223  14.474  0.00  0.00    -0.223 NA
ATOM     15  C   UNL     1      14.380  11.367  14.697  0.00  0.00    +0.216 A 
ATOM     18  C   UNL     1      13.062  12.228  13.057  0.00  0.00    +0.076 A 
ATOM     21  C   UNL     1      15.184  13.110  13.479  0.00  0.00    +0.116 A 
ATOM     22  C   UNL     1      14.026  13.159  12.729  0.00  0.00    +0.048 A 
ATOM     33  H   UNL     1      15.420  10.514  16.248  0.00  0.00    +0.149 HD
BRANCH  18  23
ATOM     23  C   UNL     1      11.806  12.174  12.349  0.00  0.00    +0.001 A 
ATOM     27  C   UNL     1      10.605  12.260  13.051  0.00  0.00    +0.013 A 
ATOM     28  C   UNL     1      11.794  12.032  10.960  0.00  0.00    +0.013 A 
ATOM     29  C   UNL     1       9.391  12.207  12.366  0.00  0.00    +0.046 A 
ATOM     30  C   UNL     1      10.580  11.978  10.275  0.00  0.00    +0.046 A 
ATOM     31  C   UNL     1       9.378  12.065  10.979  0.00  0.00    +0.120 A 
BRANCH  31   4
ATOM      4  O   UNL     1       8.194  12.011  10.311  0.00  0.00    -0.495 OA
ATOM     32  C   UNL     1       7.386  13.187  10.325  0.00  0.00    +0.277 C 
ENDBRANCH  31   4
ENDBRANCH  18  23
ENDBRANCH  11   5
BRANCH  12   6
ATOM      3  O   UNL     1      12.049   8.701  22.265  0.00  0.00    -0.270 OA
ATOM      6  N   UNL     1      12.156   9.976  20.330  0.00  0.00    -0.304 N 
ATOM     16  C   UNL     1      11.909   9.772  21.681  0.00  0.00    +0.244 C 
ATOM     34  H   UNL     1      11.914  10.859  19.895  0.00  0.00    +0.149 HD
BRANCH  16  17
ATOM     17  C   UNL     1      11.416  10.953  22.436  0.00  0.00    +0.037 A 
ATOM     19  C   UNL     1      11.165  10.851  23.804  0.00  0.00    +0.013 A 
ATOM     20  C   UNL     1      11.205  12.163  21.776  0.00  0.00    +0.013 A 
ATOM     24  C   UNL     1      10.702  11.960  24.512  0.00  0.00    +0.001 A 
ATOM     25  C   UNL     1      10.742  13.272  22.484  0.00  0.00    +0.001 A 
ATOM     26  C   UNL     1      10.491  13.170  23.853  0.00  0.00    +0.000 A 
ENDBRANCH  16  17
ENDBRANCH  12   6
TORSDOF 5
ENDMDL
MODEL 8
REMARK VINA RESULT:      -7.0     27.975     31.815
REMARK  Name = 40587851
REMARK  6 active torsions:
REMARK  status: ('A' for Active; 'I' for Inactive)
REMARK    1  A    between atoms: O_4  and  C_31
REMARK    2  A    between atoms: O_4  and  C_32
REMARK    3  A    between atoms: N_5  and  C_11
REMARK    4  A    between atoms: N_6  and  C_12
REMARK    5  A    between atoms: C_16  and  C_17
REMARK    6  A    between atoms: C_18  and  C_23
REMARK                            x       y       z     vdW  Elec       q    Type
REMARK                         _______ _______ _______ _____ _____    ______ ____
ROOT
ATOM      1  O   UNL     1      19.560   8.270  22.435  0.00  0.00    -0.370 OA
ATOM      2  O   UNL     1      20.018   6.267  20.087  0.00  0.00    -0.370 OA
ATOM      9  C   UNL     1      19.054   6.331  21.152  0.00  0.00    +0.171 C 
ATOM     10  C   UNL     1      19.775   6.851  22.380  0.00  0.00    +0.171 C 
ATOM     11  C   UNL     1      18.018   7.390  20.856  0.00  0.00    +0.130 C 
ATOM     12  C   UNL     1      21.231   6.550  22.108  0.00  0.00    +0.130 C 
ATOM     13  C   UNL     1      18.680   8.656  21.368  0.00  0.00    +0.185 C 
ATOM     14  C   UNL     1      21.305   6.651  20.594  0.00  0.00    +0.185 C 
ENDROOT
BRANCH  11   5
ATOM      5  N   UNL     1      16.809   7.120  21.603  0.00  0.00    -0.306 N 
ATOM      7  N   UNL     1      15.464   8.023  19.939  0.00  0.00    -0.214 NA
ATOM      8  N   UNL     1      14.514   7.121  21.962  0.00  0.00    -0.223 NA
ATOM     15  C   UNL     1      15.540   7.436  21.148  0.00  0.00    +0.216 A 
ATOM     18  C   UNL     1      14.213   8.314  19.525  0.00  0.00    +0.076 A 
ATOM     21  C   UNL     1      13.292   7.439  21.486  0.00  0.00    +0.116 A 
ATOM     22  C   UNL     1      13.079   8.043  20.263  0.00  0.00    +0.048 A 
ATOM     33  H   UNL     1      16.869   6.630  22.488  0.00  0.00    +0.149 HD
BRANCH  18  23
ATOM     23  C   UNL     1      14.126   8.943  18.230  0.00  0.00    +0.001 A 
ATOM     27  C   UNL     1      13.987   8.163  17.083  0.00  0.00    +0.013 A 
ATOM     28  C   UNL     1      14.185  10.334  18.125  0.00  0.00    +0.013 A 
ATOM     29  C   UNL     1      13.905   8.772  15.830  0.00  0.00    +0.046 A 
ATOM     30  C   UNL     1      14.103  10.943  16.873  0.00  0.00    +0.046 A 
ATOM     31  C   UNL     1      13.963  10.161  15.725  0.00  0.00    +0.120 A 
BRANCH  31   4
ATOM      4  O   UNL     1      13.885  10.756  14.503  0.00  0.00    -0.495 OA
ATOM     32  C   UNL     1      14.427  12.070  14.384  0.00  0.00    +0.277 C 
ENDBRANCH  31   4
ENDBRANCH  18  23
ENDBRANCH  11   5
BRANCH  12   6
ATOM      3  O   UNL     1      23.854   5.631  22.829  0.00  0.00    -0.270 OA
ATOM      6  N   UNL     1      21.586   5.227  22.562  0.00  0.00    -0.304 N 
ATOM     16  C   UNL     1      22.888   4.876  22.889  0.00  0.00    +0.244 C 
ATOM     34  H   UNL     1      20.859   4.521  22.533  0.00  0.00    +0.149 HD
BRANCH  16  17
ATOM     17  C   UNL     1      23.092   3.467  23.315  0.00  0.00    +0.037 A 
ATOM     19  C   UNL     1      22.546   3.016  24.517  0.00  0.00    +0.013 A 
ATOM     20  C   UNL     1      23.829   2.596  22.513  0.00  0.00    +0.013 A 
ATOM     24  C   UNL     1      22.739   1.694  24.917  0.00  0.00    +0.001 A 
ATOM     25  C   UNL     1      24.021   1.274  22.913  0.00  0.00    +0.001 A 
ATOM     26  C   UNL     1      23.476   0.823  24.115  0.00  0.00    +0.000 A 
ENDBRANCH  16  17
ENDBRANCH  12   6
TORSDOF 5
ENDMDL
MODEL 9
REMARK VINA RESULT:      -6.9     23.185     26.624
REMARK  Name = 40587851
REMARK  6 active torsions:
REMARK  status: ('A' for Active; 'I' for Inactive)
REMARK    1  A    between atoms: O_4  and  C_31
REMARK    2  A    between atoms: O_4  and  C_32
REMARK    3  A    between atoms: N_5  and  C_11
REMARK    4  A    between atoms: N_6  and  C_12
REMARK    5  A    between atoms: C_16  and  C_17
REMARK    6  A    between atoms: C_18  and  C_23
REMARK                            x       y       z     vdW  Elec       q    Type
REMARK                         _______ _______ _______ _____ _____    ______ ____
ROOT
ATOM      1  O   UNL     1      10.295   4.719  -5.633  0.00  0.00    -0.370 OA
ATOM      2  O   UNL     1       9.024   2.657  -3.665  0.00  0.00    -0.370 OA
ATOM      9  C   UNL     1       9.045   4.094  -3.707  0.00  0.00    +0.171 C 
ATOM     10  C   UNL     1      10.412   4.509  -4.216  0.00  0.00    +0.171 C 
ATOM     11  C   UNL     1       8.088   4.602  -4.760  0.00  0.00    +0.130 C 
ATOM     12  C   UNL     1      11.290   3.312  -3.932  0.00  0.00    +0.130 C 
ATOM     13  C   UNL     1       8.925   4.545  -6.024  0.00  0.00    +0.185 C 
ATOM     14  C   UNL     1      10.312   2.156  -4.054  0.00  0.00    +0.185 C 
ENDROOT
BRANCH  11   5
ATOM      5  N   UNL     1       7.713   5.968  -4.469  0.00  0.00    -0.306 N 
ATOM      7  N   UNL     1       5.447   5.473  -4.592  0.00  0.00    -0.214 NA
ATOM      8  N   UNL     1       6.215   7.706  -4.109  0.00  0.00    -0.223 NA
ATOM     15  C   UNL     1       6.400   6.401  -4.387  0.00  0.00    +0.216 A 
ATOM     18  C   UNL     1       4.180   5.929  -4.502  0.00  0.00    +0.076 A 
ATOM     21  C   UNL     1       4.924   8.093  -4.033  0.00  0.00    +0.116 A 
ATOM     22  C   UNL     1       3.855   7.240  -4.222  0.00  0.00    +0.048 A 
ATOM     33  H   UNL     1       8.434   6.649  -4.263  0.00  0.00    +0.149 HD
BRANCH  18  23
ATOM     23  C   UNL     1       3.154   4.938  -4.721  0.00  0.00    +0.001 A 
ATOM     27  C   UNL     1       1.851   5.175  -4.287  0.00  0.00    +0.013 A 
ATOM     28  C   UNL     1       3.469   3.740  -5.366  0.00  0.00    +0.013 A 
ATOM     29  C   UNL     1       0.860   4.215  -4.497  0.00  0.00    +0.046 A 
ATOM     30  C   UNL     1       2.478   2.781  -5.577  0.00  0.00    +0.046 A 
ATOM     31  C   UNL     1       1.174   3.019  -5.142  0.00  0.00    +0.120 A 
BRANCH  31   4
ATOM      4  O   UNL     1       0.208   2.082  -5.346  0.00  0.00    -0.495 OA
ATOM     32  C   UNL     1       0.592   0.892  -6.034  0.00  0.00    +0.277 C 
ENDBRANCH  31   4
ENDBRANCH  18  23
ENDBRANCH  11   5
BRANCH  12   6
ATOM      3  O   UNL     1      13.972   4.079  -3.251  0.00  0.00    -0.270 OA
ATOM      6  N   UNL     1      11.855   3.382  -2.607  0.00  0.00    -0.304 N 
ATOM     16  C   UNL     1      13.169   3.765  -2.376  0.00  0.00    +0.244 C 
ATOM     34  H   UNL     1      11.285   3.033  -1.844  0.00  0.00    +0.149 HD
BRANCH  16  17
ATOM     17  C   UNL     1      13.607   3.761  -0.957  0.00  0.00    +0.037 A 
ATOM     19  C   UNL     1      12.785   3.207   0.025  0.00  0.00    +0.013 A 
ATOM     20  C   UNL     1      14.840   4.309  -0.606  0.00  0.00    +0.013 A 
ATOM     24  C   UNL     1      13.197   3.203   1.358  0.00  0.00    +0.001 A 
ATOM     25  C   UNL     1      15.252   4.306   0.727  0.00  0.00    +0.001 A 
ATOM     26  C   UNL     1      14.430   3.752   1.708  0.00  0.00    +0.000 A 
ENDBRANCH  16  17
ENDBRANCH  12   6
TORSDOF 5
ENDMDL
MODEL 10
REMARK VINA RESULT:      -6.7     26.190     28.608
REMARK  Name = 40587851
REMARK  6 active torsions:
REMARK  status: ('A' for Active; 'I' for Inactive)
REMARK    1  A    between atoms: O_4  and  C_31
REMARK    2  A    between atoms: O_4  and  C_32
REMARK    3  A    between atoms: N_5  and  C_11
REMARK    4  A    between atoms: N_6  and  C_12
REMARK    5  A    between atoms: C_16  and  C_17
REMARK    6  A    between atoms: C_18  and  C_23
REMARK                            x       y       z     vdW  Elec       q    Type
REMARK                         _______ _______ _______ _____ _____    ______ ____
ROOT
ATOM      1  O   UNL     1      13.676  11.045   7.098  0.00  0.00    -0.370 OA
ATOM      2  O   UNL     1      14.020   9.775   4.268  0.00  0.00    -0.370 OA
ATOM      9  C   UNL     1      13.699   9.230   5.559  0.00  0.00    +0.171 C 
ATOM     10  C   UNL     1      14.513   9.996   6.585  0.00  0.00    +0.171 C 
ATOM     11  C   UNL     1      12.266   9.541   5.918  0.00  0.00    +0.130 C 
ATOM     12  C   UNL     1      15.658  10.577   5.788  0.00  0.00    +0.130 C 
ATOM     13  C   UNL     1      12.367  10.930   6.520  0.00  0.00    +0.185 C 
ATOM     14  C   UNL     1      15.028  10.785   4.421  0.00  0.00    +0.185 C 
ENDROOT
BRANCH  11   5
ATOM      5  N   UNL     1      11.788   8.600   6.907  0.00  0.00    -0.306 N 
ATOM      7  N   UNL     1      11.098   7.093   5.281  0.00  0.00    -0.214 NA
ATOM      8  N   UNL     1      10.812   6.619   7.627  0.00  0.00    -0.223 NA
ATOM     15  C   UNL     1      11.206   7.384   6.591  0.00  0.00    +0.216 A 
ATOM     18  C   UNL     1      10.529   5.899   5.009  0.00  0.00    +0.076 A 
ATOM     21  C   UNL     1      10.253   5.440   7.282  0.00  0.00    +0.116 A 
ATOM     22  C   UNL     1      10.084   5.023   5.977  0.00  0.00    +0.048 A 
ATOM     33  H   UNL     1      11.921   8.802   7.892  0.00  0.00    +0.149 HD
BRANCH  18  23
ATOM     23  C   UNL     1      10.411   5.583   3.606  0.00  0.00    +0.001 A 
ATOM     27  C   UNL     1      10.778   4.320   3.142  0.00  0.00    +0.013 A 
ATOM     28  C   UNL     1       9.930   6.542   2.713  0.00  0.00    +0.013 A 
ATOM     29  C   UNL     1      10.665   4.015   1.785  0.00  0.00    +0.046 A 
ATOM     30  C   UNL     1       9.817   6.237   1.356  0.00  0.00    +0.046 A 
ATOM     31  C   UNL     1      10.185   4.973   0.893  0.00  0.00    +0.120 A 
BRANCH  31   4
ATOM      4  O   UNL     1      10.075   4.676  -0.431  0.00  0.00    -0.495 OA
ATOM     32  C   UNL     1      11.214   4.090  -1.061  0.00  0.00    +0.277 C 
ENDBRANCH  31   4
ENDBRANCH  18  23
ENDBRANCH  11   5
BRANCH  12   6
ATOM      3  O   UNL     1      18.446  11.257   5.704  0.00  0.00    -0.270 OA
ATOM      6  N   UNL     1      16.767   9.657   5.719  0.00  0.00    -0.304 N 
ATOM     16  C   UNL     1      18.087  10.083   5.682  0.00  0.00    +0.244 C 
ATOM     34  H   UNL     1      16.544   8.677   5.588  0.00  0.00    +0.149 HD
BRANCH  16  17
ATOM     17  C   UNL     1      19.112   9.012   5.585  0.00  0.00    +0.037 A 
ATOM     19  C   UNL     1      19.283   8.316   4.388  0.00  0.00    +0.013 A 
ATOM     20  C   UNL     1      19.904   8.702   6.691  0.00  0.00    +0.013 A 
ATOM     24  C   UNL     1      20.246   7.310   4.298  0.00  0.00    +0.001 A 
ATOM     25  C   UNL     1      20.866   7.697   6.601  0.00  0.00    +0.001 A 
ATOM     26  C   UNL     1      21.037   7.001   5.404  0.00  0.00    +0.000 A 
ENDBRANCH  16  17
ENDBRANCH  12   6
TORSDOF 5
ENDMDL
