REMARK  Name = 7674734
REMARK  5 active torsions:
REMARK  status: ('A' for Active; 'I' for Inactive)
REMARK    1  A    between atoms: S_1  and  N_10
REMARK    2  A    between atoms: S_1  and  C_23
REMARK    3  A    between atoms: O_9  and  C_32
REMARK    4  A    between atoms: O_9  and  C_33
REMARK    5  A    between atoms: C_21  and  C_24
REMARK                            x       y       z     vdW  Elec       q    Type
REMARK                         _______ _______ _______ _____ _____    ______ ____
ROOT
ATOM      8  O   UNL     1      -0.719   1.824  -1.366  0.00  0.00    -0.267 OA
ATOM     10  N   UNL     1       3.944   0.217  -0.641  0.00  0.00    -0.175 NA
ATOM     11  N   UNL     1       1.264   1.814  -0.139  0.00  0.00    -0.311 N 
ATOM     12  C   UNL     1       3.491   2.628  -1.108  0.00  0.00    +0.025 C 
ATOM     13  C   UNL     1       3.397   1.795   1.200  0.00  0.00    +0.052 C 
ATOM     14  C   UNL     1       3.830   2.975   0.335  0.00  0.00    +0.017 C 
ATOM     15  C   UNL     1       4.242   1.361  -1.550  0.00  0.00    +0.114 C 
ATOM     16  C   UNL     1       4.192   0.541   0.795  0.00  0.00    +0.119 C 
ATOM     17  C   UNL     1       1.970   2.483  -1.240  0.00  0.00    +0.130 C 
ATOM     18  C   UNL     1       1.907   1.540   1.071  0.00  0.00    +0.026 A 
ATOM     19  C   UNL     1       1.213   1.036   2.103  0.00  0.00    +0.022 A 
ATOM     20  C   UNL     1      -0.110   1.564  -0.327  0.00  0.00    +0.259 A 
ATOM     21  C   UNL     1      -0.853   0.964   0.836  0.00  0.00    +0.047 A 
ATOM     22  C   UNL     1      -0.185   0.739   1.978  0.00  0.00    +0.015 A 
ENDROOT
BRANCH  21  24
ATOM     24  C   UNL     1      -2.281   0.619   0.733  0.00  0.00    -0.012 A 
ATOM     26  C   UNL     1      -3.254   1.559   1.074  0.00  0.00    +0.012 A 
ATOM     27  C   UNL     1      -2.663  -0.650   0.295  0.00  0.00    +0.012 A 
ATOM     30  C   UNL     1      -4.606   1.232   0.978  0.00  0.00    +0.046 A 
ATOM     31  C   UNL     1      -4.016  -0.977   0.198  0.00  0.00    +0.046 A 
ATOM     32  C   UNL     1      -4.987  -0.037   0.539  0.00  0.00    +0.130 A 
BRANCH  32   9
ATOM      9  O   UNL     1      -6.307  -0.356   0.445  0.00  0.00    -0.406 OA
BRANCH   9  33
ATOM      3  F   UNL     1      -6.144  -0.117  -1.824  0.00  0.00    -0.133 F 
ATOM      4  F   UNL     1      -8.115  -0.344  -0.906  0.00  0.00    -0.133 F 
ATOM      5  F   UNL     1      -6.775  -2.067  -0.998  0.00  0.00    -0.133 F 
ATOM     33  C   UNL     1      -6.821  -0.729  -0.829  0.00  0.00    +0.575 C 
ENDBRANCH   9  33
ENDBRANCH  32   9
ENDBRANCH  21  24
BRANCH  10   1
ATOM      1  S   UNL     1       4.510  -1.311  -1.164  0.00  0.00    +0.067 S 
ATOM      6  O   UNL     1       5.910  -1.441  -0.817  0.00  0.00    -0.152 OA
ATOM      7  O   UNL     1       4.054  -1.544  -2.518  0.00  0.00    -0.152 OA
BRANCH   1  23
ATOM      2  S   UNL     1       1.912  -2.427  -0.422  0.00  0.00    -0.077 S 
ATOM     23  C   UNL     1       3.588  -2.366  -0.091  0.00  0.00    +0.143 A 
ATOM     25  C   UNL     1       3.943  -3.161   0.971  0.00  0.00    +0.036 A 
ATOM     28  C   UNL     1       2.818  -3.835   1.527  0.00  0.00    +0.010 A 
ATOM     29  C   UNL     1       1.650  -3.526   0.865  0.00  0.00    +0.047 A 
ENDBRANCH   1  23
ENDBRANCH  10   1
TORSDOF 5
