MODEL 1
REMARK VINA RESULT:      -7.3      0.000      0.000
REMARK  Name = 45783362
REMARK  10 active torsions:
REMARK  status: ('A' for Active; 'I' for Inactive)
REMARK    1  A    between atoms: O_5  and  C_28
REMARK    2  A    between atoms: O_5  and  C_30
REMARK    3  A    between atoms: O_6  and  C_31
REMARK    4  A    between atoms: O_6  and  C_32
REMARK    5  A    between atoms: N_7  and  C_15
REMARK    6  A    between atoms: C_11  and  C_16
REMARK    7  A    between atoms: C_15  and  C_17
REMARK    8  A    between atoms: C_20  and  C_24
REMARK    9  A    between atoms: C_23  and  C_25
REMARK   10  A    between atoms: C_30  and  C_31
REMARK                            x       y       z     vdW  Elec       q    Type
REMARK                         _______ _______ _______ _____ _____    ______ ____
ROOT
ATOM      7  N   UNL     1      12.583   8.676  18.473  0.00  0.00    -0.287 NA
ATOM     11  C   UNL     1      13.454   7.548  18.086  0.00  0.00    +0.146 C 
ATOM     12  C   UNL     1      14.046   7.959  16.726  0.00  0.00    +0.030 C 
ATOM     13  C   UNL     1      13.407   9.302  16.403  0.00  0.00    +0.017 C 
ATOM     14  C   UNL     1      12.135   9.298  17.227  0.00  0.00    +0.085 C 
ENDROOT
BRANCH  11  16
ATOM      4  O   UNL     1      14.106   6.601  20.243  0.00  0.00    -0.336 OA
ATOM      8  N   UNL     1      15.796   7.529  19.102  0.00  0.00    -0.190 NA
ATOM      9  N   UNL     1      15.247   6.441  21.039  0.00  0.00    -0.056 NA
ATOM     16  C   UNL     1      14.517   7.250  19.122  0.00  0.00    +0.245 A 
ATOM     20  C   UNL     1      16.201   7.013  20.298  0.00  0.00    +0.202 A 
BRANCH  20  24
ATOM     10  N   UNL     1      20.234   7.226  21.558  0.00  0.00    -0.221 NA
ATOM     24  C   UNL     1      17.569   7.085  20.725  0.00  0.00    +0.029 A 
ATOM     26  C   UNL     1      18.474   6.102  20.340  0.00  0.00    +0.079 A 
ATOM     27  C   UNL     1      17.995   8.138  21.527  0.00  0.00    +0.031 A 
ATOM     28  C   UNL     1      19.782   6.216  20.779  0.00  0.00    +0.215 A 
ATOM     29  C   UNL     1      19.326   8.162  21.912  0.00  0.00    +0.115 A 
BRANCH  28   5
ATOM      5  O   UNL     1      20.693   5.259  20.413  0.00  0.00    -0.474 OA
BRANCH   5  30
ATOM     30  C   UNL     1      22.003   5.383  20.952  0.00  0.00    +0.258 C 
BRANCH  30  31
ATOM     31  C   UNL     1      22.279   4.200  21.860  0.00  0.00    +0.200 C 
BRANCH  31   6
ATOM      6  O   UNL     1      22.094   2.997  21.124  0.00  0.00    -0.380 OA
ATOM     32  C   UNL     1      23.328   2.329  20.902  0.00  0.00    +0.194 C 
ENDBRANCH  31   6
ENDBRANCH  30  31
ENDBRANCH   5  30
ENDBRANCH  28   5
ENDBRANCH  20  24
ENDBRANCH  11  16
BRANCH   7  15
ATOM     15  C   UNL     1      11.466   8.276  19.319  0.00  0.00    +0.120 C 
BRANCH  15  17
ATOM     17  C   UNL     1      11.393   9.101  20.576  0.00  0.00    -0.033 A 
ATOM     18  C   UNL     1      10.734   8.602  21.700  0.00  0.00    +0.005 A 
ATOM     19  C   UNL     1      11.985  10.363  20.618  0.00  0.00    +0.005 A 
ATOM     21  C   UNL     1      10.666   9.366  22.865  0.00  0.00    +0.012 A 
ATOM     22  C   UNL     1      11.917  11.127  21.783  0.00  0.00    +0.012 A 
ATOM     23  C   UNL     1      11.258  10.628  22.907  0.00  0.00    +0.055 A 
BRANCH  23  25
ATOM      1  F   UNL     1      10.127  12.301  24.189  0.00  0.00    -0.166 F 
ATOM      2  F   UNL     1      12.295  12.221  24.334  0.00  0.00    -0.166 F 
ATOM      3  F   UNL     1      11.078  10.694  25.291  0.00  0.00    -0.166 F 
ATOM     25  C   UNL     1      11.189  11.443  24.154  0.00  0.00    +0.417 C 
ENDBRANCH  23  25
ENDBRANCH  15  17
ENDBRANCH   7  15
TORSDOF 9
ENDMDL
MODEL 2
REMARK VINA RESULT:      -6.8     27.575     31.235
REMARK  Name = 45783362
REMARK  10 active torsions:
REMARK  status: ('A' for Active; 'I' for Inactive)
REMARK    1  A    between atoms: O_5  and  C_28
REMARK    2  A    between atoms: O_5  and  C_30
REMARK    3  A    between atoms: O_6  and  C_31
REMARK    4  A    between atoms: O_6  and  C_32
REMARK    5  A    between atoms: N_7  and  C_15
REMARK    6  A    between atoms: C_11  and  C_16
REMARK    7  A    between atoms: C_15  and  C_17
REMARK    8  A    between atoms: C_20  and  C_24
REMARK    9  A    between atoms: C_23  and  C_25
REMARK   10  A    between atoms: C_30  and  C_31
REMARK                            x       y       z     vdW  Elec       q    Type
REMARK                         _______ _______ _______ _____ _____    ______ ____
ROOT
ATOM      7  N   UNL     1     -15.444   5.696  21.639  0.00  0.00    -0.287 NA
ATOM     11  C   UNL     1     -16.768   5.401  22.221  0.00  0.00    +0.146 C 
ATOM     12  C   UNL     1     -17.680   5.142  21.008  0.00  0.00    +0.030 C 
ATOM     13  C   UNL     1     -16.797   5.373  19.790  0.00  0.00    +0.017 C 
ATOM     14  C   UNL     1     -15.693   6.268  20.315  0.00  0.00    +0.085 C 
ENDROOT
BRANCH  11  16
ATOM      4  O   UNL     1     -16.535   3.005  22.645  0.00  0.00    -0.336 OA
ATOM      8  N   UNL     1     -16.868   4.232  24.489  0.00  0.00    -0.190 NA
ATOM      9  N   UNL     1     -16.541   2.103  23.716  0.00  0.00    -0.056 NA
ATOM     16  C   UNL     1     -16.733   4.235  23.187  0.00  0.00    +0.245 A 
ATOM     20  C   UNL     1     -16.743   2.903  24.769  0.00  0.00    +0.202 A 
BRANCH  20  24
ATOM     10  N   UNL     1     -16.980   1.432  28.727  0.00  0.00    -0.221 NA
ATOM     24  C   UNL     1     -16.823   2.404  26.111  0.00  0.00    +0.029 A 
ATOM     26  C   UNL     1     -16.075   2.997  27.122  0.00  0.00    +0.079 A 
ATOM     27  C   UNL     1     -17.650   1.326  26.407  0.00  0.00    +0.031 A 
ATOM     28  C   UNL     1     -16.186   2.478  28.402  0.00  0.00    +0.215 A 
ATOM     29  C   UNL     1     -17.692   0.882  27.719  0.00  0.00    +0.115 A 
BRANCH  28   5
ATOM      5  O   UNL     1     -15.458   3.044  29.415  0.00  0.00    -0.474 OA
BRANCH   5  30
ATOM     30  C   UNL     1     -15.112   2.198  30.505  0.00  0.00    +0.258 C 
BRANCH  30  31
ATOM     31  C   UNL     1     -13.731   1.619  30.262  0.00  0.00    +0.200 C 
BRANCH  31   6
ATOM      6  O   UNL     1     -13.813   0.199  30.290  0.00  0.00    -0.380 OA
ATOM     32  C   UNL     1     -14.875  -0.245  31.122  0.00  0.00    +0.194 C 
ENDBRANCH  31   6
ENDBRANCH  30  31
ENDBRANCH   5  30
ENDBRANCH  28   5
ENDBRANCH  20  24
ENDBRANCH  11  16
BRANCH   7  15
ATOM     15  C   UNL     1     -14.632   6.575  22.471  0.00  0.00    +0.120 C 
BRANCH  15  17
ATOM     17  C   UNL     1     -13.592   7.306  21.666  0.00  0.00    -0.033 A 
ATOM     18  C   UNL     1     -12.518   6.607  21.115  0.00  0.00    +0.005 A 
ATOM     19  C   UNL     1     -13.702   8.683  21.470  0.00  0.00    +0.005 A 
ATOM     21  C   UNL     1     -11.554   7.284  20.368  0.00  0.00    +0.012 A 
ATOM     22  C   UNL     1     -12.739   9.360  20.724  0.00  0.00    +0.012 A 
ATOM     23  C   UNL     1     -11.665   8.661  20.172  0.00  0.00    +0.055 A 
BRANCH  23  25
ATOM      1  F   UNL     1     -10.752  10.744  19.430  0.00  0.00    -0.166 F 
ATOM      2  F   UNL     1     -10.689   9.071  18.043  0.00  0.00    -0.166 F 
ATOM      3  F   UNL     1      -9.353   9.119  19.759  0.00  0.00    -0.166 F 
ATOM     25  C   UNL     1     -10.636   9.385  19.371  0.00  0.00    +0.417 C 
ENDBRANCH  23  25
ENDBRANCH  15  17
ENDBRANCH   7  15
TORSDOF 9
ENDMDL
MODEL 3
REMARK VINA RESULT:      -6.8      5.267      8.193
REMARK  Name = 45783362
REMARK  10 active torsions:
REMARK  status: ('A' for Active; 'I' for Inactive)
REMARK    1  A    between atoms: O_5  and  C_28
REMARK    2  A    between atoms: O_5  and  C_30
REMARK    3  A    between atoms: O_6  and  C_31
REMARK    4  A    between atoms: O_6  and  C_32
REMARK    5  A    between atoms: N_7  and  C_15
REMARK    6  A    between atoms: C_11  and  C_16
REMARK    7  A    between atoms: C_15  and  C_17
REMARK    8  A    between atoms: C_20  and  C_24
REMARK    9  A    between atoms: C_23  and  C_25
REMARK   10  A    between atoms: C_30  and  C_31
REMARK                            x       y       z     vdW  Elec       q    Type
REMARK                         _______ _______ _______ _____ _____    ______ ____
ROOT
ATOM      7  N   UNL     1      13.873   8.134  19.898  0.00  0.00    -0.287 NA
ATOM     11  C   UNL     1      12.773   8.552  19.006  0.00  0.00    +0.146 C 
ATOM     12  C   UNL     1      12.066   9.690  19.763  0.00  0.00    +0.030 C 
ATOM     13  C   UNL     1      12.800   9.800  21.092  0.00  0.00    +0.017 C 
ATOM     14  C   UNL     1      13.437   8.436  21.261  0.00  0.00    +0.085 C 
ENDROOT
BRANCH  11  16
ATOM      4  O   UNL     1      13.237   8.026  16.665  0.00  0.00    -0.336 OA
ATOM      8  N   UNL     1      13.716  10.137  17.240  0.00  0.00    -0.190 NA
ATOM      9  N   UNL     1      13.728   8.643  15.507  0.00  0.00    -0.056 NA
ATOM     16  C   UNL     1      13.263   8.974  17.637  0.00  0.00    +0.245 A 
ATOM     20  C   UNL     1      13.988   9.885  15.927  0.00  0.00    +0.202 A 
BRANCH  20  24
ATOM     10  N   UNL     1      15.556  12.868  13.371  0.00  0.00    -0.221 NA
ATOM     24  C   UNL     1      14.520  10.896  15.060  0.00  0.00    +0.029 A 
ATOM     26  C   UNL     1      15.870  10.892  14.727  0.00  0.00    +0.079 A 
ATOM     27  C   UNL     1      13.687  11.886  14.549  0.00  0.00    +0.031 A 
ATOM     28  C   UNL     1      16.335  11.890  13.887  0.00  0.00    +0.215 A 
ATOM     29  C   UNL     1      14.250  12.840  13.716  0.00  0.00    +0.115 A 
BRANCH  28   5
ATOM      5  O   UNL     1      17.662  11.907  13.545  0.00  0.00    -0.474 OA
BRANCH   5  30
ATOM     30  C   UNL     1      18.588  12.183  14.588  0.00  0.00    +0.258 C 
BRANCH  30  31
ATOM     31  C   UNL     1      19.776  11.249  14.457  0.00  0.00    +0.200 C 
BRANCH  31   6
ATOM      6  O   UNL     1      20.672  11.772  13.484  0.00  0.00    -0.380 OA
ATOM     32  C   UNL     1      21.915  12.139  14.065  0.00  0.00    +0.194 C 
ENDBRANCH  31   6
ENDBRANCH  30  31
ENDBRANCH   5  30
ENDBRANCH  28   5
ENDBRANCH  20  24
ENDBRANCH  11  16
BRANCH   7  15
ATOM     15  C   UNL     1      14.244   6.734  19.738  0.00  0.00    +0.120 C 
BRANCH  15  17
ATOM     17  C   UNL     1      15.713   6.512  19.977  0.00  0.00    -0.033 A 
ATOM     18  C   UNL     1      16.267   6.792  21.226  0.00  0.00    +0.005 A 
ATOM     19  C   UNL     1      16.521   6.026  18.949  0.00  0.00    +0.005 A 
ATOM     21  C   UNL     1      17.629   6.586  21.447  0.00  0.00    +0.012 A 
ATOM     22  C   UNL     1      17.883   5.820  19.170  0.00  0.00    +0.012 A 
ATOM     23  C   UNL     1      18.437   6.100  20.419  0.00  0.00    +0.055 A 
BRANCH  23  25
ATOM      1  F   UNL     1      20.368   4.726  20.097  0.00  0.00    -0.166 F 
ATOM      2  F   UNL     1      20.199   5.792  21.984  0.00  0.00    -0.166 F 
ATOM      3  F   UNL     1      20.686   6.870  20.159  0.00  0.00    -0.166 F 
ATOM     25  C   UNL     1      19.892   5.876  20.657  0.00  0.00    +0.417 C 
ENDBRANCH  23  25
ENDBRANCH  15  17
ENDBRANCH   7  15
TORSDOF 9
ENDMDL
MODEL 4
REMARK VINA RESULT:      -6.8      3.695      4.951
REMARK  Name = 45783362
REMARK  10 active torsions:
REMARK  status: ('A' for Active; 'I' for Inactive)
REMARK    1  A    between atoms: O_5  and  C_28
REMARK    2  A    between atoms: O_5  and  C_30
REMARK    3  A    between atoms: O_6  and  C_31
REMARK    4  A    between atoms: O_6  and  C_32
REMARK    5  A    between atoms: N_7  and  C_15
REMARK    6  A    between atoms: C_11  and  C_16
REMARK    7  A    between atoms: C_15  and  C_17
REMARK    8  A    between atoms: C_20  and  C_24
REMARK    9  A    between atoms: C_23  and  C_25
REMARK   10  A    between atoms: C_30  and  C_31
REMARK                            x       y       z     vdW  Elec       q    Type
REMARK                         _______ _______ _______ _____ _____    ______ ____
ROOT
ATOM      7  N   UNL     1      12.332   8.883  20.303  0.00  0.00    -0.287 NA
ATOM     11  C   UNL     1      13.060   8.295  21.444  0.00  0.00    +0.146 C 
ATOM     12  C   UNL     1      12.098   7.241  22.022  0.00  0.00    +0.030 C 
ATOM     13  C   UNL     1      10.835   7.351  21.179  0.00  0.00    +0.017 C 
ATOM     14  C   UNL     1      10.907   8.754  20.611  0.00  0.00    +0.085 C 
ENDROOT
BRANCH  11  16
ATOM      4  O   UNL     1      14.374   6.745  20.085  0.00  0.00    -0.336 OA
ATOM      8  N   UNL     1      15.596   7.995  21.486  0.00  0.00    -0.190 NA
ATOM      9  N   UNL     1      15.707   6.364  19.885  0.00  0.00    -0.056 NA
ATOM     16  C   UNL     1      14.398   7.709  21.043  0.00  0.00    +0.245 A 
ATOM     20  C   UNL     1      16.365   7.145  20.747  0.00  0.00    +0.202 A 
BRANCH  20  24
ATOM     10  N   UNL     1      20.571   7.014  21.177  0.00  0.00    -0.221 NA
ATOM     24  C   UNL     1      17.791   7.101  20.893  0.00  0.00    +0.029 A 
ATOM     26  C   UNL     1      18.505   5.994  20.445  0.00  0.00    +0.079 A 
ATOM     27  C   UNL     1      18.467   8.164  21.483  0.00  0.00    +0.031 A 
ATOM     28  C   UNL     1      19.881   5.998  20.610  0.00  0.00    +0.215 A 
ATOM     29  C   UNL     1      19.845   8.071  21.600  0.00  0.00    +0.115 A 
BRANCH  28   5
ATOM      5  O   UNL     1      20.606   4.919  20.178  0.00  0.00    -0.474 OA
BRANCH   5  30
ATOM     30  C   UNL     1      21.889   4.735  20.762  0.00  0.00    +0.258 C 
BRANCH  30  31
ATOM     31  C   UNL     1      21.961   3.348  21.372  0.00  0.00    +0.200 C 
BRANCH  31   6
ATOM      6  O   UNL     1      23.290   2.855  21.245  0.00  0.00    -0.380 OA
ATOM     32  C   UNL     1      24.106   3.742  20.494  0.00  0.00    +0.194 C 
ENDBRANCH  31   6
ENDBRANCH  30  31
ENDBRANCH   5  30
ENDBRANCH  28   5
ENDBRANCH  20  24
ENDBRANCH  11  16
BRANCH   7  15
ATOM     15  C   UNL     1      12.710  10.263  20.028  0.00  0.00    +0.120 C 
BRANCH  15  17
ATOM     17  C   UNL     1      13.399  10.401  18.697  0.00  0.00    -0.033 A 
ATOM     18  C   UNL     1      13.473   9.308  17.833  0.00  0.00    +0.005 A 
ATOM     19  C   UNL     1      13.963  11.622  18.326  0.00  0.00    +0.005 A 
ATOM     21  C   UNL     1      14.110   9.436  16.599  0.00  0.00    +0.012 A 
ATOM     22  C   UNL     1      14.602  11.749  17.093  0.00  0.00    +0.012 A 
ATOM     23  C   UNL     1      14.674  10.656  16.228  0.00  0.00    +0.055 A 
BRANCH  23  25
ATOM      1  F   UNL     1      15.573   9.602  14.279  0.00  0.00    -0.166 F 
ATOM      2  F   UNL     1      16.578  11.387  15.007  0.00  0.00    -0.166 F 
ATOM      3  F   UNL     1      14.652  11.547  14.009  0.00  0.00    -0.166 F 
ATOM     25  C   UNL     1      15.353  10.794  14.908  0.00  0.00    +0.417 C 
ENDBRANCH  23  25
ENDBRANCH  15  17
ENDBRANCH   7  15
TORSDOF 9
ENDMDL
MODEL 5
REMARK VINA RESULT:      -6.7      4.963      8.299
REMARK  Name = 45783362
REMARK  10 active torsions:
REMARK  status: ('A' for Active; 'I' for Inactive)
REMARK    1  A    between atoms: O_5  and  C_28
REMARK    2  A    between atoms: O_5  and  C_30
REMARK    3  A    between atoms: O_6  and  C_31
REMARK    4  A    between atoms: O_6  and  C_32
REMARK    5  A    between atoms: N_7  and  C_15
REMARK    6  A    between atoms: C_11  and  C_16
REMARK    7  A    between atoms: C_15  and  C_17
REMARK    8  A    between atoms: C_20  and  C_24
REMARK    9  A    between atoms: C_23  and  C_25
REMARK   10  A    between atoms: C_30  and  C_31
REMARK                            x       y       z     vdW  Elec       q    Type
REMARK                         _______ _______ _______ _____ _____    ______ ____
ROOT
ATOM      7  N   UNL     1      13.730   8.004  18.760  0.00  0.00    -0.287 NA
ATOM     11  C   UNL     1      14.460   9.246  19.084  0.00  0.00    +0.146 C 
ATOM     12  C   UNL     1      14.704   9.923  17.723  0.00  0.00    +0.030 C 
ATOM     13  C   UNL     1      14.131   8.961  16.692  0.00  0.00    +0.017 C 
ATOM     14  C   UNL     1      14.139   7.626  17.407  0.00  0.00    +0.085 C 
ENDROOT
BRANCH  11  16
ATOM      4  O   UNL     1      13.018  11.173  19.510  0.00  0.00    -0.336 OA
ATOM      8  N   UNL     1      13.607  10.045  21.354  0.00  0.00    -0.190 NA
ATOM      9  N   UNL     1      12.409  11.835  20.583  0.00  0.00    -0.056 NA
ATOM     16  C   UNL     1      13.703  10.131  20.051  0.00  0.00    +0.245 A 
ATOM     20  C   UNL     1      12.803  11.111  21.635  0.00  0.00    +0.202 A 
BRANCH  20  24
ATOM     10  N   UNL     1      11.647  12.039  25.596  0.00  0.00    -0.221 NA
ATOM     24  C   UNL     1      12.411  11.425  22.978  0.00  0.00    +0.029 A 
ATOM     26  C   UNL     1      13.377  11.672  23.948  0.00  0.00    +0.079 A 
ATOM     27  C   UNL     1      11.064  11.485  23.316  0.00  0.00    +0.031 A 
ATOM     28  C   UNL     1      12.948  11.971  25.231  0.00  0.00    +0.215 A 
ATOM     29  C   UNL     1      10.738  11.793  24.628  0.00  0.00    +0.115 A 
BRANCH  28   5
ATOM      5  O   UNL     1      13.881  12.217  26.204  0.00  0.00    -0.474 OA
BRANCH   5  30
ATOM     30  C   UNL     1      14.992  11.332  26.264  0.00  0.00    +0.258 C 
BRANCH  30  31
ATOM     31  C   UNL     1      15.751  11.576  27.554  0.00  0.00    +0.200 C 
BRANCH  31   6
ATOM      6  O   UNL     1      14.971  11.105  28.647  0.00  0.00    -0.380 OA
ATOM     32  C   UNL     1      15.053  11.982  29.761  0.00  0.00    +0.194 C 
ENDBRANCH  31   6
ENDBRANCH  30  31
ENDBRANCH   5  30
ENDBRANCH  28   5
ENDBRANCH  20  24
ENDBRANCH  11  16
BRANCH   7  15
ATOM     15  C   UNL     1      13.960   6.934  19.722  0.00  0.00    +0.120 C 
BRANCH  15  17
ATOM     17  C   UNL     1      15.428   6.708  19.968  0.00  0.00    -0.033 A 
ATOM     18  C   UNL     1      15.994   7.065  21.192  0.00  0.00    +0.005 A 
ATOM     19  C   UNL     1      16.223   6.141  18.972  0.00  0.00    +0.005 A 
ATOM     21  C   UNL     1      17.353   6.855  21.420  0.00  0.00    +0.012 A 
ATOM     22  C   UNL     1      17.583   5.931  19.199  0.00  0.00    +0.012 A 
ATOM     23  C   UNL     1      18.148   6.288  20.424  0.00  0.00    +0.055 A 
BRANCH  23  25
ATOM      1  F   UNL     1      19.932   6.011  21.993  0.00  0.00    -0.166 F 
ATOM      2  F   UNL     1      20.384   7.042  20.133  0.00  0.00    -0.166 F 
ATOM      3  F   UNL     1      20.069   4.890  20.141  0.00  0.00    -0.166 F 
ATOM     25  C   UNL     1      19.601   6.061  20.669  0.00  0.00    +0.417 C 
ENDBRANCH  23  25
ENDBRANCH  15  17
ENDBRANCH   7  15
TORSDOF 9
ENDMDL
MODEL 6
REMARK VINA RESULT:      -6.7     26.689     29.849
REMARK  Name = 45783362
REMARK  10 active torsions:
REMARK  status: ('A' for Active; 'I' for Inactive)
REMARK    1  A    between atoms: O_5  and  C_28
REMARK    2  A    between atoms: O_5  and  C_30
REMARK    3  A    between atoms: O_6  and  C_31
REMARK    4  A    between atoms: O_6  and  C_32
REMARK    5  A    between atoms: N_7  and  C_15
REMARK    6  A    between atoms: C_11  and  C_16
REMARK    7  A    between atoms: C_15  and  C_17
REMARK    8  A    between atoms: C_20  and  C_24
REMARK    9  A    between atoms: C_23  and  C_25
REMARK   10  A    between atoms: C_30  and  C_31
REMARK                            x       y       z     vdW  Elec       q    Type
REMARK                         _______ _______ _______ _____ _____    ______ ____
ROOT
ATOM      7  N   UNL     1      -3.121 -10.647  14.395  0.00  0.00    -0.287 NA
ATOM     11  C   UNL     1      -2.967 -11.280  15.719  0.00  0.00    +0.146 C 
ATOM     12  C   UNL     1      -1.681 -10.665  16.300  0.00  0.00    +0.030 C 
ATOM     13  C   UNL     1      -1.151  -9.746  15.208  0.00  0.00    +0.017 C 
ATOM     14  C   UNL     1      -1.773 -10.301  13.943  0.00  0.00    +0.085 C 
ENDROOT
BRANCH  11  16
ATOM      4  O   UNL     1      -4.037 -11.430  17.912  0.00  0.00    -0.336 OA
ATOM      8  N   UNL     1      -5.349 -10.573  16.312  0.00  0.00    -0.190 NA
ATOM      9  N   UNL     1      -5.262 -11.142  18.526  0.00  0.00    -0.056 NA
ATOM     16  C   UNL     1      -4.173 -11.065  16.611  0.00  0.00    +0.245 A 
ATOM     20  C   UNL     1      -5.982 -10.640  17.518  0.00  0.00    +0.202 A 
BRANCH  20  24
ATOM     10  N   UNL     1      -9.974  -9.330  18.008  0.00  0.00    -0.221 NA
ATOM     24  C   UNL     1      -7.335 -10.196  17.684  0.00  0.00    +0.029 A 
ATOM     26  C   UNL     1      -7.805  -9.101  16.965  0.00  0.00    +0.079 A 
ATOM     27  C   UNL     1      -8.184 -10.857  18.564  0.00  0.00    +0.031 A 
ATOM     28  C   UNL     1      -9.119  -8.710  17.162  0.00  0.00    +0.215 A 
ATOM     29  C   UNL     1      -9.483 -10.389  18.688  0.00  0.00    +0.115 A 
BRANCH  28   5
ATOM      5  O   UNL     1      -9.605  -7.634  16.466  0.00  0.00    -0.474 OA
BRANCH   5  30
ATOM     30  C   UNL     1     -10.918  -7.200  16.794  0.00  0.00    +0.258 C 
BRANCH  30  31
ATOM     31  C   UNL     1     -11.255  -5.973  15.969  0.00  0.00    +0.200 C 
BRANCH  31   6
ATOM      6  O   UNL     1     -11.808  -6.388  14.726  0.00  0.00    -0.380 OA
ATOM     32  C   UNL     1     -12.807  -7.382  14.906  0.00  0.00    +0.194 C 
ENDBRANCH  31   6
ENDBRANCH  30  31
ENDBRANCH   5  30
ENDBRANCH  28   5
ENDBRANCH  20  24
ENDBRANCH  11  16
BRANCH   7  15
ATOM     15  C   UNL     1      -3.822 -11.488  13.433  0.00  0.00    +0.120 C 
BRANCH  15  17
ATOM     17  C   UNL     1      -4.516 -10.671  12.376  0.00  0.00    -0.033 A 
ATOM     18  C   UNL     1      -5.570  -9.827  12.726  0.00  0.00    +0.005 A 
ATOM     19  C   UNL     1      -4.105 -10.758  11.046  0.00  0.00    +0.005 A 
ATOM     21  C   UNL     1      -6.213  -9.070  11.747  0.00  0.00    +0.012 A 
ATOM     22  C   UNL     1      -4.748 -10.002  10.066  0.00  0.00    +0.012 A 
ATOM     23  C   UNL     1      -5.802  -9.157  10.417  0.00  0.00    +0.055 A 
BRANCH  23  25
ATOM      1  F   UNL     1      -6.489  -8.931   8.137  0.00  0.00    -0.166 F 
ATOM      2  F   UNL     1      -5.909  -7.121   9.194  0.00  0.00    -0.166 F 
ATOM      3  F   UNL     1      -7.802  -8.094   9.647  0.00  0.00    -0.166 F 
ATOM     25  C   UNL     1      -6.487  -8.345   9.371  0.00  0.00    +0.417 C 
ENDBRANCH  23  25
ENDBRANCH  15  17
ENDBRANCH   7  15
TORSDOF 9
ENDMDL
MODEL 7
REMARK VINA RESULT:      -6.6     27.891     31.756
REMARK  Name = 45783362
REMARK  10 active torsions:
REMARK  status: ('A' for Active; 'I' for Inactive)
REMARK    1  A    between atoms: O_5  and  C_28
REMARK    2  A    between atoms: O_5  and  C_30
REMARK    3  A    between atoms: O_6  and  C_31
REMARK    4  A    between atoms: O_6  and  C_32
REMARK    5  A    between atoms: N_7  and  C_15
REMARK    6  A    between atoms: C_11  and  C_16
REMARK    7  A    between atoms: C_15  and  C_17
REMARK    8  A    between atoms: C_20  and  C_24
REMARK    9  A    between atoms: C_23  and  C_25
REMARK   10  A    between atoms: C_30  and  C_31
REMARK                            x       y       z     vdW  Elec       q    Type
REMARK                         _______ _______ _______ _____ _____    ______ ____
ROOT
ATOM      7  N   UNL     1     -17.512   3.062  27.262  0.00  0.00    -0.287 NA
ATOM     11  C   UNL     1     -16.459   2.327  26.534  0.00  0.00    +0.146 C 
ATOM     12  C   UNL     1     -16.957   0.871  26.489  0.00  0.00    +0.030 C 
ATOM     13  C   UNL     1     -18.265   0.874  27.267  0.00  0.00    +0.017 C 
ATOM     14  C   UNL     1     -18.148   2.094  28.157  0.00  0.00    +0.085 C 
ENDROOT
BRANCH  11  16
ATOM      4  O   UNL     1     -16.580   2.136  24.101  0.00  0.00    -0.336 OA
ATOM      8  N   UNL     1     -15.641   4.037  24.824  0.00  0.00    -0.190 NA
ATOM      9  N   UNL     1     -16.238   2.862  22.953  0.00  0.00    -0.056 NA
ATOM     16  C   UNL     1     -16.195   2.898  25.157  0.00  0.00    +0.245 A 
ATOM     20  C   UNL     1     -15.689   3.970  23.462  0.00  0.00    +0.202 A 
BRANCH  20  24
ATOM     10  N   UNL     1     -14.192   7.089  21.029  0.00  0.00    -0.221 NA
ATOM     24  C   UNL     1     -15.182   5.028  22.637  0.00  0.00    +0.029 A 
ATOM     26  C   UNL     1     -13.826   5.085  22.330  0.00  0.00    +0.079 A 
ATOM     27  C   UNL     1     -16.042   6.001  22.141  0.00  0.00    +0.031 A 
ATOM     28  C   UNL     1     -13.385   6.126  21.531  0.00  0.00    +0.215 A 
ATOM     29  C   UNL     1     -15.502   7.001  21.349  0.00  0.00    +0.115 A 
BRANCH  28   5
ATOM      5  O   UNL     1     -12.054   6.204  21.215  0.00  0.00    -0.474 OA
BRANCH   5  30
ATOM     30  C   UNL     1     -11.634   7.356  20.493  0.00  0.00    +0.258 C 
BRANCH  30  31
ATOM     31  C   UNL     1     -11.299   6.954  19.070  0.00  0.00    +0.200 C 
BRANCH  31   6
ATOM      6  O   UNL     1     -11.463   8.082  18.218  0.00  0.00    -0.380 OA
ATOM     32  C   UNL     1     -12.773   8.135  17.671  0.00  0.00    +0.194 C 
ENDBRANCH  31   6
ENDBRANCH  30  31
ENDBRANCH   5  30
ENDBRANCH  28   5
ENDBRANCH  20  24
ENDBRANCH  11  16
BRANCH   7  15
ATOM     15  C   UNL     1     -17.010   4.226  27.981  0.00  0.00    +0.120 C 
BRANCH  15  17
ATOM     17  C   UNL     1     -16.292   3.836  29.245  0.00  0.00    -0.033 A 
ATOM     18  C   UNL     1     -15.019   3.270  29.178  0.00  0.00    +0.005 A 
ATOM     19  C   UNL     1     -16.898   4.042  30.484  0.00  0.00    +0.005 A 
ATOM     21  C   UNL     1     -14.353   2.910  30.349  0.00  0.00    +0.012 A 
ATOM     22  C   UNL     1     -16.233   3.682  31.655  0.00  0.00    +0.012 A 
ATOM     23  C   UNL     1     -14.959   3.116  31.588  0.00  0.00    +0.055 A 
BRANCH  23  25
ATOM      1  F   UNL     1     -13.069   2.078  32.621  0.00  0.00    -0.166 F 
ATOM      2  F   UNL     1     -14.985   1.905  33.633  0.00  0.00    -0.166 F 
ATOM      3  F   UNL     1     -13.918   3.800  33.630  0.00  0.00    -0.166 F 
ATOM     25  C   UNL     1     -14.246   2.734  32.840  0.00  0.00    +0.417 C 
ENDBRANCH  23  25
ENDBRANCH  15  17
ENDBRANCH   7  15
TORSDOF 9
ENDMDL
MODEL 8
REMARK VINA RESULT:      -6.5      5.901     10.568
REMARK  Name = 45783362
REMARK  10 active torsions:
REMARK  status: ('A' for Active; 'I' for Inactive)
REMARK    1  A    between atoms: O_5  and  C_28
REMARK    2  A    between atoms: O_5  and  C_30
REMARK    3  A    between atoms: O_6  and  C_31
REMARK    4  A    between atoms: O_6  and  C_32
REMARK    5  A    between atoms: N_7  and  C_15
REMARK    6  A    between atoms: C_11  and  C_16
REMARK    7  A    between atoms: C_15  and  C_17
REMARK    8  A    between atoms: C_20  and  C_24
REMARK    9  A    between atoms: C_23  and  C_25
REMARK   10  A    between atoms: C_30  and  C_31
REMARK                            x       y       z     vdW  Elec       q    Type
REMARK                         _______ _______ _______ _____ _____    ______ ____
ROOT
ATOM      7  N   UNL     1      20.602   7.353  21.884  0.00  0.00    -0.287 NA
ATOM     11  C   UNL     1      19.327   8.081  22.042  0.00  0.00    +0.146 C 
ATOM     12  C   UNL     1      19.679   9.552  21.760  0.00  0.00    +0.030 C 
ATOM     13  C   UNL     1      21.181   9.563  21.513  0.00  0.00    +0.017 C 
ATOM     14  C   UNL     1      21.664   8.306  22.208  0.00  0.00    +0.085 C 
ENDROOT
BRANCH  11  16
ATOM      4  O   UNL     1      18.608   6.598  20.237  0.00  0.00    -0.336 OA
ATOM      8  N   UNL     1      16.974   7.885  21.069  0.00  0.00    -0.190 NA
ATOM      9  N   UNL     1      17.451   6.273  19.517  0.00  0.00    -0.056 NA
ATOM     16  C   UNL     1      18.240   7.553  21.130  0.00  0.00    +0.245 A 
ATOM     20  C   UNL     1      16.532   7.073  20.066  0.00  0.00    +0.202 A 
BRANCH  20  24
ATOM     10  N   UNL     1      12.498   7.109  18.794  0.00  0.00    -0.221 NA
ATOM     24  C   UNL     1      15.164   7.085  19.635  0.00  0.00    +0.029 A 
ATOM     26  C   UNL     1      14.849   7.416  18.321  0.00  0.00    +0.079 A 
ATOM     27  C   UNL     1      14.148   6.767  20.528  0.00  0.00    +0.031 A 
ATOM     28  C   UNL     1      13.513   7.414  17.954  0.00  0.00    +0.215 A 
ATOM     29  C   UNL     1      12.843   6.793  20.062  0.00  0.00    +0.115 A 
BRANCH  28   5
ATOM      5  O   UNL     1      13.177   7.736  16.665  0.00  0.00    -0.474 OA
BRANCH   5  30
ATOM     30  C   UNL     1      13.910   8.792  16.058  0.00  0.00    +0.258 C 
BRANCH  30  31
ATOM     31  C   UNL     1      13.445  10.115  16.635  0.00  0.00    +0.200 C 
BRANCH  31   6
ATOM      6  O   UNL     1      14.580  10.869  17.043  0.00  0.00    -0.380 OA
ATOM     32  C   UNL     1      14.246  12.230  17.275  0.00  0.00    +0.194 C 
ENDBRANCH  31   6
ENDBRANCH  30  31
ENDBRANCH   5  30
ENDBRANCH  28   5
ENDBRANCH  20  24
ENDBRANCH  11  16
BRANCH   7  15
ATOM     15  C   UNL     1      20.681   6.147  22.698  0.00  0.00    +0.120 C 
BRANCH  15  17
ATOM     17  C   UNL     1      21.681   5.165  22.150  0.00  0.00    -0.033 A 
ATOM     18  C   UNL     1      22.146   5.300  20.842  0.00  0.00    +0.005 A 
ATOM     19  C   UNL     1      22.144   4.120  22.950  0.00  0.00    +0.005 A 
ATOM     21  C   UNL     1      23.073   4.391  20.334  0.00  0.00    +0.012 A 
ATOM     22  C   UNL     1      23.070   3.210  22.442  0.00  0.00    +0.012 A 
ATOM     23  C   UNL     1      23.536   3.345  21.133  0.00  0.00    +0.055 A 
BRANCH  23  25
ATOM      1  F   UNL     1      24.180   1.069  20.782  0.00  0.00    -0.166 F 
ATOM      2  F   UNL     1      25.762   2.512  21.162  0.00  0.00    -0.166 F 
ATOM      3  F   UNL     1      24.734   2.496  19.245  0.00  0.00    -0.166 F 
ATOM     25  C   UNL     1      24.529   2.375  20.591  0.00  0.00    +0.417 C 
ENDBRANCH  23  25
ENDBRANCH  15  17
ENDBRANCH   7  15
TORSDOF 9
ENDMDL
MODEL 9
REMARK VINA RESULT:      -6.5     27.305     29.308
REMARK  Name = 45783362
REMARK  10 active torsions:
REMARK  status: ('A' for Active; 'I' for Inactive)
REMARK    1  A    between atoms: O_5  and  C_28
REMARK    2  A    between atoms: O_5  and  C_30
REMARK    3  A    between atoms: O_6  and  C_31
REMARK    4  A    between atoms: O_6  and  C_32
REMARK    5  A    between atoms: N_7  and  C_15
REMARK    6  A    between atoms: C_11  and  C_16
REMARK    7  A    between atoms: C_15  and  C_17
REMARK    8  A    between atoms: C_20  and  C_24
REMARK    9  A    between atoms: C_23  and  C_25
REMARK   10  A    between atoms: C_30  and  C_31
REMARK                            x       y       z     vdW  Elec       q    Type
REMARK                         _______ _______ _______ _____ _____    ______ ____
ROOT
ATOM      7  N   UNL     1      -5.084  -9.935   9.070  0.00  0.00    -0.287 NA
ATOM     11  C   UNL     1      -6.217  -9.150   9.600  0.00  0.00    +0.146 C 
ATOM     12  C   UNL     1      -7.322  -9.293   8.539  0.00  0.00    +0.030 C 
ATOM     13  C   UNL     1      -6.700 -10.122   7.425  0.00  0.00    +0.017 C 
ATOM     14  C   UNL     1      -5.212  -9.912   7.613  0.00  0.00    +0.085 C 
ENDROOT
BRANCH  11  16
ATOM      4  O   UNL     1      -7.612 -10.583  11.005  0.00  0.00    -0.336 OA
ATOM      8  N   UNL     1      -6.252  -9.223  12.152  0.00  0.00    -0.190 NA
ATOM      9  N   UNL     1      -7.851 -10.846  12.360  0.00  0.00    -0.056 NA
ATOM     16  C   UNL     1      -6.658  -9.617  10.971  0.00  0.00    +0.245 A 
ATOM     20  C   UNL     1      -7.012 -10.004  12.972  0.00  0.00    +0.202 A 
BRANCH  20  24
ATOM     10  N   UNL     1      -6.708  -9.762  17.184  0.00  0.00    -0.221 NA
ATOM     24  C   UNL     1      -6.909  -9.922  14.400  0.00  0.00    +0.029 A 
ATOM     26  C   UNL     1      -5.665 -10.008  15.017  0.00  0.00    +0.079 A 
ATOM     27  C   UNL     1      -8.052  -9.756  15.174  0.00  0.00    +0.031 A 
ATOM     28  C   UNL     1      -5.619  -9.924  16.399  0.00  0.00    +0.215 A 
ATOM     29  C   UNL     1      -7.898  -9.682  16.550  0.00  0.00    +0.115 A 
BRANCH  28   5
ATOM      5  O   UNL     1      -4.405 -10.007  17.030  0.00  0.00    -0.474 OA
BRANCH   5  30
ATOM     30  C   UNL     1      -3.847 -11.307  17.176  0.00  0.00    +0.258 C 
BRANCH  30  31
ATOM     31  C   UNL     1      -4.096 -11.797  18.589  0.00  0.00    +0.200 C 
BRANCH  31   6
ATOM      6  O   UNL     1      -5.106 -12.798  18.562  0.00  0.00    -0.380 OA
ATOM     32  C   UNL     1      -5.129 -13.481  17.316  0.00  0.00    +0.194 C 
ENDBRANCH  31   6
ENDBRANCH  30  31
ENDBRANCH   5  30
ENDBRANCH  28   5
ENDBRANCH  20  24
ENDBRANCH  11  16
BRANCH   7  15
ATOM     15  C   UNL     1      -3.786  -9.444   9.514  0.00  0.00    +0.120 C 
BRANCH  15  17
ATOM     17  C   UNL     1      -3.242 -10.255  10.660  0.00  0.00    -0.033 A 
ATOM     18  C   UNL     1      -2.295  -9.701  11.520  0.00  0.00    +0.005 A 
ATOM     19  C   UNL     1      -3.686 -11.562  10.862  0.00  0.00    +0.005 A 
ATOM     21  C   UNL     1      -1.791 -10.452  12.581  0.00  0.00    +0.012 A 
ATOM     22  C   UNL     1      -3.183 -12.314  11.923  0.00  0.00    +0.012 A 
ATOM     23  C   UNL     1      -2.235 -11.759  12.783  0.00  0.00    +0.055 A 
BRANCH  23  25
ATOM      1  F   UNL     1      -0.693 -13.412  13.564  0.00  0.00    -0.166 F 
ATOM      2  F   UNL     1      -2.652 -13.344  14.505  0.00  0.00    -0.166 F 
ATOM      3  F   UNL     1      -1.181 -11.800  14.930  0.00  0.00    -0.166 F 
ATOM     25  C   UNL     1      -1.699 -12.561  13.920  0.00  0.00    +0.417 C 
ENDBRANCH  23  25
ENDBRANCH  15  17
ENDBRANCH   7  15
TORSDOF 9
ENDMDL
MODEL 10
REMARK VINA RESULT:      -6.5     17.833     21.362
REMARK  Name = 45783362
REMARK  10 active torsions:
REMARK  status: ('A' for Active; 'I' for Inactive)
REMARK    1  A    between atoms: O_5  and  C_28
REMARK    2  A    between atoms: O_5  and  C_30
REMARK    3  A    between atoms: O_6  and  C_31
REMARK    4  A    between atoms: O_6  and  C_32
REMARK    5  A    between atoms: N_7  and  C_15
REMARK    6  A    between atoms: C_11  and  C_16
REMARK    7  A    between atoms: C_15  and  C_17
REMARK    8  A    between atoms: C_20  and  C_24
REMARK    9  A    between atoms: C_23  and  C_25
REMARK   10  A    between atoms: C_30  and  C_31
REMARK                            x       y       z     vdW  Elec       q    Type
REMARK                         _______ _______ _______ _____ _____    ______ ____
ROOT
ATOM      7  N   UNL     1      13.411   3.926  -0.696  0.00  0.00    -0.287 NA
ATOM     11  C   UNL     1      13.704   3.485   0.682  0.00  0.00    +0.146 C 
ATOM     12  C   UNL     1      15.101   4.056   0.987  0.00  0.00    +0.030 C 
ATOM     13  C   UNL     1      15.536   4.749  -0.296  0.00  0.00    +0.017 C 
ATOM     14  C   UNL     1      14.703   4.074  -1.366  0.00  0.00    +0.085 C 
ENDROOT
BRANCH  11  16
ATOM      4  O   UNL     1      11.892   2.968   2.239  0.00  0.00    -0.336 OA
ATOM      8  N   UNL     1      12.367   5.151   2.080  0.00  0.00    -0.190 NA
ATOM      9  N   UNL     1      11.010   3.623   3.107  0.00  0.00    -0.056 NA
ATOM     16  C   UNL     1      12.656   3.940   1.675  0.00  0.00    +0.245 A 
ATOM     20  C   UNL     1      11.352   4.906   2.957  0.00  0.00    +0.202 A 
BRANCH  20  24
ATOM     10  N   UNL     1       9.428   8.031   5.061  0.00  0.00    -0.221 NA
ATOM     24  C   UNL     1      10.700   5.966   3.670  0.00  0.00    +0.029 A 
ATOM     26  C   UNL     1      11.017   6.210   5.003  0.00  0.00    +0.079 A 
ATOM     27  C   UNL     1       9.747   6.753   3.033  0.00  0.00    +0.031 A 
ATOM     28  C   UNL     1      10.359   7.244   5.647  0.00  0.00    +0.215 A 
ATOM     29  C   UNL     1       9.145   7.764   3.767  0.00  0.00    +0.115 A 
BRANCH  28   5
ATOM      5  O   UNL     1      10.654   7.505   6.960  0.00  0.00    -0.474 OA
BRANCH   5  30
ATOM     30  C   UNL     1      10.972   6.386   7.778  0.00  0.00    +0.258 C 
BRANCH  30  31
ATOM     31  C   UNL     1       9.708   5.895   8.459  0.00  0.00    +0.200 C 
BRANCH  31   6
ATOM      6  O   UNL     1      10.036   4.811   9.319  0.00  0.00    -0.380 OA
ATOM     32  C   UNL     1       8.998   4.556  10.255  0.00  0.00    +0.194 C 
ENDBRANCH  31   6
ENDBRANCH  30  31
ENDBRANCH   5  30
ENDBRANCH  28   5
ENDBRANCH  20  24
ENDBRANCH  11  16
BRANCH   7  15
ATOM     15  C   UNL     1      12.522   3.021  -1.413  0.00  0.00    +0.120 C 
BRANCH  15  17
ATOM     17  C   UNL     1      11.329   3.741  -1.982  0.00  0.00    -0.033 A 
ATOM     18  C   UNL     1      10.924   4.959  -1.437  0.00  0.00    +0.005 A 
ATOM     19  C   UNL     1      10.629   3.191  -3.056  0.00  0.00    +0.005 A 
ATOM     21  C   UNL     1       9.819   5.627  -1.965  0.00  0.00    +0.012 A 
ATOM     22  C   UNL     1       9.524   3.858  -3.584  0.00  0.00    +0.012 A 
ATOM     23  C   UNL     1       9.119   5.077  -3.039  0.00  0.00    +0.055 A 
BRANCH  23  25
ATOM      1  F   UNL     1       8.269   6.897  -4.338  0.00  0.00    -0.166 F 
ATOM      2  F   UNL     1       7.082   6.236  -2.640  0.00  0.00    -0.166 F 
ATOM      3  F   UNL     1       7.183   5.022  -4.442  0.00  0.00    -0.166 F 
ATOM     25  C   UNL     1       7.940   5.793  -3.605  0.00  0.00    +0.417 C 
ENDBRANCH  23  25
ENDBRANCH  15  17
ENDBRANCH   7  15
TORSDOF 9
ENDMDL
