MODEL 1
REMARK VINA RESULT:      -7.7      0.000      0.000
REMARK  Name = 40779089
REMARK  3 active torsions:
REMARK  status: ('A' for Active; 'I' for Inactive)
REMARK    1  A    between atoms: N_4  and  C_12
REMARK    2  A    between atoms: C_19  and  C_23
REMARK    3  A    between atoms: C_24  and  C_27
REMARK                            x       y       z     vdW  Elec       q    Type
REMARK                         _______ _______ _______ _____ _____    ______ ____
ROOT
ATOM      2  O   UNL     1      17.652   7.240  21.012  0.00  0.00    -0.268 OA
ATOM      4  N   UNL     1      14.089  10.612  21.900  0.00  0.00    -0.298 NA
ATOM      5  N   UNL     1      16.176   8.883  20.234  0.00  0.00    -0.311 N 
ATOM      7  C   UNL     1      16.326  11.318  21.031  0.00  0.00    +0.024 C 
ATOM      8  C   UNL     1      14.581  10.658  19.447  0.00  0.00    +0.051 C 
ATOM      9  C   UNL     1      15.728  11.640  19.671  0.00  0.00    +0.017 C 
ATOM     10  C   UNL     1      15.259  11.466  22.135  0.00  0.00    +0.090 C 
ATOM     11  C   UNL     1      13.523  10.840  20.563  0.00  0.00    +0.094 C 
ATOM     13  C   UNL     1      16.921   9.909  20.978  0.00  0.00    +0.130 C 
ATOM     14  C   UNL     1      15.085   9.212  19.406  0.00  0.00    +0.034 A 
ATOM     19  C   UNL     1      14.514   8.257  18.627  0.00  0.00    +0.005 A 
ATOM     20  C   UNL     1      16.694   7.579  20.317  0.00  0.00    +0.252 A 
ATOM     21  C   UNL     1      15.019   6.897  18.689  0.00  0.00    +0.015 A 
ATOM     22  C   UNL     1      16.031   6.550  19.484  0.00  0.00    +0.071 A 
ENDROOT
BRANCH   4  12
ATOM      3  O   UNL     1       9.754  14.222  24.343  0.00  0.00    -0.276 OA
ATOM      6  N   UNL     1      11.381  12.571  24.487  0.00  0.00    -0.302 N 
ATOM     12  C   UNL     1      13.079  10.812  22.936  0.00  0.00    +0.060 C 
ATOM     15  C   UNL     1      11.826  11.458  22.332  0.00  0.00    +0.038 C 
ATOM     16  C   UNL     1      13.645  11.687  24.061  0.00  0.00    +0.038 C 
ATOM     17  C   UNL     1      10.793  11.763  23.416  0.00  0.00    +0.109 C 
ATOM     18  C   UNL     1      12.576  11.989  25.111  0.00  0.00    +0.109 C 
ATOM     24  C   UNL     1      10.779  13.772  24.861  0.00  0.00    +0.212 C 
ATOM     27  C   UNL     1      11.447  14.546  25.969  0.00  0.00    +0.109 C 
ENDBRANCH   4  12
BRANCH  19  23
ATOM      1  F   UNL     1      11.824   7.768  19.342  0.00  0.00    -0.205 F 
ATOM     23  C   UNL     1      13.380   8.560  17.728  0.00  0.00    +0.019 A 
ATOM     25  C   UNL     1      12.072   8.298  18.135  0.00  0.00    +0.131 A 
ATOM     26  C   UNL     1      13.621   9.112  16.469  0.00  0.00    +0.011 A 
ATOM     28  C   UNL     1      11.005   8.587  17.284  0.00  0.00    +0.039 A 
ATOM     29  C   UNL     1      12.554   9.400  15.617  0.00  0.00    +0.001 A 
ATOM     30  C   UNL     1      11.246   9.137  16.025  0.00  0.00    +0.003 A 
ENDBRANCH  19  23
TORSDOF 2
ENDMDL
MODEL 2
REMARK VINA RESULT:      -7.4      3.196      6.611
REMARK  Name = 40779089
REMARK  3 active torsions:
REMARK  status: ('A' for Active; 'I' for Inactive)
REMARK    1  A    between atoms: N_4  and  C_12
REMARK    2  A    between atoms: C_19  and  C_23
REMARK    3  A    between atoms: C_24  and  C_27
REMARK                            x       y       z     vdW  Elec       q    Type
REMARK                         _______ _______ _______ _____ _____    ______ ____
ROOT
ATOM      2  O   UNL     1      10.373   8.801  22.226  0.00  0.00    -0.268 OA
ATOM      4  N   UNL     1      13.564  11.118  19.176  0.00  0.00    -0.298 NA
ATOM      5  N   UNL     1      12.570   9.324  21.608  0.00  0.00    -0.311 N 
ATOM      7  C   UNL     1      13.429  11.741  21.595  0.00  0.00    +0.024 C 
ATOM      8  C   UNL     1      14.910   9.917  20.910  0.00  0.00    +0.051 C 
ATOM      9  C   UNL     1      14.781  11.102  21.865  0.00  0.00    +0.017 C 
ATOM     10  C   UNL     1      13.342  12.212  20.129  0.00  0.00    +0.090 C 
ATOM     11  C   UNL     1      14.830  10.424  19.449  0.00  0.00    +0.094 C 
ATOM     13  C   UNL     1      12.335  10.733  21.952  0.00  0.00    +0.130 C 
ATOM     14  C   UNL     1      13.831   8.864  21.181  0.00  0.00    +0.034 A 
ATOM     19  C   UNL     1      14.044   7.533  21.008  0.00  0.00    +0.005 A 
ATOM     20  C   UNL     1      11.489   8.455  21.839  0.00  0.00    +0.252 A 
ATOM     21  C   UNL     1      12.951   6.606  21.234  0.00  0.00    +0.015 A 
ATOM     22  C   UNL     1      11.739   7.014  21.611  0.00  0.00    +0.071 A 
ENDROOT
BRANCH   4  12
ATOM      3  O   UNL     1      15.549  10.587  13.382  0.00  0.00    -0.276 OA
ATOM      6  N   UNL     1      14.710  11.812  15.168  0.00  0.00    -0.302 N 
ATOM     12  C   UNL     1      13.521  11.606  17.800  0.00  0.00    +0.060 C 
ATOM     15  C   UNL     1      13.520  10.424  16.822  0.00  0.00    +0.038 C 
ATOM     16  C   UNL     1      14.720  12.524  17.529  0.00  0.00    +0.038 C 
ATOM     17  C   UNL     1      13.573  10.912  15.375  0.00  0.00    +0.109 C 
ATOM     18  C   UNL     1      14.750  12.971  16.068  0.00  0.00    +0.109 C 
ATOM     24  C   UNL     1      15.625  11.550  14.149  0.00  0.00    +0.212 C 
ATOM     27  C   UNL     1      16.768  12.522  14.002  0.00  0.00    +0.109 C 
ENDBRANCH   4  12
BRANCH  19  23
ATOM      1  F   UNL     1      14.617   6.853  18.326  0.00  0.00    -0.205 F 
ATOM     23  C   UNL     1      15.357   7.003  20.581  0.00  0.00    +0.019 A 
ATOM     25  C   UNL     1      15.583   6.685  19.242  0.00  0.00    +0.131 A 
ATOM     26  C   UNL     1      16.372   6.823  21.521  0.00  0.00    +0.011 A 
ATOM     28  C   UNL     1      16.823   6.186  18.843  0.00  0.00    +0.039 A 
ATOM     29  C   UNL     1      17.612   6.324  21.122  0.00  0.00    +0.001 A 
ATOM     30  C   UNL     1      17.837   6.005  19.782  0.00  0.00    +0.003 A 
ENDBRANCH  19  23
TORSDOF 2
ENDMDL
MODEL 3
REMARK VINA RESULT:      -7.1     27.437     29.202
REMARK  Name = 40779089
REMARK  3 active torsions:
REMARK  status: ('A' for Active; 'I' for Inactive)
REMARK    1  A    between atoms: N_4  and  C_12
REMARK    2  A    between atoms: C_19  and  C_23
REMARK    3  A    between atoms: C_24  and  C_27
REMARK                            x       y       z     vdW  Elec       q    Type
REMARK                         _______ _______ _______ _____ _____    ______ ____
ROOT
ATOM      2  O   UNL     1      -2.072 -15.152  12.833  0.00  0.00    -0.268 OA
ATOM      4  N   UNL     1      -4.287 -11.357  15.187  0.00  0.00    -0.298 NA
ATOM      5  N   UNL     1      -2.579 -12.871  12.970  0.00  0.00    -0.311 N 
ATOM      7  C   UNL     1      -1.797 -11.432  14.946  0.00  0.00    +0.024 C 
ATOM      8  C   UNL     1      -3.142 -10.429  13.164  0.00  0.00    +0.051 C 
ATOM      9  C   UNL     1      -1.832 -10.297  13.936  0.00  0.00    +0.017 C 
ATOM     10  C   UNL     1      -3.004 -11.337  15.901  0.00  0.00    +0.090 C 
ATOM     11  C   UNL     1      -4.332 -10.318  14.148  0.00  0.00    +0.094 C 
ATOM     13  C   UNL     1      -1.757 -12.758  14.184  0.00  0.00    +0.130 C 
ATOM     14  C   UNL     1      -3.200 -11.749  12.387  0.00  0.00    +0.034 A 
ATOM     19  C   UNL     1      -3.831 -11.870  11.191  0.00  0.00    +0.005 A 
ATOM     20  C   UNL     1      -2.609 -14.144  12.375  0.00  0.00    +0.252 A 
ATOM     21  C   UNL     1      -3.886 -13.170  10.548  0.00  0.00    +0.015 A 
ATOM     22  C   UNL     1      -3.332 -14.255  11.088  0.00  0.00    +0.071 A 
ENDROOT
BRANCH   4  12
ATOM      3  O   UNL     1     -10.265 -10.196  16.026  0.00  0.00    -0.276 OA
ATOM      6  N   UNL     1      -8.052 -10.219  16.731  0.00  0.00    -0.302 N 
ATOM     12  C   UNL     1      -5.405 -11.218  16.115  0.00  0.00    +0.060 C 
ATOM     15  C   UNL     1      -6.665 -11.859  15.521  0.00  0.00    +0.038 C 
ATOM     16  C   UNL     1      -5.653  -9.735  16.424  0.00  0.00    +0.038 C 
ATOM     17  C   UNL     1      -7.871 -11.641  16.434  0.00  0.00    +0.109 C 
ATOM     18  C   UNL     1      -6.879  -9.559  17.318  0.00  0.00    +0.109 C 
ATOM     24  C   UNL     1      -9.283  -9.610  16.488  0.00  0.00    +0.212 C 
ATOM     27  C   UNL     1      -9.387  -8.142  16.818  0.00  0.00    +0.109 C 
ENDBRANCH   4  12
BRANCH  19  23
ATOM      1  F   UNL     1      -6.563 -11.241  11.552  0.00  0.00    -0.205 F 
ATOM     23  C   UNL     1      -4.480 -10.716  10.532  0.00  0.00    +0.019 A 
ATOM     25  C   UNL     1      -5.832 -10.453  10.748  0.00  0.00    +0.131 A 
ATOM     26  C   UNL     1      -3.734  -9.887   9.692  0.00  0.00    +0.011 A 
ATOM     28  C   UNL     1      -6.440  -9.363  10.125  0.00  0.00    +0.039 A 
ATOM     29  C   UNL     1      -4.342  -8.797   9.069  0.00  0.00    +0.001 A 
ATOM     30  C   UNL     1      -5.695  -8.535   9.285  0.00  0.00    +0.003 A 
ENDBRANCH  19  23
TORSDOF 2
ENDMDL
MODEL 4
REMARK VINA RESULT:      -7.0     14.829     18.145
REMARK  Name = 40779089
REMARK  3 active torsions:
REMARK  status: ('A' for Active; 'I' for Inactive)
REMARK    1  A    between atoms: N_4  and  C_12
REMARK    2  A    between atoms: C_19  and  C_23
REMARK    3  A    between atoms: C_24  and  C_27
REMARK                            x       y       z     vdW  Elec       q    Type
REMARK                         _______ _______ _______ _____ _____    ______ ____
ROOT
ATOM      2  O   UNL     1      14.578   7.538   3.271  0.00  0.00    -0.268 OA
ATOM      4  N   UNL     1       9.629   7.916   2.802  0.00  0.00    -0.298 NA
ATOM      5  N   UNL     1      12.430   6.729   3.735  0.00  0.00    -0.311 N 
ATOM      7  C   UNL     1      10.852   5.942   1.870  0.00  0.00    +0.024 C 
ATOM      8  C   UNL     1      10.105   5.895   4.200  0.00  0.00    +0.051 C 
ATOM      9  C   UNL     1      10.276   5.039   2.948  0.00  0.00    +0.017 C 
ATOM     10  C   UNL     1       9.901   7.125   1.596  0.00  0.00    +0.090 C 
ATOM     11  C   UNL     1       9.138   7.065   3.895  0.00  0.00    +0.094 C 
ATOM     13  C   UNL     1      12.243   6.401   2.314  0.00  0.00    +0.130 C 
ATOM     14  C   UNL     1      11.453   6.422   4.703  0.00  0.00    +0.034 A 
ATOM     19  C   UNL     1      11.723   6.612   6.020  0.00  0.00    +0.005 A 
ATOM     20  C   UNL     1      13.685   7.265   4.073  0.00  0.00    +0.252 A 
ATOM     21  C   UNL     1      13.007   7.167   6.408  0.00  0.00    +0.015 A 
ATOM     22  C   UNL     1      13.940   7.494   5.513  0.00  0.00    +0.071 A 
ENDROOT
BRANCH   4  12
ATOM      3  O   UNL     1       3.787   9.765   2.308  0.00  0.00    -0.276 OA
ATOM      6  N   UNL     1       6.041   9.895   1.766  0.00  0.00    -0.302 N 
ATOM     12  C   UNL     1       8.689   8.997   2.518  0.00  0.00    +0.060 C 
ATOM     15  C   UNL     1       7.513   8.943   3.501  0.00  0.00    +0.038 C 
ATOM     16  C   UNL     1       8.186   8.892   1.073  0.00  0.00    +0.038 C 
ATOM     17  C   UNL     1       6.470  10.008   3.162  0.00  0.00    +0.109 C 
ATOM     18  C   UNL     1       7.130   9.957   0.782  0.00  0.00    +0.109 C 
ATOM     24  C   UNL     1       4.685   9.779   1.463  0.00  0.00    +0.212 C 
ATOM     27  C   UNL     1       4.326   9.665   0.003  0.00  0.00    +0.109 C 
ENDBRANCH   4  12
BRANCH  19  23
ATOM      1  F   UNL     1       9.913   8.516   7.064  0.00  0.00    -0.205 F 
ATOM     23  C   UNL     1      10.736   6.285   7.072  0.00  0.00    +0.019 A 
ATOM     25  C   UNL     1       9.867   7.265   7.549  0.00  0.00    +0.131 A 
ATOM     26  C   UNL     1      10.676   4.989   7.588  0.00  0.00    +0.011 A 
ATOM     28  C   UNL     1       8.938   6.952   8.541  0.00  0.00    +0.039 A 
ATOM     29  C   UNL     1       9.746   4.676   8.580  0.00  0.00    +0.001 A 
ATOM     30  C   UNL     1       8.877   5.658   9.057  0.00  0.00    +0.003 A 
ENDBRANCH  19  23
TORSDOF 2
ENDMDL
MODEL 5
REMARK VINA RESULT:      -6.9     14.808     18.948
REMARK  Name = 40779089
REMARK  3 active torsions:
REMARK  status: ('A' for Active; 'I' for Inactive)
REMARK    1  A    between atoms: N_4  and  C_12
REMARK    2  A    between atoms: C_19  and  C_23
REMARK    3  A    between atoms: C_24  and  C_27
REMARK                            x       y       z     vdW  Elec       q    Type
REMARK                         _______ _______ _______ _____ _____    ______ ____
ROOT
ATOM      2  O   UNL     1      10.471   9.858   8.129  0.00  0.00    -0.268 OA
ATOM      4  N   UNL     1      10.596   6.448   4.494  0.00  0.00    -0.298 NA
ATOM      5  N   UNL     1       9.368   8.599   6.491  0.00  0.00    -0.311 N 
ATOM      7  C   UNL     1       9.287   6.036   6.587  0.00  0.00    +0.024 C 
ATOM      8  C   UNL     1       8.227   7.221   4.726  0.00  0.00    +0.051 C 
ATOM      9  C   UNL     1       7.977   6.201   5.834  0.00  0.00    +0.017 C 
ATOM     10  C   UNL     1      10.395   5.544   5.633  0.00  0.00    +0.090 C 
ATOM     11  C   UNL     1       9.334   6.693   3.782  0.00  0.00    +0.094 C 
ATOM     13  C   UNL     1       9.637   7.370   7.251  0.00  0.00    +0.130 C 
ATOM     14  C   UNL     1       8.611   8.588   5.303  0.00  0.00    +0.034 A 
ATOM     19  C   UNL     1       8.266   9.759   4.709  0.00  0.00    +0.005 A 
ATOM     20  C   UNL     1       9.820   9.790   7.086  0.00  0.00    +0.252 A 
ATOM     21  C   UNL     1       8.717  11.009   5.292  0.00  0.00    +0.015 A 
ATOM     22  C   UNL     1       9.459  11.051   6.399  0.00  0.00    +0.071 A 
ENDROOT
BRANCH   4  12
ATOM      3  O   UNL     1      12.610   5.792  -1.277  0.00  0.00    -0.276 OA
ATOM      6  N   UNL     1      12.442   5.108   0.937  0.00  0.00    -0.302 N 
ATOM     12  C   UNL     1      11.616   5.929   3.588  0.00  0.00    +0.060 C 
ATOM     15  C   UNL     1      11.909   6.953   2.484  0.00  0.00    +0.038 C 
ATOM     16  C   UNL     1      11.152   4.600   2.978  0.00  0.00    +0.038 C 
ATOM     17  C   UNL     1      12.905   6.391   1.469  0.00  0.00    +0.109 C 
ATOM     18  C   UNL     1      12.162   4.085   1.953  0.00  0.00    +0.109 C 
ATOM     24  C   UNL     1      12.335   4.927  -0.442  0.00  0.00    +0.212 C 
ATOM     27  C   UNL     1      11.849   3.578  -0.910  0.00  0.00    +0.109 C 
ENDBRANCH   4  12
BRANCH  19  23
ATOM      1  F   UNL     1       5.497  10.328   4.714  0.00  0.00    -0.205 F 
ATOM     23  C   UNL     1       7.455   9.796   3.473  0.00  0.00    +0.019 A 
ATOM     25  C   UNL     1       6.092  10.084   3.536  0.00  0.00    +0.131 A 
ATOM     26  C   UNL     1       8.058   9.544   2.240  0.00  0.00    +0.011 A 
ATOM     28  C   UNL     1       5.331  10.118   2.367  0.00  0.00    +0.039 A 
ATOM     29  C   UNL     1       7.297   9.579   1.071  0.00  0.00    +0.001 A 
ATOM     30  C   UNL     1       5.933   9.866   1.135  0.00  0.00    +0.003 A 
ENDBRANCH  19  23
TORSDOF 2
ENDMDL
MODEL 6
REMARK VINA RESULT:      -6.9     14.974     19.095
REMARK  Name = 40779089
REMARK  3 active torsions:
REMARK  status: ('A' for Active; 'I' for Inactive)
REMARK    1  A    between atoms: N_4  and  C_12
REMARK    2  A    between atoms: C_19  and  C_23
REMARK    3  A    between atoms: C_24  and  C_27
REMARK                            x       y       z     vdW  Elec       q    Type
REMARK                         _______ _______ _______ _____ _____    ______ ____
ROOT
ATOM      2  O   UNL     1       8.746   9.954   2.321  0.00  0.00    -0.268 OA
ATOM      4  N   UNL     1      12.700   7.038   3.168  0.00  0.00    -0.298 NA
ATOM      5  N   UNL     1      10.207   8.905   3.820  0.00  0.00    -0.311 N 
ATOM      7  C   UNL     1      12.715   9.443   3.859  0.00  0.00    +0.024 C 
ATOM      8  C   UNL     1      11.804   7.765   5.390  0.00  0.00    +0.051 C 
ATOM      9  C   UNL     1      12.621   9.053   5.325  0.00  0.00    +0.017 C 
ATOM     10  C   UNL     1      13.399   8.323   3.049  0.00  0.00    +0.090 C 
ATOM     11  C   UNL     1      12.522   6.660   4.577  0.00  0.00    +0.094 C 
ATOM     13  C   UNL     1      11.307   9.758   3.349  0.00  0.00    +0.130 C 
ATOM     14  C   UNL     1      10.379   7.982   4.871  0.00  0.00    +0.034 A 
ATOM     19  C   UNL     1       9.306   7.316   5.370  0.00  0.00    +0.005 A 
ATOM     20  C   UNL     1       8.954   9.151   3.230  0.00  0.00    +0.252 A 
ATOM     21  C   UNL     1       7.997   7.541   4.784  0.00  0.00    +0.015 A 
ATOM     22  C   UNL     1       7.808   8.386   3.770  0.00  0.00    +0.071 A 
ENDROOT
BRANCH   4  12
ATOM      3  O   UNL     1      13.997   4.450  -2.255  0.00  0.00    -0.276 OA
ATOM      6  N   UNL     1      13.707   4.372   0.048  0.00  0.00    -0.302 N 
ATOM     12  C   UNL     1      13.399   5.991   2.429  0.00  0.00    +0.060 C 
ATOM     15  C   UNL     1      13.993   6.565   1.137  0.00  0.00    +0.038 C 
ATOM     16  C   UNL     1      12.436   4.840   2.111  0.00  0.00    +0.038 C 
ATOM     17  C   UNL     1      14.647   5.466   0.301  0.00  0.00    +0.109 C 
ATOM     18  C   UNL     1      13.120   3.774   1.255  0.00  0.00    +0.109 C 
ATOM     24  C   UNL     1      13.464   3.954  -1.259  0.00  0.00    +0.212 C 
ATOM     27  C   UNL     1      12.481   2.824  -1.436  0.00  0.00    +0.109 C 
ENDBRANCH   4  12
BRANCH  19  23
ATOM      1  F   UNL     1       9.945   4.592   4.971  0.00  0.00    -0.205 F 
ATOM     23  C   UNL     1       9.436   6.354   6.485  0.00  0.00    +0.019 A 
ATOM     25  C   UNL     1       9.754   5.021   6.229  0.00  0.00    +0.131 A 
ATOM     26  C   UNL     1       9.241   6.784   7.799  0.00  0.00    +0.011 A 
ATOM     28  C   UNL     1       9.877   4.117   7.284  0.00  0.00    +0.039 A 
ATOM     29  C   UNL     1       9.363   5.879   8.854  0.00  0.00    +0.001 A 
ATOM     30  C   UNL     1       9.681   4.545   8.596  0.00  0.00    +0.003 A 
ENDBRANCH  19  23
TORSDOF 2
ENDMDL
MODEL 7
REMARK VINA RESULT:      -6.9     28.447     30.305
REMARK  Name = 40779089
REMARK  3 active torsions:
REMARK  status: ('A' for Active; 'I' for Inactive)
REMARK    1  A    between atoms: N_4  and  C_12
REMARK    2  A    between atoms: C_19  and  C_23
REMARK    3  A    between atoms: C_24  and  C_27
REMARK                            x       y       z     vdW  Elec       q    Type
REMARK                         _______ _______ _______ _____ _____    ______ ____
ROOT
ATOM      2  O   UNL     1      -3.721 -12.461  19.294  0.00  0.00    -0.268 OA
ATOM      4  N   UNL     1      -5.536 -11.177  14.832  0.00  0.00    -0.298 NA
ATOM      5  N   UNL     1      -5.528 -12.282  17.815  0.00  0.00    -0.311 N 
ATOM      7  C   UNL     1      -5.583 -13.561  15.591  0.00  0.00    +0.024 C 
ATOM      8  C   UNL     1      -7.435 -12.078  16.192  0.00  0.00    +0.051 C 
ATOM      9  C   UNL     1      -7.090 -13.505  15.771  0.00  0.00    +0.017 C 
ATOM     10  C   UNL     1      -5.133 -12.552  14.515  0.00  0.00    +0.090 C 
ATOM     11  C   UNL     1      -6.982 -11.093  15.086  0.00  0.00    +0.094 C 
ATOM     13  C   UNL     1      -4.922 -13.302  16.947  0.00  0.00    +0.130 C 
ATOM     14  C   UNL     1      -6.789 -11.722  17.535  0.00  0.00    +0.034 A 
ATOM     19  C   UNL     1      -7.376 -10.890  18.434  0.00  0.00    +0.005 A 
ATOM     20  C   UNL     1      -4.817 -11.990  18.993  0.00  0.00    +0.252 A 
ATOM     21  C   UNL     1      -6.671 -10.561  19.659  0.00  0.00    +0.015 A 
ATOM     22  C   UNL     1      -5.464 -11.053  19.940  0.00  0.00    +0.071 A 
ENDROOT
BRANCH   4  12
ATOM      3  O   UNL     1      -6.432  -9.085   9.121  0.00  0.00    -0.276 OA
ATOM      6  N   UNL     1      -5.097  -9.509  10.974  0.00  0.00    -0.302 N 
ATOM     12  C   UNL     1      -5.138 -10.257  13.771  0.00  0.00    +0.060 C 
ATOM     15  C   UNL     1      -6.379  -9.689  13.072  0.00  0.00    +0.038 C 
ATOM     16  C   UNL     1      -4.236 -10.976  12.760  0.00  0.00    +0.038 C 
ATOM     17  C   UNL     1      -5.984  -8.797  11.896  0.00  0.00    +0.109 C 
ATOM     18  C   UNL     1      -3.883 -10.059  11.590  0.00  0.00    +0.109 C 
ATOM     24  C   UNL     1      -5.421  -9.587   9.620  0.00  0.00    +0.212 C 
ATOM     27  C   UNL     1      -4.458 -10.339   8.737  0.00  0.00    +0.109 C 
ENDBRANCH   4  12
BRANCH  19  23
ATOM      1  F   UNL     1      -7.737  -8.496  16.976  0.00  0.00    -0.205 F 
ATOM     23  C   UNL     1      -8.708 -10.295  18.191  0.00  0.00    +0.019 A 
ATOM     25  C   UNL     1      -8.825  -9.111  17.464  0.00  0.00    +0.131 A 
ATOM     26  C   UNL     1      -9.849 -10.922  18.692  0.00  0.00    +0.011 A 
ATOM     28  C   UNL     1     -10.084  -8.554  17.237  0.00  0.00    +0.039 A 
ATOM     29  C   UNL     1     -11.108 -10.364  18.465  0.00  0.00    +0.001 A 
ATOM     30  C   UNL     1     -11.225  -9.179  17.737  0.00  0.00    +0.003 A 
ENDBRANCH  19  23
TORSDOF 2
ENDMDL
MODEL 8
REMARK VINA RESULT:      -6.8     13.884     16.246
REMARK  Name = 40779089
REMARK  3 active torsions:
REMARK  status: ('A' for Active; 'I' for Inactive)
REMARK    1  A    between atoms: N_4  and  C_12
REMARK    2  A    between atoms: C_19  and  C_23
REMARK    3  A    between atoms: C_24  and  C_27
REMARK                            x       y       z     vdW  Elec       q    Type
REMARK                         _______ _______ _______ _____ _____    ______ ____
ROOT
ATOM      2  O   UNL     1      22.783  -6.437  24.017  0.00  0.00    -0.268 OA
ATOM      4  N   UNL     1      20.195  -4.078  27.565  0.00  0.00    -0.298 NA
ATOM      5  N   UNL     1      21.476  -4.620  24.703  0.00  0.00    -0.311 N 
ATOM      7  C   UNL     1      22.242  -3.037  26.572  0.00  0.00    +0.024 C 
ATOM      8  C   UNL     1      20.076  -2.686  25.488  0.00  0.00    +0.051 C 
ATOM      9  C   UNL     1      21.399  -2.008  25.839  0.00  0.00    +0.017 C 
ATOM     10  C   UNL     1      21.519  -3.512  27.849  0.00  0.00    +0.090 C 
ATOM     11  C   UNL     1      19.371  -3.140  26.789  0.00  0.00    +0.094 C 
ATOM     13  C   UNL     1      22.549  -4.188  25.612  0.00  0.00    +0.130 C 
ATOM     14  C   UNL     1      20.292  -3.873  24.544  0.00  0.00    +0.034 A 
ATOM     19  C   UNL     1      19.390  -4.229  23.593  0.00  0.00    +0.005 A 
ATOM     20  C   UNL     1      21.760  -5.758  23.929  0.00  0.00    +0.252 A 
ATOM     21  C   UNL     1      19.647  -5.401  22.777  0.00  0.00    +0.015 A 
ATOM     22  C   UNL     1      20.745  -6.144  22.923  0.00  0.00    +0.071 A 
ENDROOT
BRANCH   4  12
ATOM      3  O   UNL     1      14.913  -4.764  30.635  0.00  0.00    -0.276 OA
ATOM      6  N   UNL     1      17.203  -4.386  30.533  0.00  0.00    -0.302 N 
ATOM     12  C   UNL     1      19.518  -4.473  28.797  0.00  0.00    +0.060 C 
ATOM     15  C   UNL     1      18.237  -5.250  28.468  0.00  0.00    +0.038 C 
ATOM     16  C   UNL     1      19.193  -3.234  29.640  0.00  0.00    +0.038 C 
ATOM     17  C   UNL     1      17.464  -5.591  29.741  0.00  0.00    +0.109 C 
ATOM     18  C   UNL     1      18.400  -3.613  30.890  0.00  0.00    +0.109 C 
ATOM     24  C   UNL     1      15.899  -4.078  30.918  0.00  0.00    +0.212 C 
ATOM     27  C   UNL     1      15.713  -2.821  31.729  0.00  0.00    +0.109 C 
ENDBRANCH   4  12
BRANCH  19  23
ATOM      1  F   UNL     1      16.937  -4.931  24.808  0.00  0.00    -0.205 F 
ATOM     23  C   UNL     1      18.143  -3.464  23.377  0.00  0.00    +0.019 A 
ATOM     25  C   UNL     1      16.961  -3.857  24.003  0.00  0.00    +0.131 A 
ATOM     26  C   UNL     1      18.152  -2.345  22.543  0.00  0.00    +0.011 A 
ATOM     28  C   UNL     1      15.788  -3.131  23.797  0.00  0.00    +0.039 A 
ATOM     29  C   UNL     1      16.978  -1.619  22.337  0.00  0.00    +0.001 A 
ATOM     30  C   UNL     1      15.796  -2.013  22.964  0.00  0.00    +0.003 A 
ENDBRANCH  19  23
TORSDOF 2
ENDMDL
MODEL 9
REMARK VINA RESULT:      -6.7     14.910     17.714
REMARK  Name = 40779089
REMARK  3 active torsions:
REMARK  status: ('A' for Active; 'I' for Inactive)
REMARK    1  A    between atoms: N_4  and  C_12
REMARK    2  A    between atoms: C_19  and  C_23
REMARK    3  A    between atoms: C_24  and  C_27
REMARK                            x       y       z     vdW  Elec       q    Type
REMARK                         _______ _______ _______ _____ _____    ______ ____
ROOT
ATOM      2  O   UNL     1       7.154   9.402   4.482  0.00  0.00    -0.268 OA
ATOM      4  N   UNL     1      11.442   7.450   6.111  0.00  0.00    -0.298 NA
ATOM      5  N   UNL     1       8.687   7.633   4.531  0.00  0.00    -0.311 N 
ATOM      7  C   UNL     1       9.252   6.397   6.707  0.00  0.00    +0.024 C 
ATOM      8  C   UNL     1      10.357   5.758   4.619  0.00  0.00    +0.051 C 
ATOM      9  C   UNL     1       9.534   5.221   5.787  0.00  0.00    +0.017 C 
ATOM     10  C   UNL     1      10.573   7.013   7.210  0.00  0.00    +0.090 C 
ATOM     11  C   UNL     1      11.680   6.358   5.156  0.00  0.00    +0.094 C 
ATOM     13  C   UNL     1       8.386   7.407   5.952  0.00  0.00    +0.130 C 
ATOM     14  C   UNL     1       9.572   6.801   3.818  0.00  0.00    +0.034 A 
ATOM     19  C   UNL     1       9.714   6.956   2.476  0.00  0.00    +0.005 A 
ATOM     20  C   UNL     1       7.950   8.658   3.911  0.00  0.00    +0.252 A 
ATOM     21  C   UNL     1       8.973   8.006   1.802  0.00  0.00    +0.015 A 
ATOM     22  C   UNL     1       8.149   8.827   2.454  0.00  0.00    +0.071 A 
ENDROOT
BRANCH   4  12
ATOM      3  O   UNL     1      16.488  10.807   5.080  0.00  0.00    -0.276 OA
ATOM      6  N   UNL     1      15.333   9.099   6.149  0.00  0.00    -0.302 N 
ATOM     12  C   UNL     1      12.702   7.984   6.619  0.00  0.00    +0.060 C 
ATOM     15  C   UNL     1      12.890   9.431   6.148  0.00  0.00    +0.038 C 
ATOM     16  C   UNL     1      13.873   7.111   6.148  0.00  0.00    +0.038 C 
ATOM     17  C   UNL     1      14.247   9.978   6.589  0.00  0.00    +0.109 C 
ATOM     18  C   UNL     1      15.211   7.703   6.589  0.00  0.00    +0.109 C 
ATOM     24  C   UNL     1      16.391   9.622   5.407  0.00  0.00    +0.212 C 
ATOM     27  C   UNL     1      17.468   8.652   4.990  0.00  0.00    +0.109 C 
ENDBRANCH   4  12
BRANCH  19  23
ATOM      1  F   UNL     1      12.433   7.588   2.034  0.00  0.00    -0.205 F 
ATOM     23  C   UNL     1      10.617   6.094   1.683  0.00  0.00    +0.019 A 
ATOM     25  C   UNL     1      11.951   6.456   1.499  0.00  0.00    +0.131 A 
ATOM     26  C   UNL     1      10.131   4.913   1.120  0.00  0.00    +0.011 A 
ATOM     28  C   UNL     1      12.799   5.639   0.751  0.00  0.00    +0.039 A 
ATOM     29  C   UNL     1      10.980   4.096   0.372  0.00  0.00    +0.001 A 
ATOM     30  C   UNL     1      12.314   4.460   0.188  0.00  0.00    +0.003 A 
ENDBRANCH  19  23
TORSDOF 2
ENDMDL
MODEL 10
REMARK VINA RESULT:      -6.7     13.947     17.480
REMARK  Name = 40779089
REMARK  3 active torsions:
REMARK  status: ('A' for Active; 'I' for Inactive)
REMARK    1  A    between atoms: N_4  and  C_12
REMARK    2  A    between atoms: C_19  and  C_23
REMARK    3  A    between atoms: C_24  and  C_27
REMARK                            x       y       z     vdW  Elec       q    Type
REMARK                         _______ _______ _______ _____ _____    ______ ____
ROOT
ATOM      2  O   UNL     1       7.585   8.830   2.409  0.00  0.00    -0.268 OA
ATOM      4  N   UNL     1      10.974   7.728   5.895  0.00  0.00    -0.298 NA
ATOM      5  N   UNL     1       9.011   7.280   3.431  0.00  0.00    -0.311 N 
ATOM      7  C   UNL     1       8.735   6.611   5.893  0.00  0.00    +0.024 C 
ATOM      8  C   UNL     1      10.552   5.650   4.565  0.00  0.00    +0.051 C 
ATOM      9  C   UNL     1       9.358   5.299   5.449  0.00  0.00    +0.017 C 
ATOM     10  C   UNL     1       9.762   7.454   6.676  0.00  0.00    +0.090 C 
ATOM     11  C   UNL     1      11.568   6.485   5.383  0.00  0.00    +0.094 C 
ATOM     13  C   UNL     1       8.202   7.339   4.657  0.00  0.00    +0.130 C 
ATOM     14  C   UNL     1      10.111   6.408   3.309  0.00  0.00    +0.034 A 
ATOM     19  C   UNL     1      10.744   6.281   2.114  0.00  0.00    +0.005 A 
ATOM     20  C   UNL     1       8.548   8.064   2.361  0.00  0.00    +0.252 A 
ATOM     21  C   UNL     1      10.297   7.078   0.987  0.00  0.00    +0.015 A 
ATOM     22  C   UNL     1       9.277   7.932   1.079  0.00  0.00    +0.071 A 
ENDROOT
BRANCH   4  12
ATOM      3  O   UNL     1      13.575  13.152   7.160  0.00  0.00    -0.276 OA
ATOM      6  N   UNL     1      13.599  10.833   7.046  0.00  0.00    -0.302 N 
ATOM     12  C   UNL     1      11.944   8.485   6.681  0.00  0.00    +0.060 C 
ATOM     15  C   UNL     1      11.345   9.835   7.096  0.00  0.00    +0.038 C 
ATOM     16  C   UNL     1      13.229   8.696   5.870  0.00  0.00    +0.038 C 
ATOM     17  C   UNL     1      12.377  10.685   7.838  0.00  0.00    +0.109 C 
ATOM     18  C   UNL     1      14.223   9.568   6.636  0.00  0.00    +0.109 C 
ATOM     24  C   UNL     1      14.099  12.105   6.773  0.00  0.00    +0.212 C 
ATOM     27  C   UNL     1      15.361  12.173   5.950  0.00  0.00    +0.109 C 
ENDBRANCH   4  12
BRANCH  19  23
ATOM      1  F   UNL     1      10.427   3.505   1.689  0.00  0.00    -0.205 F 
ATOM     23  C   UNL     1      11.890   5.363   1.934  0.00  0.00    +0.019 A 
ATOM     25  C   UNL     1      11.673   4.002   1.726  0.00  0.00    +0.131 A 
ATOM     26  C   UNL     1      13.192   5.864   1.970  0.00  0.00    +0.011 A 
ATOM     28  C   UNL     1      12.757   3.140   1.556  0.00  0.00    +0.039 A 
ATOM     29  C   UNL     1      14.276   5.002   1.799  0.00  0.00    +0.001 A 
ATOM     30  C   UNL     1      14.058   3.640   1.593  0.00  0.00    +0.003 A 
ENDBRANCH  19  23
TORSDOF 2
ENDMDL
