MODEL 1
REMARK VINA RESULT:      -7.1      0.000      0.000
REMARK  Name = 7687036
REMARK  4 active torsions:
REMARK  status: ('A' for Active; 'I' for Inactive)
REMARK    1  A    between atoms: O_3  and  C_24
REMARK    2  A    between atoms: O_3  and  C_30
REMARK    3  A    between atoms: C_15  and  C_20
REMARK    4  A    between atoms: C_17  and  C_21
REMARK                            x       y       z     vdW  Elec       q    Type
REMARK                         _______ _______ _______ _____ _____    ______ ____
ROOT
ATOM      1  O   UNL     1      11.092   8.883  17.116  0.00  0.00    -0.268 OA
ATOM      2  O   UNL     1      11.563  11.838  21.213  0.00  0.00    -0.270 OA
ATOM      4  N   UNL     1      12.422   9.748  21.809  0.00  0.00    -0.296 N 
ATOM      5  N   UNL     1      12.192   8.199  19.067  0.00  0.00    -0.311 N 
ATOM      8  C   UNL     1      10.922   7.846  21.269  0.00  0.00    +0.027 C 
ATOM      9  C   UNL     1      13.361   7.531  21.190  0.00  0.00    +0.054 C 
ATOM     10  C   UNL     1      12.043   6.869  21.589  0.00  0.00    +0.018 C 
ATOM     11  C   UNL     1      11.107   9.156  22.051  0.00  0.00    +0.113 C 
ATOM     12  C   UNL     1      10.899   8.079  19.757  0.00  0.00    +0.130 C 
ATOM     13  C   UNL     1      13.553   8.829  22.004  0.00  0.00    +0.117 C 
ATOM     14  C   UNL     1      13.404   7.842  19.691  0.00  0.00    +0.034 A 
ATOM     15  C   UNL     1      14.556   7.819  18.971  0.00  0.00    +0.005 A 
ATOM     16  C   UNL     1      12.124   8.575  17.714  0.00  0.00    +0.252 A 
ATOM     17  C   UNL     1      12.511  11.073  21.375  0.00  0.00    +0.250 C 
ATOM     18  C   UNL     1      14.524   8.205  17.573  0.00  0.00    +0.015 A 
ATOM     19  C   UNL     1      13.400   8.579  16.964  0.00  0.00    +0.071 A 
ENDROOT
BRANCH  15  20
ATOM      6  N   UNL     1      17.596   5.815  19.861  0.00  0.00    -0.243 NA
ATOM      7  N   UNL     1      17.709   7.939  20.996  0.00  0.00    -0.243 NA
ATOM     20  C   UNL     1      15.847   7.426  19.579  0.00  0.00    +0.020 A 
ATOM     22  C   UNL     1      16.421   6.205  19.325  0.00  0.00    +0.122 A 
ATOM     23  C   UNL     1      16.531   8.263  20.425  0.00  0.00    +0.122 A 
ATOM     29  C   UNL     1      18.178   6.717  20.676  0.00  0.00    +0.221 A 
ENDBRANCH  15  20
BRANCH  17  21
ATOM     21  C   UNL     1      13.840  11.612  21.061  0.00  0.00    +0.078 A 
ATOM     24  C   UNL     1      14.587  12.276  22.032  0.00  0.00    +0.132 A 
ATOM     25  C   UNL     1      14.347  11.453  19.773  0.00  0.00    +0.017 A 
ATOM     26  C   UNL     1      15.847  12.782  21.713  0.00  0.00    +0.046 A 
ATOM     27  C   UNL     1      15.607  11.958  19.454  0.00  0.00    +0.001 A 
ATOM     28  C   UNL     1      16.358  12.623  20.425  0.00  0.00    +0.004 A 
BRANCH  24   3
ATOM      3  O   UNL     1      14.107  12.442  23.297  0.00  0.00    -0.494 OA
ATOM     30  C   UNL     1      14.663  11.612  24.314  0.00  0.00    +0.277 C 
ENDBRANCH  24   3
ENDBRANCH  17  21
TORSDOF 3
ENDMDL
MODEL 2
REMARK VINA RESULT:      -6.7      2.186      3.576
REMARK  Name = 7687036
REMARK  4 active torsions:
REMARK  status: ('A' for Active; 'I' for Inactive)
REMARK    1  A    between atoms: O_3  and  C_24
REMARK    2  A    between atoms: O_3  and  C_30
REMARK    3  A    between atoms: C_15  and  C_20
REMARK    4  A    between atoms: C_17  and  C_21
REMARK                            x       y       z     vdW  Elec       q    Type
REMARK                         _______ _______ _______ _____ _____    ______ ____
ROOT
ATOM      1  O   UNL     1      12.764   8.439  16.893  0.00  0.00    -0.268 OA
ATOM      2  O   UNL     1      10.550   8.865  21.439  0.00  0.00    -0.270 OA
ATOM      4  N   UNL     1      12.849   8.718  21.838  0.00  0.00    -0.296 N 
ATOM      5  N   UNL     1      13.971   8.665  18.887  0.00  0.00    -0.311 N 
ATOM      8  C   UNL     1      13.960   6.827  20.677  0.00  0.00    +0.027 C 
ATOM      9  C   UNL     1      15.203   8.915  21.064  0.00  0.00    +0.054 C 
ATOM     10  C   UNL     1      15.321   7.392  21.056  0.00  0.00    +0.018 C 
ATOM     11  C   UNL     1      12.891   7.265  21.693  0.00  0.00    +0.113 C 
ATOM     12  C   UNL     1      13.624   7.285  19.257  0.00  0.00    +0.130 C 
ATOM     13  C   UNL     1      14.151   9.345  22.109  0.00  0.00    +0.117 C 
ATOM     14  C   UNL     1      14.822   9.457  19.683  0.00  0.00    +0.034 A 
ATOM     15  C   UNL     1      15.242  10.667  19.230  0.00  0.00    +0.005 A 
ATOM     16  C   UNL     1      13.497   9.094  17.635  0.00  0.00    +0.252 A 
ATOM     17  C   UNL     1      11.637   9.393  21.665  0.00  0.00    +0.250 C 
ATOM     18  C   UNL     1      14.771  11.143  17.944  0.00  0.00    +0.015 A 
ATOM     19  C   UNL     1      13.939  10.432  17.183  0.00  0.00    +0.071 A 
ENDROOT
BRANCH  15  20
ATOM      6  N   UNL     1      18.379  12.102  20.698  0.00  0.00    -0.243 NA
ATOM      7  N   UNL     1      16.490  13.327  21.558  0.00  0.00    -0.243 NA
ATOM     20  C   UNL     1      16.156  11.521  20.021  0.00  0.00    +0.020 A 
ATOM     22  C   UNL     1      17.517  11.343  19.990  0.00  0.00    +0.122 A 
ATOM     23  C   UNL     1      15.687  12.530  20.825  0.00  0.00    +0.122 A 
ATOM     29  C   UNL     1      17.807  13.062  21.450  0.00  0.00    +0.221 A 
ENDBRANCH  15  20
BRANCH  17  21
ATOM     21  C   UNL     1      11.643  10.859  21.735  0.00  0.00    +0.078 A 
ATOM     24  C   UNL     1      11.286  11.517  22.911  0.00  0.00    +0.132 A 
ATOM     25  C   UNL     1      12.010  11.589  20.606  0.00  0.00    +0.017 A 
ATOM     26  C   UNL     1      11.298  12.911  22.957  0.00  0.00    +0.046 A 
ATOM     27  C   UNL     1      12.021  12.982  20.652  0.00  0.00    +0.001 A 
ATOM     28  C   UNL     1      11.664  13.644  21.828  0.00  0.00    +0.004 A 
BRANCH  24   3
ATOM      3  O   UNL     1      10.925  10.820  24.025  0.00  0.00    -0.494 OA
ATOM     30  C   UNL     1      11.020  11.501  25.274  0.00  0.00    +0.277 C 
ENDBRANCH  24   3
ENDBRANCH  17  21
TORSDOF 3
ENDMDL
MODEL 3
REMARK VINA RESULT:      -6.6      2.249      3.811
REMARK  Name = 7687036
REMARK  4 active torsions:
REMARK  status: ('A' for Active; 'I' for Inactive)
REMARK    1  A    between atoms: O_3  and  C_24
REMARK    2  A    between atoms: O_3  and  C_30
REMARK    3  A    between atoms: C_15  and  C_20
REMARK    4  A    between atoms: C_17  and  C_21
REMARK                            x       y       z     vdW  Elec       q    Type
REMARK                         _______ _______ _______ _____ _____    ______ ____
ROOT
ATOM      1  O   UNL     1      10.916   7.247  20.847  0.00  0.00    -0.268 OA
ATOM      2  O   UNL     1      14.391  10.173  23.107  0.00  0.00    -0.270 OA
ATOM      4  N   UNL     1      15.432   9.247  21.230  0.00  0.00    -0.296 N 
ATOM      5  N   UNL     1      13.030   7.664  19.929  0.00  0.00    -0.311 N 
ATOM      8  C   UNL     1      15.170   6.787  21.038  0.00  0.00    +0.027 C 
ATOM      9  C   UNL     1      15.313   8.156  18.999  0.00  0.00    +0.054 C 
ATOM     10  C   UNL     1      15.744   6.833  19.630  0.00  0.00    +0.018 C 
ATOM     11  C   UNL     1      15.697   7.963  21.876  0.00  0.00    +0.113 C 
ATOM     12  C   UNL     1      13.644   6.790  20.939  0.00  0.00    +0.130 C 
ATOM     13  C   UNL     1      15.873   9.331  19.830  0.00  0.00    +0.117 C 
ATOM     14  C   UNL     1      13.788   8.263  18.904  0.00  0.00    +0.034 A 
ATOM     15  C   UNL     1      13.162   8.934  17.901  0.00  0.00    +0.005 A 
ATOM     16  C   UNL     1      11.628   7.761  19.984  0.00  0.00    +0.252 A 
ATOM     17  C   UNL     1      14.759  10.247  21.936  0.00  0.00    +0.250 C 
ATOM     18  C   UNL     1      11.718   9.058  17.927  0.00  0.00    +0.015 A 
ATOM     19  C   UNL     1      10.976   8.531  18.901  0.00  0.00    +0.071 A 
ENDROOT
BRANCH  15  20
ATOM      6  N   UNL     1      14.913   9.397  14.618  0.00  0.00    -0.243 NA
ATOM      7  N   UNL     1      15.032  11.461  15.858  0.00  0.00    -0.243 NA
ATOM     20  C   UNL     1      13.917   9.557  16.791  0.00  0.00    +0.020 A 
ATOM     22  C   UNL     1      14.227   8.861  15.649  0.00  0.00    +0.122 A 
ATOM     23  C   UNL     1      14.343  10.861  16.850  0.00  0.00    +0.122 A 
ATOM     29  C   UNL     1      15.279  10.682  14.786  0.00  0.00    +0.221 A 
ENDBRANCH  15  20
BRANCH  17  21
ATOM     21  C   UNL     1      14.434  11.494  21.233  0.00  0.00    +0.078 A 
ATOM     24  C   UNL     1      15.311  12.577  21.261  0.00  0.00    +0.132 A 
ATOM     25  C   UNL     1      13.232  11.583  20.534  0.00  0.00    +0.017 A 
ATOM     26  C   UNL     1      14.984  13.753  20.587  0.00  0.00    +0.046 A 
ATOM     27  C   UNL     1      12.904  12.759  19.860  0.00  0.00    +0.001 A 
ATOM     28  C   UNL     1      13.781  13.845  19.887  0.00  0.00    +0.004 A 
BRANCH  24   3
ATOM      3  O   UNL     1      16.491  12.508  21.939  0.00  0.00    -0.494 OA
ATOM     30  C   UNL     1      17.684  12.454  21.159  0.00  0.00    +0.277 C 
ENDBRANCH  24   3
ENDBRANCH  17  21
TORSDOF 3
ENDMDL
MODEL 4
REMARK VINA RESULT:      -6.3     13.817     16.487
REMARK  Name = 7687036
REMARK  4 active torsions:
REMARK  status: ('A' for Active; 'I' for Inactive)
REMARK    1  A    between atoms: O_3  and  C_24
REMARK    2  A    between atoms: O_3  and  C_30
REMARK    3  A    between atoms: C_15  and  C_20
REMARK    4  A    between atoms: C_17  and  C_21
REMARK                            x       y       z     vdW  Elec       q    Type
REMARK                         _______ _______ _______ _____ _____    ______ ____
ROOT
ATOM      1  O   UNL     1       7.233   9.015   4.205  0.00  0.00    -0.268 OA
ATOM      2  O   UNL     1      11.406  10.152   6.859  0.00  0.00    -0.270 OA
ATOM      4  N   UNL     1      11.385   7.826   6.631  0.00  0.00    -0.296 N 
ATOM      5  N   UNL     1       8.841   7.422   4.805  0.00  0.00    -0.311 N 
ATOM      8  C   UNL     1       9.230   6.767   7.255  0.00  0.00    +0.027 C 
ATOM      9  C   UNL     1      10.607   5.765   5.479  0.00  0.00    +0.054 C 
ATOM     10  C   UNL     1       9.709   5.445   6.673  0.00  0.00    +0.018 C 
ATOM     11  C   UNL     1      10.424   7.620   7.712  0.00  0.00    +0.113 C 
ATOM     12  C   UNL     1       8.383   7.482   6.201  0.00  0.00    +0.130 C 
ATOM     13  C   UNL     1      11.819   6.595   5.954  0.00  0.00    +0.117 C 
ATOM     14  C   UNL     1       9.846   6.526   4.390  0.00  0.00    +0.034 A 
ATOM     15  C   UNL     1      10.130   6.392   3.068  0.00  0.00    +0.005 A 
ATOM     16  C   UNL     1       8.129   8.227   3.899  0.00  0.00    +0.252 A 
ATOM     17  C   UNL     1      11.771   9.125   6.290  0.00  0.00    +0.250 C 
ATOM     18  C   UNL     1       9.418   7.209   2.104  0.00  0.00    +0.015 A 
ATOM     19  C   UNL     1       8.486   8.089   2.469  0.00  0.00    +0.071 A 
ENDROOT
BRANCH  15  20
ATOM      6  N   UNL     1      11.840   3.203   2.089  0.00  0.00    -0.243 NA
ATOM      7  N   UNL     1      13.360   5.039   1.729  0.00  0.00    -0.243 NA
ATOM     20  C   UNL     1      11.160   5.445   2.585  0.00  0.00    +0.020 A 
ATOM     22  C   UNL     1      10.925   4.094   2.524  0.00  0.00    +0.122 A 
ATOM     23  C   UNL     1      12.399   5.873   2.175  0.00  0.00    +0.122 A 
ATOM     29  C   UNL     1      13.018   3.735   1.712  0.00  0.00    +0.221 A 
ENDBRANCH  15  20
BRANCH  17  21
ATOM     21  C   UNL     1      12.673   9.304   5.147  0.00  0.00    +0.078 A 
ATOM     24  C   UNL     1      14.053   9.175   5.300  0.00  0.00    +0.132 A 
ATOM     25  C   UNL     1      12.132   9.608   3.899  0.00  0.00    +0.017 A 
ATOM     26  C   UNL     1      14.893   9.349   4.200  0.00  0.00    +0.046 A 
ATOM     27  C   UNL     1      12.972   9.783   2.800  0.00  0.00    +0.001 A 
ATOM     28  C   UNL     1      14.353   9.653   2.951  0.00  0.00    +0.004 A 
BRANCH  24   3
ATOM      3  O   UNL     1      14.600   8.878   6.512  0.00  0.00    -0.494 OA
ATOM     30  C   UNL     1      15.405   7.703   6.588  0.00  0.00    +0.277 C 
ENDBRANCH  24   3
ENDBRANCH  17  21
TORSDOF 3
ENDMDL
MODEL 5
REMARK VINA RESULT:      -6.1     27.393     29.600
REMARK  Name = 7687036
REMARK  4 active torsions:
REMARK  status: ('A' for Active; 'I' for Inactive)
REMARK    1  A    between atoms: O_3  and  C_24
REMARK    2  A    between atoms: O_3  and  C_30
REMARK    3  A    between atoms: C_15  and  C_20
REMARK    4  A    between atoms: C_17  and  C_21
REMARK                            x       y       z     vdW  Elec       q    Type
REMARK                         _______ _______ _______ _____ _____    ______ ____
ROOT
ATOM      1  O   UNL     1      -5.986 -15.098  16.663  0.00  0.00    -0.268 OA
ATOM      2  O   UNL     1      -8.480 -11.006  18.333  0.00  0.00    -0.270 OA
ATOM      4  N   UNL     1      -6.497 -10.222  17.374  0.00  0.00    -0.296 N 
ATOM      5  N   UNL     1      -5.263 -12.907  16.262  0.00  0.00    -0.311 N 
ATOM      8  C   UNL     1      -4.457 -11.390  18.168  0.00  0.00    +0.027 C 
ATOM      9  C   UNL     1      -4.546 -10.530  15.864  0.00  0.00    +0.054 C 
ATOM     10  C   UNL     1      -3.641 -10.706  17.082  0.00  0.00    +0.018 C 
ATOM     11  C   UNL     1      -5.680 -10.537  18.543  0.00  0.00    +0.113 C 
ATOM     12  C   UNL     1      -4.858 -12.780  17.669  0.00  0.00    +0.130 C 
ATOM     13  C   UNL     1      -5.754  -9.646  16.243  0.00  0.00    +0.117 C 
ATOM     14  C   UNL     1      -5.034 -11.879  15.326  0.00  0.00    +0.034 A 
ATOM     15  C   UNL     1      -5.279 -12.096  14.007  0.00  0.00    +0.005 A 
ATOM     16  C   UNL     1      -5.779 -14.161  15.891  0.00  0.00    +0.252 A 
ATOM     17  C   UNL     1      -7.861 -10.525  17.385  0.00  0.00    +0.250 C 
ATOM     18  C   UNL     1      -5.815 -13.376  13.588  0.00  0.00    +0.015 A 
ATOM     19  C   UNL     1      -6.075 -14.356  14.454  0.00  0.00    +0.071 A 
ENDROOT
BRANCH  15  20
ATOM      6  N   UNL     1      -5.821  -9.224  11.659  0.00  0.00    -0.243 NA
ATOM      7  N   UNL     1      -3.537  -9.967  11.459  0.00  0.00    -0.243 NA
ATOM     20  C   UNL     1      -5.029 -11.053  12.987  0.00  0.00    +0.020 A 
ATOM     22  C   UNL     1      -6.014 -10.186  12.586  0.00  0.00    +0.122 A 
ATOM     23  C   UNL     1      -3.800 -10.905  12.392  0.00  0.00    +0.122 A 
ATOM     29  C   UNL     1      -4.578  -9.172  11.144  0.00  0.00    +0.221 A 
ENDBRANCH  15  20
BRANCH  17  21
ATOM     21  C   UNL     1      -8.638 -10.273  16.165  0.00  0.00    +0.078 A 
ATOM     24  C   UNL     1      -9.331  -9.075  15.996  0.00  0.00    +0.132 A 
ATOM     25  C   UNL     1      -8.677 -11.252  15.174  0.00  0.00    +0.017 A 
ATOM     26  C   UNL     1     -10.064  -8.856  14.830  0.00  0.00    +0.046 A 
ATOM     27  C   UNL     1      -9.410 -11.032  14.008  0.00  0.00    +0.001 A 
ATOM     28  C   UNL     1     -10.104  -9.834  13.836  0.00  0.00    +0.004 A 
BRANCH  24   3
ATOM      3  O   UNL     1      -9.305  -8.107  16.955  0.00  0.00    -0.494 OA
ATOM     30  C   UNL     1     -10.471  -7.297  17.089  0.00  0.00    +0.277 C 
ENDBRANCH  24   3
ENDBRANCH  17  21
TORSDOF 3
ENDMDL
MODEL 6
REMARK VINA RESULT:      -6.0     13.910     16.927
REMARK  Name = 7687036
REMARK  4 active torsions:
REMARK  status: ('A' for Active; 'I' for Inactive)
REMARK    1  A    between atoms: O_3  and  C_24
REMARK    2  A    between atoms: O_3  and  C_30
REMARK    3  A    between atoms: C_15  and  C_20
REMARK    4  A    between atoms: C_17  and  C_21
REMARK                            x       y       z     vdW  Elec       q    Type
REMARK                         _______ _______ _______ _____ _____    ______ ____
ROOT
ATOM      1  O   UNL     1       9.113  10.995   3.961  0.00  0.00    -0.268 OA
ATOM      2  O   UNL     1      13.063   8.457   2.039  0.00  0.00    -0.270 OA
ATOM      4  N   UNL     1      13.097   8.077   4.345  0.00  0.00    -0.296 N 
ATOM      5  N   UNL     1      10.468   9.578   5.241  0.00  0.00    -0.311 N 
ATOM      8  C   UNL     1      12.927  10.140   5.713  0.00  0.00    +0.027 C 
ATOM      9  C   UNL     1      11.960   8.039   6.555  0.00  0.00    +0.054 C 
ATOM     10  C   UNL     1      12.727   9.296   6.964  0.00  0.00    +0.018 C 
ATOM     11  C   UNL     1      13.725   9.359   4.656  0.00  0.00    +0.113 C 
ATOM     12  C   UNL     1      11.554  10.569   5.194  0.00  0.00    +0.130 C 
ATOM     13  C   UNL     1      12.784   7.247   5.518  0.00  0.00    +0.117 C 
ATOM     14  C   UNL     1      10.584   8.383   5.979  0.00  0.00    +0.034 A 
ATOM     15  C   UNL     1       9.505   7.570   6.125  0.00  0.00    +0.005 A 
ATOM     16  C   UNL     1       9.273   9.958   4.605  0.00  0.00    +0.252 A 
ATOM     17  C   UNL     1      12.800   7.760   3.017  0.00  0.00    +0.250 C 
ATOM     18  C   UNL     1       8.256   7.928   5.479  0.00  0.00    +0.015 A 
ATOM     19  C   UNL     1       8.126   9.034   4.748  0.00  0.00    +0.071 A 
ENDROOT
BRANCH  15  20
ATOM      6  N   UNL     1       9.862   3.942   6.998  0.00  0.00    -0.243 NA
ATOM      7  N   UNL     1       9.477   5.192   9.023  0.00  0.00    -0.243 NA
ATOM     20  C   UNL     1       9.574   6.318   6.911  0.00  0.00    +0.020 A 
ATOM     22  C   UNL     1       9.793   5.102   6.313  0.00  0.00    +0.122 A 
ATOM     23  C   UNL     1       9.420   6.313   8.276  0.00  0.00    +0.122 A 
ATOM     29  C   UNL     1       9.698   4.057   8.330  0.00  0.00    +0.221 A 
ENDBRANCH  15  20
BRANCH  17  21
ATOM     21  C   UNL     1      12.095   6.501   2.745  0.00  0.00    +0.078 A 
ATOM     24  C   UNL     1      12.787   5.380   2.291  0.00  0.00    +0.132 A 
ATOM     25  C   UNL     1      10.717   6.441   2.945  0.00  0.00    +0.017 A 
ATOM     26  C   UNL     1      12.098   4.194   2.038  0.00  0.00    +0.046 A 
ATOM     27  C   UNL     1      10.028   5.256   2.692  0.00  0.00    +0.001 A 
ATOM     28  C   UNL     1      10.719   4.131   2.238  0.00  0.00    +0.004 A 
BRANCH  24   3
ATOM      3  O   UNL     1      14.134   5.421   2.089  0.00  0.00    -0.494 OA
ATOM     30  C   UNL     1      14.754   4.227   1.615  0.00  0.00    +0.277 C 
ENDBRANCH  24   3
ENDBRANCH  17  21
TORSDOF 3
ENDMDL
MODEL 7
REMARK VINA RESULT:      -5.9     12.503     15.809
REMARK  Name = 7687036
REMARK  4 active torsions:
REMARK  status: ('A' for Active; 'I' for Inactive)
REMARK    1  A    between atoms: O_3  and  C_24
REMARK    2  A    between atoms: O_3  and  C_30
REMARK    3  A    between atoms: C_15  and  C_20
REMARK    4  A    between atoms: C_17  and  C_21
REMARK                            x       y       z     vdW  Elec       q    Type
REMARK                         _______ _______ _______ _____ _____    ______ ____
ROOT
ATOM      1  O   UNL     1      13.488   7.051   6.171  0.00  0.00    -0.268 OA
ATOM      2  O   UNL     1       9.349   7.154   3.238  0.00  0.00    -0.270 OA
ATOM      4  N   UNL     1       8.611   7.501   5.428  0.00  0.00    -0.296 N 
ATOM      5  N   UNL     1      11.358   7.587   6.983  0.00  0.00    -0.311 N 
ATOM      8  C   UNL     1       9.476   5.846   7.062  0.00  0.00    +0.027 C 
ATOM      9  C   UNL     1       9.046   8.157   7.786  0.00  0.00    +0.054 C 
ATOM     10  C   UNL     1       8.940   6.692   8.207  0.00  0.00    +0.018 C 
ATOM     11  C   UNL     1       8.657   6.084   5.783  0.00  0.00    +0.113 C 
ATOM     12  C   UNL     1      10.956   6.178   6.866  0.00  0.00    +0.130 C 
ATOM     13  C   UNL     1       8.195   8.393   6.520  0.00  0.00    +0.117 C 
ATOM     14  C   UNL     1      10.499   8.563   7.524  0.00  0.00    +0.034 A 
ATOM     15  C   UNL     1      10.962   9.819   7.759  0.00  0.00    +0.005 A 
ATOM     16  C   UNL     1      12.691   7.867   6.634  0.00  0.00    +0.252 A 
ATOM     17  C   UNL     1       9.002   7.904   4.148  0.00  0.00    +0.250 C 
ATOM     18  C   UNL     1      12.331  10.146   7.408  0.00  0.00    +0.015 A 
ATOM     19  C   UNL     1      13.158   9.253   6.863  0.00  0.00    +0.071 A 
ENDROOT
BRANCH  15  20
ATOM      6  N   UNL     1       8.604  12.717   8.069  0.00  0.00    -0.243 NA
ATOM      7  N   UNL     1       9.194  11.959  10.279  0.00  0.00    -0.243 NA
ATOM     20  C   UNL     1      10.102  10.869   8.349  0.00  0.00    +0.020 A 
ATOM     22  C   UNL     1       9.397  11.749   7.565  0.00  0.00    +0.122 A 
ATOM     23  C   UNL     1       9.969  11.014   9.708  0.00  0.00    +0.122 A 
ATOM     29  C   UNL     1       8.549  12.765   9.413  0.00  0.00    +0.221 A 
ENDBRANCH  15  20
BRANCH  17  21
ATOM     21  C   UNL     1       9.024   9.341   3.849  0.00  0.00    +0.078 A 
ATOM     24  C   UNL     1       7.883   9.989   3.380  0.00  0.00    +0.132 A 
ATOM     25  C   UNL     1      10.207  10.052   4.039  0.00  0.00    +0.017 A 
ATOM     26  C   UNL     1       7.926  11.355   3.101  0.00  0.00    +0.046 A 
ATOM     27  C   UNL     1      10.250  11.418   3.760  0.00  0.00    +0.001 A 
ATOM     28  C   UNL     1       9.108  12.069   3.291  0.00  0.00    +0.004 A 
BRANCH  24   3
ATOM      3  O   UNL     1       6.718   9.309   3.188  0.00  0.00    -0.494 OA
ATOM     30  C   UNL     1       5.540  10.088   2.985  0.00  0.00    +0.277 C 
ENDBRANCH  24   3
ENDBRANCH  17  21
TORSDOF 3
ENDMDL
MODEL 8
REMARK VINA RESULT:      -5.9     13.763     16.927
REMARK  Name = 7687036
REMARK  4 active torsions:
REMARK  status: ('A' for Active; 'I' for Inactive)
REMARK    1  A    between atoms: O_3  and  C_24
REMARK    2  A    between atoms: O_3  and  C_30
REMARK    3  A    between atoms: C_15  and  C_20
REMARK    4  A    between atoms: C_17  and  C_21
REMARK                            x       y       z     vdW  Elec       q    Type
REMARK                         _______ _______ _______ _____ _____    ______ ____
ROOT
ATOM      1  O   UNL     1      14.524   7.700   3.300  0.00  0.00    -0.268 OA
ATOM      2  O   UNL     1      10.030   9.088   1.396  0.00  0.00    -0.270 OA
ATOM      4  N   UNL     1       9.643   7.156   2.654  0.00  0.00    -0.296 N 
ATOM      5  N   UNL     1      12.514   6.638   3.862  0.00  0.00    -0.311 N 
ATOM      8  C   UNL     1      11.186   5.283   2.135  0.00  0.00    +0.027 C 
ATOM      9  C   UNL     1      10.320   5.546   4.423  0.00  0.00    +0.054 C 
ATOM     10  C   UNL     1      10.671   4.520   3.346  0.00  0.00    +0.018 C 
ATOM     11  C   UNL     1      10.112   6.250   1.608  0.00  0.00    +0.113 C 
ATOM     12  C   UNL     1      12.470   6.013   2.532  0.00  0.00    +0.130 C 
ATOM     13  C   UNL     1       9.220   6.492   3.896  0.00  0.00    +0.117 C 
ATOM     14  C   UNL     1      11.548   6.357   4.848  0.00  0.00    +0.034 A 
ATOM     15  C   UNL     1      11.711   6.831   6.111  0.00  0.00    +0.005 A 
ATOM     16  C   UNL     1      13.644   7.434   4.119  0.00  0.00    +0.252 A 
ATOM     17  C   UNL     1       9.676   8.536   2.436  0.00  0.00    +0.250 C 
ATOM     18  C   UNL     1      12.862   7.659   6.413  0.00  0.00    +0.015 A 
ATOM     19  C   UNL     1      13.775   7.971   5.493  0.00  0.00    +0.071 A 
ENDROOT
BRANCH  15  20
ATOM      6  N   UNL     1       9.990   5.141   8.980  0.00  0.00    -0.243 NA
ATOM      7  N   UNL     1       8.749   7.122   8.392  0.00  0.00    -0.243 NA
ATOM     20  C   UNL     1      10.735   6.540   7.184  0.00  0.00    +0.020 A 
ATOM     22  C   UNL     1      10.860   5.437   7.993  0.00  0.00    +0.122 A 
ATOM     23  C   UNL     1       9.658   7.357   7.423  0.00  0.00    +0.122 A 
ATOM     29  C   UNL     1       8.973   6.012   9.123  0.00  0.00    +0.221 A 
ENDBRANCH  15  20
BRANCH  17  21
ATOM     21  C   UNL     1       9.276   9.422   3.536  0.00  0.00    +0.078 A 
ATOM     24  C   UNL     1       7.954   9.845   3.666  0.00  0.00    +0.132 A 
ATOM     25  C   UNL     1      10.239   9.839   4.453  0.00  0.00    +0.017 A 
ATOM     26  C   UNL     1       7.595  10.687   4.718  0.00  0.00    +0.046 A 
ATOM     27  C   UNL     1       9.880  10.681   5.505  0.00  0.00    +0.001 A 
ATOM     28  C   UNL     1       8.557  11.106   5.637  0.00  0.00    +0.004 A 
BRANCH  24   3
ATOM      3  O   UNL     1       6.999   9.447   2.779  0.00  0.00    -0.494 OA
ATOM     30  C   UNL     1       5.725  10.080   2.874  0.00  0.00    +0.277 C 
ENDBRANCH  24   3
ENDBRANCH  17  21
TORSDOF 3
ENDMDL
MODEL 9
REMARK VINA RESULT:      -5.8     13.718     16.632
REMARK  Name = 7687036
REMARK  4 active torsions:
REMARK  status: ('A' for Active; 'I' for Inactive)
REMARK    1  A    between atoms: O_3  and  C_24
REMARK    2  A    between atoms: O_3  and  C_30
REMARK    3  A    between atoms: C_15  and  C_20
REMARK    4  A    between atoms: C_17  and  C_21
REMARK                            x       y       z     vdW  Elec       q    Type
REMARK                         _______ _______ _______ _____ _____    ______ ____
ROOT
ATOM      1  O   UNL     1       8.662   7.039   8.564  0.00  0.00    -0.268 OA
ATOM      2  O   UNL     1       7.468   8.332   3.805  0.00  0.00    -0.270 OA
ATOM      4  N   UNL     1       9.448   9.463   4.316  0.00  0.00    -0.296 N 
ATOM      5  N   UNL     1      10.055   8.340   7.204  0.00  0.00    -0.311 N 
ATOM      8  C   UNL     1       9.381  10.703   6.464  0.00  0.00    +0.027 C 
ATOM      9  C   UNL     1      11.503   9.730   5.689  0.00  0.00    +0.054 C 
ATOM     10  C   UNL     1      10.880  10.945   6.374  0.00  0.00    +0.018 C 
ATOM     11  C   UNL     1       8.776  10.525   5.062  0.00  0.00    +0.113 C 
ATOM     12  C   UNL     1       9.139   9.481   7.352  0.00  0.00    +0.130 C 
ATOM     13  C   UNL     1      10.913   9.579   4.270  0.00  0.00    +0.117 C 
ATOM     14  C   UNL     1      11.267   8.448   6.493  0.00  0.00    +0.034 A 
ATOM     15  C   UNL     1      12.157   7.421   6.511  0.00  0.00    +0.005 A 
ATOM     16  C   UNL     1       9.700   7.182   7.916  0.00  0.00    +0.252 A 
ATOM     17  C   UNL     1       8.693   8.425   3.765  0.00  0.00    +0.250 C 
ATOM     18  C   UNL     1      11.822   6.208   7.233  0.00  0.00    +0.015 A 
ATOM     19  C   UNL     1      10.669   6.064   7.886  0.00  0.00    +0.071 A 
ENDROOT
BRANCH  15  20
ATOM      6  N   UNL     1      15.802   7.964   5.825  0.00  0.00    -0.243 NA
ATOM      7  N   UNL     1      14.727   7.254   3.787  0.00  0.00    -0.243 NA
ATOM     20  C   UNL     1      13.452   7.499   5.800  0.00  0.00    +0.020 A 
ATOM     22  C   UNL     1      14.605   7.882   6.441  0.00  0.00    +0.122 A 
ATOM     23  C   UNL     1      13.564   7.194   4.466  0.00  0.00    +0.122 A 
ATOM     29  C   UNL     1      15.792   7.641   4.517  0.00  0.00    +0.221 A 
ENDBRANCH  15  20
BRANCH  17  21
ATOM     21  C   UNL     1       9.404   7.330   3.093  0.00  0.00    +0.078 A 
ATOM     24  C   UNL     1       9.645   7.373   1.721  0.00  0.00    +0.132 A 
ATOM     25  C   UNL     1       9.835   6.241   3.847  0.00  0.00    +0.017 A 
ATOM     26  C   UNL     1      10.322   6.323   1.102  0.00  0.00    +0.046 A 
ATOM     27  C   UNL     1      10.512   5.190   3.228  0.00  0.00    +0.001 A 
ATOM     28  C   UNL     1      10.755   5.231   1.854  0.00  0.00    +0.004 A 
BRANCH  24   3
ATOM      3  O   UNL     1       9.230   8.430   0.967  0.00  0.00    -0.494 OA
ATOM     30  C   UNL     1      10.240   9.301   0.463  0.00  0.00    +0.277 C 
ENDBRANCH  24   3
ENDBRANCH  17  21
TORSDOF 3
ENDMDL
MODEL 10
REMARK VINA RESULT:      -5.8     13.528     16.659
REMARK  Name = 7687036
REMARK  4 active torsions:
REMARK  status: ('A' for Active; 'I' for Inactive)
REMARK    1  A    between atoms: O_3  and  C_24
REMARK    2  A    between atoms: O_3  and  C_30
REMARK    3  A    between atoms: C_15  and  C_20
REMARK    4  A    between atoms: C_17  and  C_21
REMARK                            x       y       z     vdW  Elec       q    Type
REMARK                         _______ _______ _______ _____ _____    ______ ____
ROOT
ATOM      1  O   UNL     1      22.446  -6.829  23.513  0.00  0.00    -0.268 OA
ATOM      2  O   UNL     1      20.399  -6.746  28.155  0.00  0.00    -0.270 OA
ATOM      4  N   UNL     1      20.144  -4.591  27.286  0.00  0.00    -0.296 N 
ATOM      5  N   UNL     1      21.301  -4.976  24.373  0.00  0.00    -0.311 N 
ATOM      8  C   UNL     1      22.228  -3.625  26.348  0.00  0.00    +0.027 C 
ATOM      9  C   UNL     1      20.058  -3.025  25.357  0.00  0.00    +0.054 C 
ATOM     10  C   UNL     1      21.429  -2.478  25.748  0.00  0.00    +0.018 C 
ATOM     11  C   UNL     1      21.517  -4.190  27.588  0.00  0.00    +0.113 C 
ATOM     12  C   UNL     1      22.432  -4.689  25.268  0.00  0.00    +0.130 C 
ATOM     13  C   UNL     1      19.339  -3.561  26.614  0.00  0.00    +0.117 C 
ATOM     14  C   UNL     1      20.173  -4.134  24.307  0.00  0.00    +0.034 A 
ATOM     15  C   UNL     1      19.224  -4.347  23.359  0.00  0.00    +0.005 A 
ATOM     16  C   UNL     1      21.476  -6.071  23.508  0.00  0.00    +0.252 A 
ATOM     17  C   UNL     1      19.722  -5.887  27.592  0.00  0.00    +0.250 C 
ATOM     18  C   UNL     1      19.368  -5.469  22.451  0.00  0.00    +0.015 A 
ATOM     19  C   UNL     1      20.407  -6.302  22.511  0.00  0.00    +0.071 A 
ENDROOT
BRANCH  15  20
ATOM      6  N   UNL     1      17.019  -1.464  22.418  0.00  0.00    -0.243 NA
ATOM      7  N   UNL     1      15.729  -3.036  23.712  0.00  0.00    -0.243 NA
ATOM     20  C   UNL     1      18.036  -3.473  23.236  0.00  0.00    +0.020 A 
ATOM     22  C   UNL     1      18.082  -2.285  22.550  0.00  0.00    +0.122 A 
ATOM     23  C   UNL     1      16.831  -3.808  23.804  0.00  0.00    +0.122 A 
ATOM     29  C   UNL     1      15.891  -1.895  23.015  0.00  0.00    +0.221 A 
ENDBRANCH  15  20
BRANCH  17  21
ATOM     21  C   UNL     1      18.364  -6.286  27.202  0.00  0.00    +0.078 A 
ATOM     24  C   UNL     1      17.299  -6.156  28.092  0.00  0.00    +0.132 A 
ATOM     25  C   UNL     1      18.152  -6.800  25.924  0.00  0.00    +0.017 A 
ATOM     26  C   UNL     1      16.017  -6.541  27.701  0.00  0.00    +0.046 A 
ATOM     27  C   UNL     1      16.870  -7.185  25.533  0.00  0.00    +0.001 A 
ATOM     28  C   UNL     1      15.802  -7.056  26.423  0.00  0.00    +0.004 A 
BRANCH  24   3
ATOM      3  O   UNL     1      17.488  -5.655  29.345  0.00  0.00    -0.494 OA
ATOM     30  C   UNL     1      17.014  -4.333  29.592  0.00  0.00    +0.277 C 
ENDBRANCH  24   3
ENDBRANCH  17  21
TORSDOF 3
ENDMDL
