MODEL 1
REMARK VINA RESULT:      -6.3      0.000      0.000
REMARK  Name = 11867161
REMARK  8 active torsions:
REMARK  status: ('A' for Active; 'I' for Inactive)
REMARK    1  A    between atoms: S_1  and  N_9
REMARK    2  A    between atoms: S_1  and  C_23
REMARK    3  A    between atoms: O_4  and  C_22
REMARK    4  A    between atoms: O_4  and  C_25
REMARK    5  A    between atoms: N_9  and  C_20
REMARK    6  A    between atoms: C_19  and  C_22
REMARK    7  A    between atoms: C_23  and  C_24
REMARK    8  A    between atoms: C_24  and  C_26
REMARK                            x       y       z     vdW  Elec       q    Type
REMARK                         _______ _______ _______ _____ _____    ______ ____
ROOT
ATOM      2  O   UNL     1      10.372   7.763   1.373  0.00  0.00    -0.266 OA
ATOM      3  O   UNL     1      11.628   9.556   6.265  0.00  0.00    -0.272 OA
ATOM      7  N   UNL     1      10.284   7.666   6.402  0.00  0.00    -0.298 N 
ATOM      8  N   UNL     1       9.804   6.712   3.390  0.00  0.00    -0.310 N 
ATOM     10  C   UNL     1       8.167   7.721   5.077  0.00  0.00    +0.027 C 
ATOM     11  C   UNL     1       9.245   5.565   5.564  0.00  0.00    +0.054 C 
ATOM     12  C   UNL     1       7.897   6.274   5.470  0.00  0.00    +0.018 C 
ATOM     13  C   UNL     1       9.052   8.409   6.131  0.00  0.00    +0.113 C 
ATOM     14  C   UNL     1       8.804   7.747   3.683  0.00  0.00    +0.130 C 
ATOM     15  C   UNL     1      10.103   6.229   6.659  0.00  0.00    +0.117 C 
ATOM     16  C   UNL     1       9.981   5.610   4.237  0.00  0.00    +0.027 A 
ATOM     17  C   UNL     1      10.818   4.613   3.894  0.00  0.00    +0.024 A 
ATOM     18  C   UNL     1      10.497   6.829   2.166  0.00  0.00    +0.274 A 
ATOM     19  C   UNL     1      11.497   8.349   6.484  0.00  0.00    +0.253 C 
ATOM     20  C   UNL     1      11.422   5.712   1.854  0.00  0.00    +0.112 A 
ATOM     21  C   UNL     1      11.564   4.663   2.665  0.00  0.00    +0.031 A 
ENDROOT
BRANCH  20   9
ATOM      9  N   UNL     1      12.174   5.725   0.667  0.00  0.00    -0.215 N 
ATOM     32  H   UNL     1      12.334   6.662   0.271  0.00  0.00    +0.173 HD
BRANCH   9   1
ATOM      1  S   UNL     1      11.745   4.542  -0.485  0.00  0.00    +0.043 S 
ATOM      5  O   UNL     1      10.443   3.993  -0.160  0.00  0.00    -0.155 OA
ATOM      6  O   UNL     1      12.040   5.037  -1.815  0.00  0.00    -0.155 OA
BRANCH   1  23
ATOM     23  C   UNL     1      12.951   3.298  -0.097  0.00  0.00    +0.188 C 
BRANCH  23  24
ATOM     24  C   UNL     1      14.324   3.908   0.125  0.00  0.00    +0.021 C 
ATOM     26  C   UNL     1      14.890   3.524   1.482  0.00  0.00    +0.005 C 
ENDBRANCH  23  24
ENDBRANCH   1  23
ENDBRANCH   9   1
ENDBRANCH  20   9
BRANCH  19  22
ATOM     22  C   UNL     1      12.708   7.533   6.859  0.00  0.00    +0.324 C 
BRANCH  22   4
ATOM      4  O   UNL     1      13.249   7.040   5.657  0.00  0.00    -0.483 OA
BRANCH   4  25
ATOM     25  C   UNL     1      14.499   7.490   5.296  0.00  0.00    +0.121 A 
ATOM     27  C   UNL     1      15.308   8.095   6.247  0.00  0.00    +0.045 A 
ATOM     28  C   UNL     1      14.929   7.330   3.987  0.00  0.00    +0.045 A 
ATOM     29  C   UNL     1      16.574   8.550   5.881  0.00  0.00    +0.004 A 
ATOM     30  C   UNL     1      16.195   7.786   3.621  0.00  0.00    +0.004 A 
ATOM     31  C   UNL     1      17.017   8.396   4.567  0.00  0.00    +0.000 A 
ENDBRANCH   4  25
ENDBRANCH  22   4
ENDBRANCH  19  22
TORSDOF 7
ENDMDL
MODEL 2
REMARK VINA RESULT:      -6.2     26.431     29.318
REMARK  Name = 11867161
REMARK  8 active torsions:
REMARK  status: ('A' for Active; 'I' for Inactive)
REMARK    1  A    between atoms: S_1  and  N_9
REMARK    2  A    between atoms: S_1  and  C_23
REMARK    3  A    between atoms: O_4  and  C_22
REMARK    4  A    between atoms: O_4  and  C_25
REMARK    5  A    between atoms: N_9  and  C_20
REMARK    6  A    between atoms: C_19  and  C_22
REMARK    7  A    between atoms: C_23  and  C_24
REMARK    8  A    between atoms: C_24  and  C_26
REMARK                            x       y       z     vdW  Elec       q    Type
REMARK                         _______ _______ _______ _____ _____    ______ ____
ROOT
ATOM      2  O   UNL     1      -5.499 -13.859  15.657  0.00  0.00    -0.266 OA
ATOM      3  O   UNL     1      -9.886 -10.782  15.689  0.00  0.00    -0.272 OA
ATOM      7  N   UNL     1      -9.144 -11.178  17.854  0.00  0.00    -0.298 N 
ATOM      8  N   UNL     1      -6.461 -12.890  17.562  0.00  0.00    -0.310 N 
ATOM     10  C   UNL     1      -8.756 -13.569  18.466  0.00  0.00    +0.027 C 
ATOM     11  C   UNL     1      -7.476 -11.798  19.594  0.00  0.00    +0.054 C 
ATOM     12  C   UNL     1      -8.202 -13.122  19.814  0.00  0.00    +0.018 C 
ATOM     13  C   UNL     1      -9.732 -12.517  17.909  0.00  0.00    +0.113 C 
ATOM     14  C   UNL     1      -7.586 -13.832  17.511  0.00  0.00    +0.130 C 
ATOM     15  C   UNL     1      -8.474 -10.738  19.088  0.00  0.00    +0.117 C 
ATOM     16  C   UNL     1      -6.342 -11.953  18.597  0.00  0.00    +0.027 A 
ATOM     17  C   UNL     1      -5.246 -11.177  18.692  0.00  0.00    +0.024 A 
ATOM     18  C   UNL     1      -5.459 -13.046  16.580  0.00  0.00    +0.274 A 
ATOM     19  C   UNL     1      -9.320 -10.395  16.714  0.00  0.00    +0.253 C 
ATOM     20  C   UNL     1      -4.287 -12.146  16.724  0.00  0.00    +0.112 A 
ATOM     21  C   UNL     1      -4.185 -11.274  17.727  0.00  0.00    +0.031 A 
ENDROOT
BRANCH  20   9
ATOM      9  N   UNL     1      -3.232 -12.204  15.798  0.00  0.00    -0.215 N 
ATOM     32  H   UNL     1      -2.310 -12.404  16.211  0.00  0.00    +0.173 HD
BRANCH   9   1
ATOM      1  S   UNL     1      -3.222 -10.970  14.621  0.00  0.00    +0.043 S 
ATOM      5  O   UNL     1      -4.530 -10.348  14.553  0.00  0.00    -0.155 OA
ATOM      6  O   UNL     1      -2.019 -10.174  14.770  0.00  0.00    -0.155 OA
BRANCH   1  23
ATOM     23  C   UNL     1      -3.033 -11.956  13.157  0.00  0.00    +0.188 C 
BRANCH  23  24
ATOM     24  C   UNL     1      -2.054 -11.322  12.184  0.00  0.00    +0.021 C 
ATOM     26  C   UNL     1      -2.750 -10.343  11.254  0.00  0.00    +0.005 C 
ENDBRANCH  23  24
ENDBRANCH   1  23
ENDBRANCH   9   1
ENDBRANCH  20   9
BRANCH  19  22
ATOM     22  C   UNL     1      -8.768  -8.992  16.765  0.00  0.00    +0.324 C 
BRANCH  22   4
ATOM      4  O   UNL     1      -9.716  -8.212  17.453  0.00  0.00    -0.483 OA
BRANCH   4  25
ATOM     25  C   UNL     1     -10.707  -7.617  16.705  0.00  0.00    +0.121 A 
ATOM     27  C   UNL     1     -10.385  -6.570  15.853  0.00  0.00    +0.045 A 
ATOM     28  C   UNL     1     -12.011  -8.076  16.815  0.00  0.00    +0.045 A 
ATOM     29  C   UNL     1     -11.388  -5.969  15.096  0.00  0.00    +0.004 A 
ATOM     30  C   UNL     1     -13.016  -7.473  16.057  0.00  0.00    +0.004 A 
ATOM     31  C   UNL     1     -12.704  -6.420  15.198  0.00  0.00    +0.000 A 
ENDBRANCH   4  25
ENDBRANCH  22   4
ENDBRANCH  19  22
TORSDOF 7
ENDMDL
MODEL 3
REMARK VINA RESULT:      -6.1     23.868     26.564
REMARK  Name = 11867161
REMARK  8 active torsions:
REMARK  status: ('A' for Active; 'I' for Inactive)
REMARK    1  A    between atoms: S_1  and  N_9
REMARK    2  A    between atoms: S_1  and  C_23
REMARK    3  A    between atoms: O_4  and  C_22
REMARK    4  A    between atoms: O_4  and  C_25
REMARK    5  A    between atoms: N_9  and  C_20
REMARK    6  A    between atoms: C_19  and  C_22
REMARK    7  A    between atoms: C_23  and  C_24
REMARK    8  A    between atoms: C_24  and  C_26
REMARK                            x       y       z     vdW  Elec       q    Type
REMARK                         _______ _______ _______ _____ _____    ______ ____
ROOT
ATOM      2  O   UNL     1      -4.663 -12.739   9.920  0.00  0.00    -0.266 OA
ATOM      3  O   UNL     1      -5.783 -12.660  15.160  0.00  0.00    -0.272 OA
ATOM      7  N   UNL     1      -3.492 -12.514  14.807  0.00  0.00    -0.298 N 
ATOM      8  N   UNL     1      -3.098 -12.429  11.636  0.00  0.00    -0.310 N 
ATOM     10  C   UNL     1      -2.493 -14.256  13.321  0.00  0.00    +0.027 C 
ATOM     11  C   UNL     1      -1.433 -12.044  13.489  0.00  0.00    +0.054 C 
ATOM     12  C   UNL     1      -1.150 -13.541  13.404  0.00  0.00    +0.018 C 
ATOM     13  C   UNL     1      -3.344 -13.950  14.566  0.00  0.00    +0.113 C 
ATOM     14  C   UNL     1      -3.198 -13.841  12.025  0.00  0.00    +0.130 C 
ATOM     15  C   UNL     1      -2.240 -11.742  14.768  0.00  0.00    +0.117 C 
ATOM     16  C   UNL     1      -2.200 -11.561  12.272  0.00  0.00    +0.027 A 
ATOM     17  C   UNL     1      -2.038 -10.301  11.826  0.00  0.00    +0.024 A 
ATOM     18  C   UNL     1      -3.871 -12.020  10.529  0.00  0.00    +0.274 A 
ATOM     19  C   UNL     1      -4.745 -11.995  15.132  0.00  0.00    +0.253 C 
ATOM     20  C   UNL     1      -3.666 -10.614  10.100  0.00  0.00    +0.112 A 
ATOM     21  C   UNL     1      -2.794  -9.809  10.706  0.00  0.00    +0.031 A 
ENDROOT
BRANCH  20   9
ATOM      9  N   UNL     1      -4.390 -10.093   9.013  0.00  0.00    -0.215 N 
ATOM     32  H   UNL     1      -3.812  -9.646   8.288  0.00  0.00    +0.173 HD
BRANCH   9   1
ATOM      1  S   UNL     1      -5.800  -9.225   9.423  0.00  0.00    +0.043 S 
ATOM      5  O   UNL     1      -6.483  -9.888  10.517  0.00  0.00    -0.155 OA
ATOM      6  O   UNL     1      -5.493  -7.809   9.477  0.00  0.00    -0.155 OA
BRANCH   1  23
ATOM     23  C   UNL     1      -6.760  -9.509   7.956  0.00  0.00    +0.188 C 
BRANCH  23  24
ATOM     24  C   UNL     1      -5.876  -9.875   6.777  0.00  0.00    +0.021 C 
ATOM     26  C   UNL     1      -6.616  -9.723   5.459  0.00  0.00    +0.005 C 
ENDBRANCH  23  24
ENDBRANCH   1  23
ENDBRANCH   9   1
ENDBRANCH  20   9
BRANCH  19  22
ATOM     22  C   UNL     1      -4.803 -10.524  15.459  0.00  0.00    +0.324 C 
BRANCH  22   4
ATOM      4  O   UNL     1      -4.472 -10.401  16.821  0.00  0.00    -0.483 OA
BRANCH   4  25
ATOM     25  C   UNL     1      -5.482 -10.598  17.736  0.00  0.00    +0.121 A 
ATOM     27  C   UNL     1      -6.755 -10.119  17.461  0.00  0.00    +0.045 A 
ATOM     28  C   UNL     1      -5.210 -11.271  18.918  0.00  0.00    +0.045 A 
ATOM     29  C   UNL     1      -7.778 -10.318  18.388  0.00  0.00    +0.004 A 
ATOM     30  C   UNL     1      -6.232 -11.470  19.845  0.00  0.00    +0.004 A 
ATOM     31  C   UNL     1      -7.516 -10.994  19.580  0.00  0.00    +0.000 A 
ENDBRANCH   4  25
ENDBRANCH  22   4
ENDBRANCH  19  22
TORSDOF 7
ENDMDL
MODEL 4
REMARK VINA RESULT:      -6.1      2.727      5.999
REMARK  Name = 11867161
REMARK  8 active torsions:
REMARK  status: ('A' for Active; 'I' for Inactive)
REMARK    1  A    between atoms: S_1  and  N_9
REMARK    2  A    between atoms: S_1  and  C_23
REMARK    3  A    between atoms: O_4  and  C_22
REMARK    4  A    between atoms: O_4  and  C_25
REMARK    5  A    between atoms: N_9  and  C_20
REMARK    6  A    between atoms: C_19  and  C_22
REMARK    7  A    between atoms: C_23  and  C_24
REMARK    8  A    between atoms: C_24  and  C_26
REMARK                            x       y       z     vdW  Elec       q    Type
REMARK                         _______ _______ _______ _____ _____    ______ ____
ROOT
ATOM      2  O   UNL     1      10.278   4.451   4.859  0.00  0.00    -0.266 OA
ATOM      3  O   UNL     1      14.586   3.852   1.728  0.00  0.00    -0.272 OA
ATOM      7  N   UNL     1      12.979   5.158   0.674  0.00  0.00    -0.298 N 
ATOM      8  N   UNL     1      10.600   5.489   2.782  0.00  0.00    -0.310 N 
ATOM     10  C   UNL     1      10.674   4.200   0.574  0.00  0.00    +0.027 C 
ATOM     11  C   UNL     1      10.982   6.640   0.572  0.00  0.00    +0.054 C 
ATOM     12  C   UNL     1      10.173   5.501  -0.042  0.00  0.00    +0.018 C 
ATOM     13  C   UNL     1      12.171   4.004   0.275  0.00  0.00    +0.113 C 
ATOM     14  C   UNL     1      10.384   4.218   2.079  0.00  0.00    +0.130 C 
ATOM     15  C   UNL     1      12.473   6.462   0.221  0.00  0.00    +0.117 C 
ATOM     16  C   UNL     1      10.811   6.683   2.079  0.00  0.00    +0.027 A 
ATOM     17  C   UNL     1      10.890   7.856   2.736  0.00  0.00    +0.024 A 
ATOM     18  C   UNL     1      10.479   5.464   4.188  0.00  0.00    +0.274 A 
ATOM     19  C   UNL     1      14.178   4.956   1.357  0.00  0.00    +0.253 C 
ATOM     20  C   UNL     1      10.599   6.784   4.856  0.00  0.00    +0.112 A 
ATOM     21  C   UNL     1      10.781   7.911   4.168  0.00  0.00    +0.031 A 
ENDROOT
BRANCH  20   9
ATOM      9  N   UNL     1      10.505   6.879   6.255  0.00  0.00    -0.215 N 
ATOM     32  H   UNL     1      10.841   6.051   6.765  0.00  0.00    +0.173 HD
BRANCH   9   1
ATOM      1  S   UNL     1       9.041   7.522   6.848  0.00  0.00    +0.043 S 
ATOM      5  O   UNL     1       9.196   8.941   7.102  0.00  0.00    -0.155 OA
ATOM      6  O   UNL     1       7.938   7.018   6.053  0.00  0.00    -0.155 OA
BRANCH   1  23
ATOM     23  C   UNL     1       8.977   6.710   8.426  0.00  0.00    +0.188 C 
BRANCH  23  24
ATOM     24  C   UNL     1       9.698   5.374   8.391  0.00  0.00    +0.021 C 
ATOM     26  C   UNL     1       9.364   4.531   9.610  0.00  0.00    +0.005 C 
ENDBRANCH  23  24
ENDBRANCH   1  23
ENDBRANCH   9   1
ENDBRANCH  20   9
BRANCH  19  22
ATOM     22  C   UNL     1      15.003   6.183   1.652  0.00  0.00    +0.324 C 
BRANCH  22   4
ATOM      4  O   UNL     1      15.005   6.339   3.051  0.00  0.00    -0.483 OA
BRANCH   4  25
ATOM     25  C   UNL     1      14.632   7.567   3.550  0.00  0.00    +0.121 A 
ATOM     27  C   UNL     1      14.438   8.628   2.678  0.00  0.00    +0.045 A 
ATOM     28  C   UNL     1      14.455   7.721   4.917  0.00  0.00    +0.045 A 
ATOM     29  C   UNL     1      14.060   9.871   3.183  0.00  0.00    +0.004 A 
ATOM     30  C   UNL     1      14.077   8.965   5.423  0.00  0.00    +0.004 A 
ATOM     31  C   UNL     1      13.880  10.039   4.556  0.00  0.00    +0.000 A 
ENDBRANCH   4  25
ENDBRANCH  22   4
ENDBRANCH  19  22
TORSDOF 7
ENDMDL
MODEL 5
REMARK VINA RESULT:      -6.1     24.664     27.455
REMARK  Name = 11867161
REMARK  8 active torsions:
REMARK  status: ('A' for Active; 'I' for Inactive)
REMARK    1  A    between atoms: S_1  and  N_9
REMARK    2  A    between atoms: S_1  and  C_23
REMARK    3  A    between atoms: O_4  and  C_22
REMARK    4  A    between atoms: O_4  and  C_25
REMARK    5  A    between atoms: N_9  and  C_20
REMARK    6  A    between atoms: C_19  and  C_22
REMARK    7  A    between atoms: C_23  and  C_24
REMARK    8  A    between atoms: C_24  and  C_26
REMARK                            x       y       z     vdW  Elec       q    Type
REMARK                         _______ _______ _______ _____ _____    ______ ____
ROOT
ATOM      2  O   UNL     1      -4.752 -13.819  16.060  0.00  0.00    -0.266 OA
ATOM      3  O   UNL     1      -9.281 -11.711  14.122  0.00  0.00    -0.272 OA
ATOM      7  N   UNL     1      -8.662 -10.655  16.097  0.00  0.00    -0.298 N 
ATOM      8  N   UNL     1      -5.883 -11.975  16.961  0.00  0.00    -0.310 N 
ATOM     10  C   UNL     1      -8.194 -12.148  18.044  0.00  0.00    +0.027 C 
ATOM     11  C   UNL     1      -7.080  -9.961  17.889  0.00  0.00    +0.054 C 
ATOM     12  C   UNL     1      -7.751 -10.935  18.854  0.00  0.00    +0.018 C 
ATOM     13  C   UNL     1      -9.184 -11.729  16.943  0.00  0.00    +0.113 C 
ATOM     14  C   UNL     1      -6.953 -12.842  17.471  0.00  0.00    +0.130 C 
ATOM     15  C   UNL     1      -8.096  -9.507  16.822  0.00  0.00    +0.117 C 
ATOM     16  C   UNL     1      -5.878 -10.597  17.216  0.00  0.00    +0.027 A 
ATOM     17  C   UNL     1      -4.831  -9.838  16.843  0.00  0.00    +0.024 A 
ATOM     18  C   UNL     1      -4.813 -12.613  16.298  0.00  0.00    +0.274 A 
ATOM     19  C   UNL     1      -8.803 -10.738  14.712  0.00  0.00    +0.253 C 
ATOM     20  C   UNL     1      -3.700 -11.720  15.890  0.00  0.00    +0.112 A 
ATOM     21  C   UNL     1      -3.706 -10.414  16.157  0.00  0.00    +0.031 A 
ENDROOT
BRANCH  20   9
ATOM      9  N   UNL     1      -2.585 -12.243  15.212  0.00  0.00    -0.215 N 
ATOM     32  H   UNL     1      -1.675 -11.931  15.579  0.00  0.00    +0.173 HD
BRANCH   9   1
ATOM      1  S   UNL     1      -2.694 -12.238  13.510  0.00  0.00    +0.043 S 
ATOM      5  O   UNL     1      -1.894 -13.317  12.965  0.00  0.00    -0.155 OA
ATOM      6  O   UNL     1      -4.079 -12.058  13.119  0.00  0.00    -0.155 OA
BRANCH   1  23
ATOM     23  C   UNL     1      -1.839 -10.721  13.161  0.00  0.00    +0.188 C 
BRANCH  23  24
ATOM     24  C   UNL     1      -2.030 -10.298  11.716  0.00  0.00    +0.021 C 
ATOM     26  C   UNL     1      -1.086  -9.169  11.337  0.00  0.00    +0.005 C 
ENDBRANCH  23  24
ENDBRANCH   1  23
ENDBRANCH   9   1
ENDBRANCH  20   9
BRANCH  19  22
ATOM     22  C   UNL     1      -8.327  -9.552  13.912  0.00  0.00    +0.324 C 
BRANCH  22   4
ATOM      4  O   UNL     1      -7.087  -9.916  13.353  0.00  0.00    -0.483 OA
BRANCH   4  25
ATOM     25  C   UNL     1      -6.788  -9.420  12.104  0.00  0.00    +0.121 A 
ATOM     27  C   UNL     1      -7.773  -9.385  11.128  0.00  0.00    +0.045 A 
ATOM     28  C   UNL     1      -5.505  -8.963  11.843  0.00  0.00    +0.045 A 
ATOM     29  C   UNL     1      -7.469  -8.883   9.864  0.00  0.00    +0.004 A 
ATOM     30  C   UNL     1      -5.200  -8.460  10.578  0.00  0.00    +0.004 A 
ATOM     31  C   UNL     1      -6.182  -8.420   9.589  0.00  0.00    +0.000 A 
ENDBRANCH   4  25
ENDBRANCH  22   4
ENDBRANCH  19  22
TORSDOF 7
ENDMDL
MODEL 6
REMARK VINA RESULT:      -6.1     25.736     28.682
REMARK  Name = 11867161
REMARK  8 active torsions:
REMARK  status: ('A' for Active; 'I' for Inactive)
REMARK    1  A    between atoms: S_1  and  N_9
REMARK    2  A    between atoms: S_1  and  C_23
REMARK    3  A    between atoms: O_4  and  C_22
REMARK    4  A    between atoms: O_4  and  C_25
REMARK    5  A    between atoms: N_9  and  C_20
REMARK    6  A    between atoms: C_19  and  C_22
REMARK    7  A    between atoms: C_23  and  C_24
REMARK    8  A    between atoms: C_24  and  C_26
REMARK                            x       y       z     vdW  Elec       q    Type
REMARK                         _______ _______ _______ _____ _____    ______ ____
ROOT
ATOM      2  O   UNL     1      -4.708 -14.028  15.713  0.00  0.00    -0.266 OA
ATOM      3  O   UNL     1      -9.483 -11.680  15.075  0.00  0.00    -0.272 OA
ATOM      7  N   UNL     1      -8.549 -11.100  17.121  0.00  0.00    -0.298 N 
ATOM      8  N   UNL     1      -5.672 -12.490  17.196  0.00  0.00    -0.310 N 
ATOM     10  C   UNL     1      -7.779 -12.994  18.557  0.00  0.00    +0.027 C 
ATOM     11  C   UNL     1      -6.696 -10.795  18.755  0.00  0.00    +0.054 C 
ATOM     12  C   UNL     1      -7.207 -11.992  19.552  0.00  0.00    +0.018 C 
ATOM     13  C   UNL     1      -8.932 -12.362  17.757  0.00  0.00    +0.113 C 
ATOM     14  C   UNL     1      -6.649 -13.489  17.646  0.00  0.00    +0.130 C 
ATOM     15  C   UNL     1      -7.869 -10.137  18.001  0.00  0.00    +0.117 C 
ATOM     16  C   UNL     1      -5.621 -11.212  17.769  0.00  0.00    +0.027 A 
ATOM     17  C   UNL     1      -4.645 -10.350  17.428  0.00  0.00    +0.024 A 
ATOM     18  C   UNL     1      -4.726 -12.915  16.240  0.00  0.00    +0.274 A 
ATOM     19  C   UNL     1      -8.912 -10.858  15.797  0.00  0.00    +0.253 C 
ATOM     20  C   UNL     1      -3.689 -11.913  15.887  0.00  0.00    +0.112 A 
ATOM     21  C   UNL     1      -3.647 -10.708  16.456  0.00  0.00    +0.031 A 
ENDROOT
BRANCH  20   9
ATOM      9  N   UNL     1      -2.701 -12.222  14.937  0.00  0.00    -0.215 N 
ATOM     32  H   UNL     1      -1.744 -11.959  15.213  0.00  0.00    +0.173 HD
BRANCH   9   1
ATOM      1  S   UNL     1      -3.094 -11.842  13.321  0.00  0.00    +0.043 S 
ATOM      5  O   UNL     1      -2.490 -12.813  12.430  0.00  0.00    -0.155 OA
ATOM      6  O   UNL     1      -4.504 -11.517  13.234  0.00  0.00    -0.155 OA
BRANCH   1  23
ATOM     23  C   UNL     1      -2.183 -10.328  13.141  0.00  0.00    +0.188 C 
BRANCH  23  24
ATOM     24  C   UNL     1      -1.649 -10.168  11.729  0.00  0.00    +0.021 C 
ATOM     26  C   UNL     1      -2.728  -9.680  10.778  0.00  0.00    +0.005 C 
ENDBRANCH  23  24
ENDBRANCH   1  23
ENDBRANCH   9   1
ENDBRANCH  20   9
BRANCH  19  22
ATOM     22  C   UNL     1      -8.566  -9.501  15.238  0.00  0.00    +0.324 C 
BRANCH  22   4
ATOM      4  O   UNL     1      -9.636  -9.125  14.405  0.00  0.00    -0.483 OA
BRANCH   4  25
ATOM     25  C   UNL     1     -10.539  -8.215  14.908  0.00  0.00    +0.121 A 
ATOM     27  C   UNL     1     -10.146  -7.351  15.920  0.00  0.00    +0.045 A 
ATOM     28  C   UNL     1     -11.826  -8.178  14.394  0.00  0.00    +0.045 A 
ATOM     29  C   UNL     1     -11.060  -6.430  16.429  0.00  0.00    +0.004 A 
ATOM     30  C   UNL     1     -12.742  -7.257  14.904  0.00  0.00    +0.004 A 
ATOM     31  C   UNL     1     -12.358  -6.383  15.921  0.00  0.00    +0.000 A 
ENDBRANCH   4  25
ENDBRANCH  22   4
ENDBRANCH  19  22
TORSDOF 7
ENDMDL
MODEL 7
REMARK VINA RESULT:      -6.1      2.734      4.199
REMARK  Name = 11867161
REMARK  8 active torsions:
REMARK  status: ('A' for Active; 'I' for Inactive)
REMARK    1  A    between atoms: S_1  and  N_9
REMARK    2  A    between atoms: S_1  and  C_23
REMARK    3  A    between atoms: O_4  and  C_22
REMARK    4  A    between atoms: O_4  and  C_25
REMARK    5  A    between atoms: N_9  and  C_20
REMARK    6  A    between atoms: C_19  and  C_22
REMARK    7  A    between atoms: C_23  and  C_24
REMARK    8  A    between atoms: C_24  and  C_26
REMARK                            x       y       z     vdW  Elec       q    Type
REMARK                         _______ _______ _______ _____ _____    ______ ____
ROOT
ATOM      2  O   UNL     1      11.304   7.952   1.716  0.00  0.00    -0.266 OA
ATOM      3  O   UNL     1      10.710  12.148   4.996  0.00  0.00    -0.272 OA
ATOM      7  N   UNL     1       8.658  11.148   4.560  0.00  0.00    -0.298 N 
ATOM      8  N   UNL     1       9.294   8.610   2.724  0.00  0.00    -0.310 N 
ATOM     10  C   UNL     1       8.095  10.796   2.152  0.00  0.00    +0.027 C 
ATOM     11  C   UNL     1       7.150   9.297   3.857  0.00  0.00    +0.054 C 
ATOM     12  C   UNL     1       6.832  10.050   2.568  0.00  0.00    +0.018 C 
ATOM     13  C   UNL     1       8.522  11.786   3.249  0.00  0.00    +0.113 C 
ATOM     14  C   UNL     1       9.194   9.775   1.836  0.00  0.00    +0.130 C 
ATOM     15  C   UNL     1       7.524  10.303   4.964  0.00  0.00    +0.117 C 
ATOM     16  C   UNL     1       8.286   8.312   3.652  0.00  0.00    +0.027 A 
ATOM     17  C   UNL     1       8.337   7.178   4.375  0.00  0.00    +0.024 A 
ATOM     18  C   UNL     1      10.397   7.754   2.524  0.00  0.00    +0.274 A 
ATOM     19  C   UNL     1       9.768  11.435   5.354  0.00  0.00    +0.253 C 
ATOM     20  C   UNL     1      10.411   6.532   3.367  0.00  0.00    +0.112 A 
ATOM     21  C   UNL     1       9.433   6.258   4.231  0.00  0.00    +0.031 A 
ENDROOT
BRANCH  20   9
ATOM      9  N   UNL     1      11.467   5.611   3.262  0.00  0.00    -0.215 N 
ATOM     32  H   UNL     1      12.404   6.035   3.223  0.00  0.00    +0.173 HD
BRANCH   9   1
ATOM      1  S   UNL     1      11.224   4.344   2.145  0.00  0.00    +0.043 S 
ATOM      5  O   UNL     1      11.314   3.067   2.826  0.00  0.00    -0.155 OA
ATOM      6  O   UNL     1      10.093   4.663   1.295  0.00  0.00    -0.155 OA
BRANCH   1  23
ATOM     23  C   UNL     1      12.695   4.523   1.168  0.00  0.00    +0.188 C 
BRANCH  23  24
ATOM     24  C   UNL     1      13.563   3.278   1.241  0.00  0.00    +0.021 C 
ATOM     26  C   UNL     1      14.954   3.600   1.759  0.00  0.00    +0.005 C 
ENDBRANCH  23  24
ENDBRANCH   1  23
ENDBRANCH   9   1
ENDBRANCH  20   9
BRANCH  19  22
ATOM     22  C   UNL     1       9.794  10.815   6.728  0.00  0.00    +0.324 C 
BRANCH  22   4
ATOM      4  O   UNL     1      10.805   9.837   6.709  0.00  0.00    -0.483 OA
BRANCH   4  25
ATOM     25  C   UNL     1      10.472   8.576   7.153  0.00  0.00    +0.121 A 
ATOM     27  C   UNL     1      11.399   7.549   7.049  0.00  0.00    +0.045 A 
ATOM     28  C   UNL     1       9.217   8.356   7.698  0.00  0.00    +0.045 A 
ATOM     29  C   UNL     1      11.062   6.273   7.499  0.00  0.00    +0.004 A 
ATOM     30  C   UNL     1       8.879   7.080   8.149  0.00  0.00    +0.004 A 
ATOM     31  C   UNL     1       9.802   6.039   8.049  0.00  0.00    +0.000 A 
ENDBRANCH   4  25
ENDBRANCH  22   4
ENDBRANCH  19  22
TORSDOF 7
ENDMDL
MODEL 8
REMARK VINA RESULT:      -6.0     27.414     30.830
REMARK  Name = 11867161
REMARK  8 active torsions:
REMARK  status: ('A' for Active; 'I' for Inactive)
REMARK    1  A    between atoms: S_1  and  N_9
REMARK    2  A    between atoms: S_1  and  C_23
REMARK    3  A    between atoms: O_4  and  C_22
REMARK    4  A    between atoms: O_4  and  C_25
REMARK    5  A    between atoms: N_9  and  C_20
REMARK    6  A    between atoms: C_19  and  C_22
REMARK    7  A    between atoms: C_23  and  C_24
REMARK    8  A    between atoms: C_24  and  C_26
REMARK                            x       y       z     vdW  Elec       q    Type
REMARK                         _______ _______ _______ _____ _____    ______ ____
ROOT
ATOM      2  O   UNL     1     -14.408   8.226  17.563  0.00  0.00    -0.266 OA
ATOM      3  O   UNL     1     -15.431  11.588  21.609  0.00  0.00    -0.272 OA
ATOM      7  N   UNL     1     -15.166   9.416  22.391  0.00  0.00    -0.298 N 
ATOM      8  N   UNL     1     -14.424   7.649  19.834  0.00  0.00    -0.310 N 
ATOM     10  C   UNL     1     -16.544   7.664  21.264  0.00  0.00    +0.027 C 
ATOM     11  C   UNL     1     -14.391   7.053  22.283  0.00  0.00    +0.054 C 
ATOM     12  C   UNL     1     -15.833   6.593  22.083  0.00  0.00    +0.018 C 
ATOM     13  C   UNL     1     -16.519   9.013  22.003  0.00  0.00    +0.113 C 
ATOM     14  C   UNL     1     -15.887   7.751  19.882  0.00  0.00    +0.130 C 
ATOM     15  C   UNL     1     -14.376   8.378  23.071  0.00  0.00    +0.117 C 
ATOM     16  C   UNL     1     -13.685   7.238  20.952  0.00  0.00    +0.027 A 
ATOM     17  C   UNL     1     -12.358   7.038  20.857  0.00  0.00    +0.024 A 
ATOM     18  C   UNL     1     -13.813   7.881  18.583  0.00  0.00    +0.274 A 
ATOM     19  C   UNL     1     -14.752  10.731  22.181  0.00  0.00    +0.253 C 
ATOM     20  C   UNL     1     -12.344   7.666  18.547  0.00  0.00    +0.112 A 
ATOM     21  C   UNL     1     -11.663   7.258  19.618  0.00  0.00    +0.031 A 
ENDROOT
BRANCH  20   9
ATOM      9  N   UNL     1     -11.627   7.877  17.357  0.00  0.00    -0.215 N 
ATOM     32  H   UNL     1     -11.027   7.090  17.073  0.00  0.00    +0.173 HD
BRANCH   9   1
ATOM      1  S   UNL     1     -10.893   9.409  17.207  0.00  0.00    +0.043 S 
ATOM      5  O   UNL     1     -11.861  10.447  17.505  0.00  0.00    -0.155 OA
ATOM      6  O   UNL     1      -9.595   9.385  17.852  0.00  0.00    -0.155 OA
BRANCH   1  23
ATOM     23  C   UNL     1     -10.618   9.437  15.453  0.00  0.00    +0.188 C 
BRANCH  23  24
ATOM     24  C   UNL     1     -11.259   8.239  14.773  0.00  0.00    +0.021 C 
ATOM     26  C   UNL     1     -10.349   7.651  13.708  0.00  0.00    +0.005 C 
ENDBRANCH  23  24
ENDBRANCH   1  23
ENDBRANCH   9   1
ENDBRANCH  20   9
BRANCH  19  22
ATOM     22  C   UNL     1     -13.381  11.097  22.691  0.00  0.00    +0.324 C 
BRANCH  22   4
ATOM      4  O   UNL     1     -13.572  11.761  23.917  0.00  0.00    -0.483 OA
BRANCH   4  25
ATOM     25  C   UNL     1     -12.981  11.211  25.033  0.00  0.00    +0.121 A 
ATOM     27  C   UNL     1     -11.600  11.088  25.083  0.00  0.00    +0.045 A 
ATOM     28  C   UNL     1     -13.777  10.788  26.087  0.00  0.00    +0.045 A 
ATOM     29  C   UNL     1     -11.002  10.530  26.212  0.00  0.00    +0.004 A 
ATOM     30  C   UNL     1     -13.179  10.230  27.217  0.00  0.00    +0.004 A 
ATOM     31  C   UNL     1     -11.792  10.102  27.279  0.00  0.00    +0.000 A 
ENDBRANCH   4  25
ENDBRANCH  22   4
ENDBRANCH  19  22
TORSDOF 7
ENDMDL
MODEL 9
REMARK VINA RESULT:      -5.9     25.565     28.400
REMARK  Name = 11867161
REMARK  8 active torsions:
REMARK  status: ('A' for Active; 'I' for Inactive)
REMARK    1  A    between atoms: S_1  and  N_9
REMARK    2  A    between atoms: S_1  and  C_23
REMARK    3  A    between atoms: O_4  and  C_22
REMARK    4  A    between atoms: O_4  and  C_25
REMARK    5  A    between atoms: N_9  and  C_20
REMARK    6  A    between atoms: C_19  and  C_22
REMARK    7  A    between atoms: C_23  and  C_24
REMARK    8  A    between atoms: C_24  and  C_26
REMARK                            x       y       z     vdW  Elec       q    Type
REMARK                         _______ _______ _______ _____ _____    ______ ____
ROOT
ATOM      2  O   UNL     1      -4.045 -13.126  15.965  0.00  0.00    -0.266 OA
ATOM      3  O   UNL     1      -9.208 -13.873  17.192  0.00  0.00    -0.272 OA
ATOM      7  N   UNL     1      -8.432 -11.874  18.085  0.00  0.00    -0.298 N 
ATOM      8  N   UNL     1      -5.406 -11.589  17.097  0.00  0.00    -0.310 N 
ATOM     10  C   UNL     1      -6.338 -12.013  19.441  0.00  0.00    +0.027 C 
ATOM     11  C   UNL     1      -6.894  -9.925  18.266  0.00  0.00    +0.054 C 
ATOM     12  C   UNL     1      -6.332 -10.494  19.566  0.00  0.00    +0.018 C 
ATOM     13  C   UNL     1      -7.770 -12.529  19.214  0.00  0.00    +0.113 C 
ATOM     14  C   UNL     1      -5.392 -12.421  18.306  0.00  0.00    +0.130 C 
ATOM     15  C   UNL     1      -8.347 -10.405  18.077  0.00  0.00    +0.117 C 
ATOM     16  C   UNL     1      -6.054 -10.347  17.075  0.00  0.00    +0.027 A 
ATOM     17  C   UNL     1      -5.958  -9.546  15.997  0.00  0.00    +0.024 A 
ATOM     18  C   UNL     1      -4.649 -12.053  16.000  0.00  0.00    +0.274 A 
ATOM     19  C   UNL     1      -9.149 -12.641  17.167  0.00  0.00    +0.253 C 
ATOM     20  C   UNL     1      -4.600 -11.137  14.833  0.00  0.00    +0.112 A 
ATOM     21  C   UNL     1      -5.209  -9.951  14.838  0.00  0.00    +0.031 A 
ENDROOT
BRANCH  20   9
ATOM      9  N   UNL     1      -3.885 -11.499  13.679  0.00  0.00    -0.215 N 
ATOM     32  H   UNL     1      -4.147 -12.411  13.280  0.00  0.00    +0.173 HD
BRANCH   9   1
ATOM      1  S   UNL     1      -2.203 -11.219  13.743  0.00  0.00    +0.043 S 
ATOM      5  O   UNL     1      -1.900 -10.303  14.825  0.00  0.00    -0.155 OA
ATOM      6  O   UNL     1      -1.501 -12.481  13.608  0.00  0.00    -0.155 OA
BRANCH   1  23
ATOM     23  C   UNL     1      -1.993 -10.324  12.223  0.00  0.00    +0.188 C 
BRANCH  23  24
ATOM     24  C   UNL     1      -3.170 -10.536  11.288  0.00  0.00    +0.021 C 
ATOM     26  C   UNL     1      -3.345  -9.363  10.339  0.00  0.00    +0.005 C 
ENDBRANCH  23  24
ENDBRANCH   1  23
ENDBRANCH   9   1
ENDBRANCH  20   9
BRANCH  19  22
ATOM     22  C   UNL     1      -9.881 -11.889  16.085  0.00  0.00    +0.324 C 
BRANCH  22   4
ATOM      4  O   UNL     1      -9.518 -12.487  14.864  0.00  0.00    -0.483 OA
BRANCH   4  25
ATOM     25  C   UNL     1      -8.843 -11.705  13.954  0.00  0.00    +0.121 A 
ATOM     27  C   UNL     1      -7.936 -12.296  13.085  0.00  0.00    +0.045 A 
ATOM     28  C   UNL     1      -9.081 -10.339  13.920  0.00  0.00    +0.045 A 
ATOM     29  C   UNL     1      -7.253 -11.504  12.164  0.00  0.00    +0.004 A 
ATOM     30  C   UNL     1      -8.396  -9.547  12.999  0.00  0.00    +0.004 A 
ATOM     31  C   UNL     1      -7.483 -10.129  12.121  0.00  0.00    +0.000 A 
ENDBRANCH   4  25
ENDBRANCH  22   4
ENDBRANCH  19  22
TORSDOF 7
ENDMDL
MODEL 10
REMARK VINA RESULT:      -5.8     31.158     33.306
REMARK  Name = 11867161
REMARK  8 active torsions:
REMARK  status: ('A' for Active; 'I' for Inactive)
REMARK    1  A    between atoms: S_1  and  N_9
REMARK    2  A    between atoms: S_1  and  C_23
REMARK    3  A    between atoms: O_4  and  C_22
REMARK    4  A    between atoms: O_4  and  C_25
REMARK    5  A    between atoms: N_9  and  C_20
REMARK    6  A    between atoms: C_19  and  C_22
REMARK    7  A    between atoms: C_23  and  C_24
REMARK    8  A    between atoms: C_24  and  C_26
REMARK                            x       y       z     vdW  Elec       q    Type
REMARK                         _______ _______ _______ _____ _____    ______ ____
ROOT
ATOM      2  O   UNL     1       6.127  -9.603  34.528  0.00  0.00    -0.266 OA
ATOM      3  O   UNL     1      10.490 -12.388  33.140  0.00  0.00    -0.272 OA
ATOM      7  N   UNL     1       8.912 -12.428  31.435  0.00  0.00    -0.298 N 
ATOM      8  N   UNL     1       6.495 -10.592  32.435  0.00  0.00    -0.310 N 
ATOM     10  C   UNL     1       6.604 -13.124  32.087  0.00  0.00    +0.027 C 
ATOM     11  C   UNL     1       6.927 -11.614  30.172  0.00  0.00    +0.054 C 
ATOM     12  C   UNL     1       6.122 -12.810  30.675  0.00  0.00    +0.018 C 
ATOM     13  C   UNL     1       8.105 -13.463  32.082  0.00  0.00    +0.113 C 
ATOM     14  C   UNL     1       6.285 -11.931  32.997  0.00  0.00    +0.130 C 
ATOM     15  C   UNL     1       8.423 -11.983  30.120  0.00  0.00    +0.117 C 
ATOM     16  C   UNL     1       6.728 -10.404  31.066  0.00  0.00    +0.027 A 
ATOM     17  C   UNL     1       6.802  -9.163  30.550  0.00  0.00    +0.024 A 
ATOM     18  C   UNL     1       6.348  -9.503  33.321  0.00  0.00    +0.274 A 
ATOM     19  C   UNL     1      10.097 -12.002  32.036  0.00  0.00    +0.253 C 
ATOM     20  C   UNL     1       6.463  -8.161  32.698  0.00  0.00    +0.112 A 
ATOM     21  C   UNL     1       6.666  -8.003  31.390  0.00  0.00    +0.031 A 
ENDROOT
BRANCH  20   9
ATOM      9  N   UNL     1       6.344  -7.003  33.485  0.00  0.00    -0.215 N 
ATOM     32  H   UNL     1       5.942  -6.191  32.995  0.00  0.00    +0.173 HD
BRANCH   9   1
ATOM      1  S   UNL     1       7.696  -6.636  34.458  0.00  0.00    +0.043 S 
ATOM      5  O   UNL     1       7.293  -6.564  35.849  0.00  0.00    -0.155 OA
ATOM      6  O   UNL     1       8.821  -7.452  34.044  0.00  0.00    -0.155 OA
BRANCH   1  23
ATOM     23  C   UNL     1       8.011  -4.975  33.917  0.00  0.00    +0.188 C 
BRANCH  23  24
ATOM     24  C   UNL     1       9.500  -4.676  33.885  0.00  0.00    +0.021 C 
ATOM     26  C   UNL     1      10.042  -4.404  35.278  0.00  0.00    +0.005 C 
ENDBRANCH  23  24
ENDBRANCH   1  23
ENDBRANCH   9   1
ENDBRANCH  20   9
BRANCH  19  22
ATOM     22  C   UNL     1      10.924 -11.003  31.267  0.00  0.00    +0.324 C 
BRANCH  22   4
ATOM      4  O   UNL     1      10.996  -9.844  32.061  0.00  0.00    -0.483 OA
BRANCH   4  25
ATOM     25  C   UNL     1      11.727  -8.785  31.570  0.00  0.00    +0.121 A 
ATOM     27  C   UNL     1      12.933  -9.028  30.929  0.00  0.00    +0.045 A 
ATOM     28  C   UNL     1      11.244  -7.495  31.724  0.00  0.00    +0.045 A 
ATOM     29  C   UNL     1      13.672  -7.956  30.432  0.00  0.00    +0.004 A 
ATOM     30  C   UNL     1      11.984  -6.422  31.227  0.00  0.00    +0.004 A 
ATOM     31  C   UNL     1      13.197  -6.653  30.581  0.00  0.00    +0.000 A 
ENDBRANCH   4  25
ENDBRANCH  22   4
ENDBRANCH  19  22
TORSDOF 7
ENDMDL
