MODEL 1
REMARK VINA RESULT:      -7.1      0.000      0.000
REMARK  Name = 40533523
REMARK  5 active torsions:
REMARK  status: ('A' for Active; 'I' for Inactive)
REMARK    1  A    between atoms: N_5  and  C_19
REMARK    2  A    between atoms: N_5  and  C_22
REMARK    3  A    between atoms: N_5  and  C_23
REMARK    4  A    between atoms: C_16  and  C_19
REMARK    5  A    between atoms: C_17  and  C_20
REMARK                            x       y       z     vdW  Elec       q    Type
REMARK                         _______ _______ _______ _____ _____    ______ ____
ROOT
ATOM      1  O   UNL     1      10.590   9.632  21.951  0.00  0.00    -0.267 OA
ATOM      2  O   UNL     1      14.727   6.429  20.835  0.00  0.00    -0.274 OA
ATOM      3  N   UNL     1      14.319   7.890  19.075  0.00  0.00    -0.299 N 
ATOM      4  N   UNL     1      11.938   9.780  20.054  0.00  0.00    -0.311 N 
ATOM      7  C   UNL     1      11.966   7.972  18.240  0.00  0.00    +0.027 C 
ATOM      8  C   UNL     1      13.410   9.950  18.017  0.00  0.00    +0.054 C 
ATOM      9  C   UNL     1      12.350   9.113  17.304  0.00  0.00    +0.018 C 
ATOM     10  C   UNL     1      13.195   7.104  18.563  0.00  0.00    +0.113 C 
ATOM     11  C   UNL     1      11.329   8.561  19.505  0.00  0.00    +0.130 C 
ATOM     12  C   UNL     1      14.656   9.085  18.286  0.00  0.00    +0.117 C 
ATOM     13  C   UNL     1      12.879  10.509  19.324  0.00  0.00    +0.027 A 
ATOM     14  C   UNL     1      13.332  11.683  19.792  0.00  0.00    +0.022 A 
ATOM     15  C   UNL     1      11.445  10.229  21.294  0.00  0.00    +0.259 A 
ATOM     16  C   UNL     1      15.027   7.436  20.187  0.00  0.00    +0.230 C 
ATOM     17  C   UNL     1      11.999  11.530  21.810  0.00  0.00    +0.048 A 
ATOM     18  C   UNL     1      12.887  12.194  21.057  0.00  0.00    +0.015 A 
ENDROOT
BRANCH  17  20
ATOM      6  N   UNL     1      11.775  12.007  25.528  0.00  0.00    -0.263 NA
ATOM     20  C   UNL     1      11.588  12.070  23.118  0.00  0.00    +0.005 A 
ATOM     21  C   UNL     1      10.666  13.106  23.209  0.00  0.00    +0.011 A 
ATOM     24  C   UNL     1      12.109  11.559  24.296  0.00  0.00    +0.119 A 
ATOM     25  C   UNL     1      10.297  13.594  24.458  0.00  0.00    +0.020 A 
ATOM     26  C   UNL     1      10.876  13.016  25.576  0.00  0.00    +0.111 A 
ENDBRANCH  17  20
BRANCH  16  19
ATOM     19  C   UNL     1      16.226   8.249  20.603  0.00  0.00    +0.180 C 
BRANCH  19   5
ATOM      5  N   UNL     1      17.254   7.299  20.967  0.00  0.00    -0.300 NA
ATOM     22  C   UNL     1      18.402   7.976  21.583  0.00  0.00    +0.105 C 
ATOM     23  C   UNL     1      17.697   6.528  19.800  0.00  0.00    +0.105 C 
ENDBRANCH  19   5
ENDBRANCH  16  19
TORSDOF 3
ENDMDL
MODEL 2
REMARK VINA RESULT:      -6.6      2.214      4.059
REMARK  Name = 40533523
REMARK  5 active torsions:
REMARK  status: ('A' for Active; 'I' for Inactive)
REMARK    1  A    between atoms: N_5  and  C_19
REMARK    2  A    between atoms: N_5  and  C_22
REMARK    3  A    between atoms: N_5  and  C_23
REMARK    4  A    between atoms: C_16  and  C_19
REMARK    5  A    between atoms: C_17  and  C_20
REMARK                            x       y       z     vdW  Elec       q    Type
REMARK                         _______ _______ _______ _____ _____    ______ ____
ROOT
ATOM      1  O   UNL     1      14.148  11.574  23.207  0.00  0.00    -0.267 OA
ATOM      2  O   UNL     1      14.997  10.531  18.029  0.00  0.00    -0.274 OA
ATOM      3  N   UNL     1      14.534   8.577  19.197  0.00  0.00    -0.299 N 
ATOM      4  N   UNL     1      13.909   9.487  22.194  0.00  0.00    -0.311 N 
ATOM      7  C   UNL     1      15.897   8.177  21.251  0.00  0.00    +0.027 C 
ATOM      8  C   UNL     1      13.629   7.240  21.090  0.00  0.00    +0.054 C 
ATOM      9  C   UNL     1      15.053   6.945  21.559  0.00  0.00    +0.018 C 
ATOM     10  C   UNL     1      15.890   8.473  19.741  0.00  0.00    +0.113 C 
ATOM     11  C   UNL     1      15.367   9.359  22.073  0.00  0.00    +0.130 C 
ATOM     12  C   UNL     1      13.626   7.481  19.568  0.00  0.00    +0.117 C 
ATOM     13  C   UNL     1      13.058   8.451  21.804  0.00  0.00    +0.027 A 
ATOM     14  C   UNL     1      11.738   8.540  22.035  0.00  0.00    +0.022 A 
ATOM     15  C   UNL     1      13.427  10.654  22.819  0.00  0.00    +0.259 A 
ATOM     16  C   UNL     1      14.220   9.621  18.328  0.00  0.00    +0.230 C 
ATOM     17  C   UNL     1      11.940  10.740  23.031  0.00  0.00    +0.048 A 
ATOM     18  C   UNL     1      11.174   9.706  22.653  0.00  0.00    +0.015 A 
ENDROOT
BRANCH  17  20
ATOM      6  N   UNL     1      10.314  14.112  23.331  0.00  0.00    -0.263 NA
ATOM     20  C   UNL     1      11.322  11.935  23.633  0.00  0.00    +0.005 A 
ATOM     21  C   UNL     1      11.159  12.042  25.009  0.00  0.00    +0.011 A 
ATOM     24  C   UNL     1      10.887  12.988  22.844  0.00  0.00    +0.119 A 
ATOM     25  C   UNL     1      10.573  13.183  25.549  0.00  0.00    +0.020 A 
ATOM     26  C   UNL     1      10.171  14.180  24.674  0.00  0.00    +0.111 A 
ENDBRANCH  17  20
BRANCH  16  19
ATOM     19  C   UNL     1      12.833   9.614  17.737  0.00  0.00    +0.180 C 
BRANCH  19   5
ATOM      5  N   UNL     1      13.003   9.610  16.301  0.00  0.00    -0.300 NA
ATOM     22  C   UNL     1      11.721   9.400  15.618  0.00  0.00    +0.105 C 
ATOM     23  C   UNL     1      13.963   8.580  15.886  0.00  0.00    +0.105 C 
ENDBRANCH  19   5
ENDBRANCH  16  19
TORSDOF 3
ENDMDL
MODEL 3
REMARK VINA RESULT:      -6.4     17.118     20.320
REMARK  Name = 40533523
REMARK  5 active torsions:
REMARK  status: ('A' for Active; 'I' for Inactive)
REMARK    1  A    between atoms: N_5  and  C_19
REMARK    2  A    between atoms: N_5  and  C_22
REMARK    3  A    between atoms: N_5  and  C_23
REMARK    4  A    between atoms: C_16  and  C_19
REMARK    5  A    between atoms: C_17  and  C_20
REMARK                            x       y       z     vdW  Elec       q    Type
REMARK                         _______ _______ _______ _____ _____    ______ ____
ROOT
ATOM      1  O   UNL     1      12.403   7.682   2.977  0.00  0.00    -0.267 OA
ATOM      2  O   UNL     1      12.861   6.286  -2.167  0.00  0.00    -0.274 OA
ATOM      3  N   UNL     1      13.417   4.508  -0.779  0.00  0.00    -0.299 N 
ATOM      4  N   UNL     1      12.905   5.541   2.199  0.00  0.00    -0.311 N 
ATOM      7  C   UNL     1      15.101   4.990   1.002  0.00  0.00    +0.027 C 
ATOM      8  C   UNL     1      13.424   3.226   1.354  0.00  0.00    +0.054 C 
ATOM      9  C   UNL     1      14.893   3.588   1.563  0.00  0.00    +0.018 C 
ATOM     10  C   UNL     1      14.757   5.027  -0.498  0.00  0.00    +0.113 C 
ATOM     11  C   UNL     1      14.253   5.979   1.812  0.00  0.00    +0.130 C 
ATOM     12  C   UNL     1      13.105   3.213  -0.154  0.00  0.00    +0.117 C 
ATOM     13  C   UNL     1      12.512   4.208   2.064  0.00  0.00    +0.027 A 
ATOM     14  C   UNL     1      11.321   3.806   2.536  0.00  0.00    +0.022 A 
ATOM     15  C   UNL     1      12.079   6.506   2.809  0.00  0.00    +0.259 A 
ATOM     16  C   UNL     1      12.580   5.200  -1.652  0.00  0.00    +0.230 C 
ATOM     17  C   UNL     1      10.735   6.033   3.294  0.00  0.00    +0.048 A 
ATOM     18  C   UNL     1      10.420   4.737   3.154  0.00  0.00    +0.015 A 
ENDROOT
BRANCH  17  20
ATOM      6  N   UNL     1       8.909   8.031   5.897  0.00  0.00    -0.263 NA
ATOM     20  C   UNL     1       9.772   6.966   3.906  0.00  0.00    +0.005 A 
ATOM     21  C   UNL     1       8.841   7.647   3.129  0.00  0.00    +0.011 A 
ATOM     24  C   UNL     1       9.765   7.190   5.273  0.00  0.00    +0.119 A 
ATOM     25  C   UNL     1       7.944   8.520   3.734  0.00  0.00    +0.020 A 
ATOM     26  C   UNL     1       8.019   8.675   5.109  0.00  0.00    +0.111 A 
ENDBRANCH  17  20
BRANCH  16  19
ATOM     19  C   UNL     1      11.251   4.560  -1.964  0.00  0.00    +0.180 C 
BRANCH  19   5
ATOM      5  N   UNL     1      10.251   5.588  -1.775  0.00  0.00    -0.300 NA
ATOM     22  C   UNL     1       9.882   5.711  -0.359  0.00  0.00    +0.105 C 
ATOM     23  C   UNL     1       9.055   5.315  -2.580  0.00  0.00    +0.105 C 
ENDBRANCH  19   5
ENDBRANCH  16  19
TORSDOF 3
ENDMDL
MODEL 4
REMARK VINA RESULT:      -6.3      2.932      4.337
REMARK  Name = 40533523
REMARK  5 active torsions:
REMARK  status: ('A' for Active; 'I' for Inactive)
REMARK    1  A    between atoms: N_5  and  C_19
REMARK    2  A    between atoms: N_5  and  C_22
REMARK    3  A    between atoms: N_5  and  C_23
REMARK    4  A    between atoms: C_16  and  C_19
REMARK    5  A    between atoms: C_17  and  C_20
REMARK                            x       y       z     vdW  Elec       q    Type
REMARK                         _______ _______ _______ _____ _____    ______ ____
ROOT
ATOM      1  O   UNL     1      15.409   9.674  22.350  0.00  0.00    -0.267 OA
ATOM      2  O   UNL     1      14.162   7.575  17.590  0.00  0.00    -0.274 OA
ATOM      3  N   UNL     1      12.269   7.781  18.921  0.00  0.00    -0.299 N 
ATOM      4  N   UNL     1      13.250   9.196  21.610  0.00  0.00    -0.311 N 
ATOM      7  C   UNL     1      12.427   6.804  21.214  0.00  0.00    +0.027 C 
ATOM      8  C   UNL     1      10.918   8.700  20.797  0.00  0.00    +0.054 C 
ATOM      9  C   UNL     1      11.050   7.372  21.539  0.00  0.00    +0.018 C 
ATOM     10  C   UNL     1      12.573   6.578  19.698  0.00  0.00    +0.113 C 
ATOM     11  C   UNL     1      13.498   7.756  21.760  0.00  0.00    +0.130 C 
ATOM     12  C   UNL     1      11.011   8.455  19.278  0.00  0.00    +0.117 C 
ATOM     13  C   UNL     1      11.996   9.677  21.228  0.00  0.00    +0.027 A 
ATOM     14  C   UNL     1      11.756  10.998  21.214  0.00  0.00    +0.022 A 
ATOM     15  C   UNL     1      14.301  10.060  21.975  0.00  0.00    +0.259 A 
ATOM     16  C   UNL     1      13.111   8.155  17.874  0.00  0.00    +0.230 C 
ATOM     17  C   UNL     1      14.014  11.536  21.915  0.00  0.00    +0.048 A 
ATOM     18  C   UNL     1      12.785  11.938  21.558  0.00  0.00    +0.015 A 
ENDROOT
BRANCH  17  20
ATOM      6  N   UNL     1      16.143  13.928  23.876  0.00  0.00    -0.263 NA
ATOM     20  C   UNL     1      15.054  12.530  22.230  0.00  0.00    +0.005 A 
ATOM     21  C   UNL     1      15.908  13.012  21.245  0.00  0.00    +0.011 A 
ATOM     24  C   UNL     1      15.211  13.015  23.519  0.00  0.00    +0.119 A 
ATOM     25  C   UNL     1      16.880  13.952  21.572  0.00  0.00    +0.020 A 
ATOM     26  C   UNL     1      16.955  14.373  22.891  0.00  0.00    +0.111 A 
ENDBRANCH  17  20
BRANCH  16  19
ATOM     19  C   UNL     1      12.687   9.352  17.061  0.00  0.00    +0.180 C 
BRANCH  19   5
ATOM      5  N   UNL     1      13.843  10.218  16.981  0.00  0.00    -0.300 NA
ATOM     22  C   UNL     1      13.823  11.223  18.051  0.00  0.00    +0.105 C 
ATOM     23  C   UNL     1      13.915  10.882  15.675  0.00  0.00    +0.105 C 
ENDBRANCH  19   5
ENDBRANCH  16  19
TORSDOF 3
ENDMDL
MODEL 5
REMARK VINA RESULT:      -6.2     24.937     27.159
REMARK  Name = 40533523
REMARK  5 active torsions:
REMARK  status: ('A' for Active; 'I' for Inactive)
REMARK    1  A    between atoms: N_5  and  C_19
REMARK    2  A    between atoms: N_5  and  C_22
REMARK    3  A    between atoms: N_5  and  C_23
REMARK    4  A    between atoms: C_16  and  C_19
REMARK    5  A    between atoms: C_17  and  C_20
REMARK                            x       y       z     vdW  Elec       q    Type
REMARK                         _______ _______ _______ _____ _____    ______ ____
ROOT
ATOM      1  O   UNL     1     -14.893   8.472  22.025  0.00  0.00    -0.267 OA
ATOM      2  O   UNL     1     -14.675   9.954  16.889  0.00  0.00    -0.274 OA
ATOM      3  N   UNL     1     -12.552   9.945  17.834  0.00  0.00    -0.299 N 
ATOM      4  N   UNL     1     -12.938   8.876  20.819  0.00  0.00    -0.311 N 
ATOM      7  C   UNL     1     -12.298  11.208  19.974  0.00  0.00    +0.027 C 
ATOM      8  C   UNL     1     -10.829   9.292  19.506  0.00  0.00    +0.054 C 
ATOM      9  C   UNL     1     -10.864  10.703  20.089  0.00  0.00    +0.018 C 
ATOM     10  C   UNL     1     -12.744  11.234  18.501  0.00  0.00    +0.113 C 
ATOM     11  C   UNL     1     -13.206  10.321  20.835  0.00  0.00    +0.130 C 
ATOM     12  C   UNL     1     -11.225   9.338  18.018  0.00  0.00    +0.117 C 
ATOM     13  C   UNL     1     -11.766   8.365  20.259  0.00  0.00    +0.027 A 
ATOM     14  C   UNL     1     -11.484   7.057  20.363  0.00  0.00    +0.022 A 
ATOM     15  C   UNL     1     -13.866   8.055  21.489  0.00  0.00    +0.259 A 
ATOM     16  C   UNL     1     -13.567   9.428  17.030  0.00  0.00    +0.230 C 
ATOM     17  C   UNL     1     -13.540   6.587  21.557  0.00  0.00    +0.048 A 
ATOM     18  C   UNL     1     -12.391   6.157  21.017  0.00  0.00    +0.015 A 
ENDROOT
BRANCH  17  20
ATOM      6  N   UNL     1     -16.497   4.329  22.070  0.00  0.00    -0.263 NA
ATOM     20  C   UNL     1     -14.462   5.629  22.193  0.00  0.00    +0.005 A 
ATOM     21  C   UNL     1     -14.208   5.125  23.464  0.00  0.00    +0.011 A 
ATOM     24  C   UNL     1     -15.610   5.204  21.544  0.00  0.00    +0.119 A 
ATOM     25  C   UNL     1     -15.097   4.223  24.039  0.00  0.00    +0.020 A 
ATOM     26  C   UNL     1     -16.216   3.860  23.307  0.00  0.00    +0.111 A 
ENDBRANCH  17  20
BRANCH  16  19
ATOM     19  C   UNL     1     -13.265   8.142  16.304  0.00  0.00    +0.180 C 
BRANCH  19   5
ATOM      5  N   UNL     1     -13.126   8.487  14.906  0.00  0.00    -0.300 NA
ATOM     22  C   UNL     1     -13.999   7.656  14.069  0.00  0.00    +0.105 C 
ATOM     23  C   UNL     1     -11.734   8.350  14.465  0.00  0.00    +0.105 C 
ENDBRANCH  19   5
ENDBRANCH  16  19
TORSDOF 3
ENDMDL
MODEL 6
REMARK VINA RESULT:      -6.1     27.614     30.180
REMARK  Name = 40533523
REMARK  5 active torsions:
REMARK  status: ('A' for Active; 'I' for Inactive)
REMARK    1  A    between atoms: N_5  and  C_19
REMARK    2  A    between atoms: N_5  and  C_22
REMARK    3  A    between atoms: N_5  and  C_23
REMARK    4  A    between atoms: C_16  and  C_19
REMARK    5  A    between atoms: C_17  and  C_20
REMARK                            x       y       z     vdW  Elec       q    Type
REMARK                         _______ _______ _______ _____ _____    ______ ____
ROOT
ATOM      1  O   UNL     1      -5.773 -13.251  16.009  0.00  0.00    -0.267 OA
ATOM      2  O   UNL     1     -10.788 -11.391  16.129  0.00  0.00    -0.274 OA
ATOM      3  N   UNL     1     -10.016 -11.818  18.279  0.00  0.00    -0.299 N 
ATOM      4  N   UNL     1      -6.980 -12.748  17.941  0.00  0.00    -0.311 N 
ATOM      7  C   UNL     1      -9.041 -14.085  18.665  0.00  0.00    +0.027 C 
ATOM      8  C   UNL     1      -8.279 -12.182  20.023  0.00  0.00    +0.054 C 
ATOM      9  C   UNL     1      -8.646 -13.663  20.076  0.00  0.00    +0.018 C 
ATOM     10  C   UNL     1     -10.243 -13.261  18.172  0.00  0.00    +0.113 C 
ATOM     11  C   UNL     1      -7.823 -13.935  17.744  0.00  0.00    +0.130 C 
ATOM     12  C   UNL     1      -9.507 -11.361  19.581  0.00  0.00    +0.117 C 
ATOM     13  C   UNL     1      -7.126 -11.937  19.068  0.00  0.00    +0.027 A 
ATOM     14  C   UNL     1      -6.266 -10.929  19.289  0.00  0.00    +0.022 A 
ATOM     15  C   UNL     1      -5.955 -12.538  16.997  0.00  0.00    +0.259 A 
ATOM     16  C   UNL     1     -10.360 -10.986  17.214  0.00  0.00    +0.230 C 
ATOM     17  C   UNL     1      -5.030 -11.379  17.253  0.00  0.00    +0.048 A 
ATOM     18  C   UNL     1      -5.208 -10.646  18.362  0.00  0.00    +0.015 A 
ENDROOT
BRANCH  17  20
ATOM      6  N   UNL     1      -3.292 -10.416  14.067  0.00  0.00    -0.263 NA
ATOM     20  C   UNL     1      -3.952 -11.039  16.308  0.00  0.00    +0.005 A 
ATOM     21  C   UNL     1      -2.623 -11.014  16.714  0.00  0.00    +0.011 A 
ATOM     24  C   UNL     1      -4.231 -10.735  14.985  0.00  0.00    +0.119 A 
ATOM     25  C   UNL     1      -1.627 -10.691  15.799  0.00  0.00    +0.020 A 
ATOM     26  C   UNL     1      -2.010 -10.402  14.499  0.00  0.00    +0.111 A 
ENDBRANCH  17  20
BRANCH  16  19
ATOM     19  C   UNL     1     -10.182  -9.505  17.429  0.00  0.00    +0.180 C 
BRANCH  19   5
ATOM      5  N   UNL     1      -9.438  -9.016  16.289  0.00  0.00    -0.300 NA
ATOM     22  C   UNL     1      -7.993  -9.167  16.499  0.00  0.00    +0.105 C 
ATOM     23  C   UNL     1      -9.758  -7.611  16.015  0.00  0.00    +0.105 C 
ENDBRANCH  19   5
ENDBRANCH  16  19
TORSDOF 3
ENDMDL
MODEL 7
REMARK VINA RESULT:      -6.1     26.860     28.780
REMARK  Name = 40533523
REMARK  5 active torsions:
REMARK  status: ('A' for Active; 'I' for Inactive)
REMARK    1  A    between atoms: N_5  and  C_19
REMARK    2  A    between atoms: N_5  and  C_22
REMARK    3  A    between atoms: N_5  and  C_23
REMARK    4  A    between atoms: C_16  and  C_19
REMARK    5  A    between atoms: C_17  and  C_20
REMARK                            x       y       z     vdW  Elec       q    Type
REMARK                         _______ _______ _______ _____ _____    ______ ____
ROOT
ATOM      1  O   UNL     1      -6.633 -10.223  13.995  0.00  0.00    -0.267 OA
ATOM      2  O   UNL     1      -3.970 -14.584  12.410  0.00  0.00    -0.274 OA
ATOM      3  N   UNL     1      -2.496 -12.923  13.095  0.00  0.00    -0.299 N 
ATOM      4  N   UNL     1      -4.323 -10.520  14.136  0.00  0.00    -0.311 N 
ATOM      7  C   UNL     1      -2.825 -10.672  12.065  0.00  0.00    +0.027 C 
ATOM      8  C   UNL     1      -1.832 -10.855  14.307  0.00  0.00    +0.054 C 
ATOM      9  C   UNL     1      -1.742 -10.108  12.978  0.00  0.00    +0.018 C 
ATOM     10  C   UNL     1      -2.609 -12.179  11.839  0.00  0.00    +0.113 C 
ATOM     11  C   UNL     1      -4.198 -10.372  12.680  0.00  0.00    +0.130 C 
ATOM     12  C   UNL     1      -1.561 -12.354  14.077  0.00  0.00    +0.117 C 
ATOM     13  C   UNL     1      -3.197 -10.671  14.947  0.00  0.00    +0.027 A 
ATOM     14  C   UNL     1      -3.324 -10.682  16.283  0.00  0.00    +0.022 A 
ATOM     15  C   UNL     1      -5.619 -10.391  14.675  0.00  0.00    +0.259 A 
ATOM     16  C   UNL     1      -3.189 -14.123  13.248  0.00  0.00    +0.230 C 
ATOM     17  C   UNL     1      -5.734 -10.445  16.174  0.00  0.00    +0.048 A 
ATOM     18  C   UNL     1      -4.615 -10.573  16.902  0.00  0.00    +0.015 A 
ENDROOT
BRANCH  17  20
ATOM      6  N   UNL     1      -8.809 -11.483  18.062  0.00  0.00    -0.263 NA
ATOM     20  C   UNL     1      -7.045 -10.367  16.843  0.00  0.00    +0.005 A 
ATOM     21  C   UNL     1      -7.753  -9.172  16.898  0.00  0.00    +0.011 A 
ATOM     24  C   UNL     1      -7.612 -11.484  17.435  0.00  0.00    +0.119 A 
ATOM     25  C   UNL     1      -8.988  -9.130  17.535  0.00  0.00    +0.020 A 
ATOM     26  C   UNL     1      -9.468 -10.302  18.096  0.00  0.00    +0.111 A 
ENDBRANCH  17  20
BRANCH  16  19
ATOM     19  C   UNL     1      -2.956 -14.879  14.531  0.00  0.00    +0.180 C 
BRANCH  19   5
ATOM      5  N   UNL     1      -4.264 -15.216  15.048  0.00  0.00    -0.300 NA
ATOM     22  C   UNL     1      -4.835 -14.097  15.806  0.00  0.00    +0.105 C 
ATOM     23  C   UNL     1      -4.204 -16.413  15.894  0.00  0.00    +0.105 C 
ENDBRANCH  19   5
ENDBRANCH  16  19
TORSDOF 3
ENDMDL
MODEL 8
REMARK VINA RESULT:      -6.1     21.726     24.623
REMARK  Name = 40533523
REMARK  5 active torsions:
REMARK  status: ('A' for Active; 'I' for Inactive)
REMARK    1  A    between atoms: N_5  and  C_19
REMARK    2  A    between atoms: N_5  and  C_22
REMARK    3  A    between atoms: N_5  and  C_23
REMARK    4  A    between atoms: C_16  and  C_19
REMARK    5  A    between atoms: C_17  and  C_20
REMARK                            x       y       z     vdW  Elec       q    Type
REMARK                         _______ _______ _______ _____ _____    ______ ____
ROOT
ATOM      1  O   UNL     1      -6.365   9.861   5.382  0.00  0.00    -0.267 OA
ATOM      2  O   UNL     1      -2.511  11.847   2.249  0.00  0.00    -0.274 OA
ATOM      3  N   UNL     1      -1.597  10.682   4.040  0.00  0.00    -0.299 N 
ATOM      4  N   UNL     1      -4.080   9.472   5.642  0.00  0.00    -0.311 N 
ATOM      7  C   UNL     1      -2.435  11.319   6.305  0.00  0.00    +0.027 C 
ATOM      8  C   UNL     1      -1.613   9.036   5.905  0.00  0.00    +0.054 C 
ATOM      9  C   UNL     1      -1.620  10.183   6.914  0.00  0.00    +0.018 C 
ATOM     10  C   UNL     1      -1.805  11.785   4.980  0.00  0.00    +0.113 C 
ATOM     11  C   UNL     1      -3.882  10.847   6.119  0.00  0.00    +0.130 C 
ATOM     12  C   UNL     1      -0.931   9.498   4.602  0.00  0.00    +0.117 C 
ATOM     13  C   UNL     1      -3.023   8.560   5.607  0.00  0.00    +0.027 A 
ATOM     14  C   UNL     1      -3.250   7.277   5.283  0.00  0.00    +0.022 A 
ATOM     15  C   UNL     1      -5.401   9.095   5.330  0.00  0.00    +0.259 A 
ATOM     16  C   UNL     1      -1.952  10.843   2.701  0.00  0.00    +0.230 C 
ATOM     17  C   UNL     1      -5.618   7.660   4.935  0.00  0.00    +0.048 A 
ATOM     18  C   UNL     1      -4.568   6.826   4.937  0.00  0.00    +0.015 A 
ENDROOT
BRANCH  17  20
ATOM      6  N   UNL     1      -8.856   7.323   3.063  0.00  0.00    -0.263 NA
ATOM     20  C   UNL     1      -6.951   7.168   4.544  0.00  0.00    +0.005 A 
ATOM     21  C   UNL     1      -7.565   6.131   5.238  0.00  0.00    +0.011 A 
ATOM     24  C   UNL     1      -7.632   7.725   3.474  0.00  0.00    +0.119 A 
ATOM     25  C   UNL     1      -8.824   5.689   4.846  0.00  0.00    +0.020 A 
ATOM     26  C   UNL     1      -9.421   6.313   3.762  0.00  0.00    +0.111 A 
ENDBRANCH  17  20
BRANCH  16  19
ATOM     19  C   UNL     1      -1.628   9.701   1.774  0.00  0.00    +0.180 C 
BRANCH  19   5
ATOM      5  N   UNL     1      -1.098  10.296   0.566  0.00  0.00    -0.300 NA
ATOM     22  C   UNL     1      -1.470   9.509  -0.616  0.00  0.00    +0.105 C 
ATOM     23  C   UNL     1       0.362  10.426   0.639  0.00  0.00    +0.105 C 
ENDBRANCH  19   5
ENDBRANCH  16  19
TORSDOF 3
ENDMDL
MODEL 9
REMARK VINA RESULT:      -6.0     27.251     28.754
REMARK  Name = 40533523
REMARK  5 active torsions:
REMARK  status: ('A' for Active; 'I' for Inactive)
REMARK    1  A    between atoms: N_5  and  C_19
REMARK    2  A    between atoms: N_5  and  C_22
REMARK    3  A    between atoms: N_5  and  C_23
REMARK    4  A    between atoms: C_16  and  C_19
REMARK    5  A    between atoms: C_17  and  C_20
REMARK                            x       y       z     vdW  Elec       q    Type
REMARK                         _______ _______ _______ _____ _____    ______ ____
ROOT
ATOM      1  O   UNL     1      -6.600 -11.074  14.828  0.00  0.00    -0.267 OA
ATOM      2  O   UNL     1      -4.177 -14.660  11.684  0.00  0.00    -0.274 OA
ATOM      3  N   UNL     1      -2.940 -12.696  11.799  0.00  0.00    -0.299 N 
ATOM      4  N   UNL     1      -4.502 -10.808  13.846  0.00  0.00    -0.311 N 
ATOM      7  C   UNL     1      -4.183 -10.585  11.315  0.00  0.00    +0.027 C 
ATOM      8  C   UNL     1      -2.225 -10.534  12.802  0.00  0.00    +0.054 C 
ATOM      9  C   UNL     1      -2.941  -9.782  11.682  0.00  0.00    +0.018 C 
ATOM     10  C   UNL     1      -3.792 -11.995  10.837  0.00  0.00    +0.113 C 
ATOM     11  C   UNL     1      -5.122 -10.627  12.527  0.00  0.00    +0.130 C 
ATOM     12  C   UNL     1      -1.791 -11.924  12.296  0.00  0.00    +0.117 C 
ATOM     13  C   UNL     1      -3.121 -10.687  14.018  0.00  0.00    +0.027 A 
ATOM     14  C   UNL     1      -2.588 -10.735  15.249  0.00  0.00    +0.022 A 
ATOM     15  C   UNL     1      -5.375 -10.997  14.935  0.00  0.00    +0.259 A 
ATOM     16  C   UNL     1      -3.207 -14.029  12.112  0.00  0.00    +0.230 C 
ATOM     17  C   UNL     1      -4.745 -11.083  16.299  0.00  0.00    +0.048 A 
ATOM     18  C   UNL     1      -3.416 -10.942  16.403  0.00  0.00    +0.015 A 
ENDROOT
BRANCH  17  20
ATOM      6  N   UNL     1      -6.973 -12.822  18.771  0.00  0.00    -0.263 NA
ATOM     20  C   UNL     1      -5.559 -11.326  17.503  0.00  0.00    +0.005 A 
ATOM     21  C   UNL     1      -5.700 -10.350  18.483  0.00  0.00    +0.011 A 
ATOM     24  C   UNL     1      -6.210 -12.534  17.692  0.00  0.00    +0.119 A 
ATOM     25  C   UNL     1      -6.476 -10.607  19.607  0.00  0.00    +0.020 A 
ATOM     26  C   UNL     1      -7.086 -11.848  19.703  0.00  0.00    +0.111 A 
ENDBRANCH  17  20
BRANCH  16  19
ATOM     19  C   UNL     1      -2.235 -14.712  13.040  0.00  0.00    +0.180 C 
BRANCH  19   5
ATOM      5  N   UNL     1      -3.034 -15.372  14.050  0.00  0.00    -0.300 NA
ATOM     22  C   UNL     1      -3.673 -14.394  14.939  0.00  0.00    +0.105 C 
ATOM     23  C   UNL     1      -2.222 -16.307  14.837  0.00  0.00    +0.105 C 
ENDBRANCH  19   5
ENDBRANCH  16  19
TORSDOF 3
ENDMDL
MODEL 10
REMARK VINA RESULT:      -5.9     27.678     29.486
REMARK  Name = 40533523
REMARK  5 active torsions:
REMARK  status: ('A' for Active; 'I' for Inactive)
REMARK    1  A    between atoms: N_5  and  C_19
REMARK    2  A    between atoms: N_5  and  C_22
REMARK    3  A    between atoms: N_5  and  C_23
REMARK    4  A    between atoms: C_16  and  C_19
REMARK    5  A    between atoms: C_17  and  C_20
REMARK                            x       y       z     vdW  Elec       q    Type
REMARK                         _______ _______ _______ _____ _____    ______ ____
ROOT
ATOM      1  O   UNL     1      -4.823 -13.091   9.990  0.00  0.00    -0.267 OA
ATOM      2  O   UNL     1      -5.803 -12.981  15.249  0.00  0.00    -0.274 OA
ATOM      3  N   UNL     1      -3.535 -12.699  14.828  0.00  0.00    -0.299 N 
ATOM      4  N   UNL     1      -3.246 -12.637  11.648  0.00  0.00    -0.311 N 
ATOM      7  C   UNL     1      -2.476 -14.400  13.337  0.00  0.00    +0.027 C 
ATOM      8  C   UNL     1      -1.552 -12.124  13.440  0.00  0.00    +0.054 C 
ATOM      9  C   UNL     1      -1.177 -13.603  13.367  0.00  0.00    +0.018 C 
ATOM     10  C   UNL     1      -3.306 -14.128  14.604  0.00  0.00    +0.113 C 
ATOM     11  C   UNL     1      -3.244 -14.047  12.057  0.00  0.00    +0.130 C 
ATOM     12  C   UNL     1      -2.336 -11.853  14.739  0.00  0.00    +0.117 C 
ATOM     13  C   UNL     1      -2.385 -11.711  12.241  0.00  0.00    +0.027 A 
ATOM     14  C   UNL     1      -2.317 -10.456  11.769  0.00  0.00    +0.022 A 
ATOM     15  C   UNL     1      -4.075 -12.295  10.561  0.00  0.00    +0.259 A 
ATOM     16  C   UNL     1      -4.808 -12.253  15.179  0.00  0.00    +0.230 C 
ATOM     17  C   UNL     1      -4.004 -10.872  10.079  0.00  0.00    +0.048 A 
ATOM     18  C   UNL     1      -3.144 -10.033  10.675  0.00  0.00    +0.015 A 
ENDROOT
BRANCH  17  20
ATOM      6  N   UNL     1      -6.678  -8.978   8.246  0.00  0.00    -0.263 NA
ATOM     20  C   UNL     1      -4.861 -10.393   8.980  0.00  0.00    +0.005 A 
ATOM     21  C   UNL     1      -4.696 -10.867   7.683  0.00  0.00    +0.011 A 
ATOM     24  C   UNL     1      -5.857  -9.458   9.207  0.00  0.00    +0.119 A 
ATOM     25  C   UNL     1      -5.521 -10.398   6.667  0.00  0.00    +0.020 A 
ATOM     26  C   UNL     1      -6.488  -9.462   6.997  0.00  0.00    +0.111 A 
ENDBRANCH  17  20
BRANCH  16  19
ATOM     19  C   UNL     1      -4.950 -10.783  15.481  0.00  0.00    +0.180 C 
BRANCH  19   5
ATOM      5  N   UNL     1      -5.802 -10.688  16.646  0.00  0.00    -0.300 NA
ATOM     22  C   UNL     1      -6.671  -9.507  16.569  0.00  0.00    +0.105 C 
ATOM     23  C   UNL     1      -5.007 -10.642  17.879  0.00  0.00    +0.105 C 
ENDBRANCH  19   5
ENDBRANCH  16  19
TORSDOF 3
ENDMDL
