MODEL 1
REMARK VINA RESULT:      -7.0      0.000      0.000
REMARK  Name = 75536080
REMARK  7 active torsions:
REMARK  status: ('A' for Active; 'I' for Inactive)
REMARK    1  A    between atoms: O_1  and  C_10
REMARK    2  A    between atoms: O_2  and  C_12
REMARK    3  A    between atoms: N_4  and  C_9
REMARK    4  A    between atoms: N_7  and  C_23
REMARK    5  A    between atoms: C_8  and  C_13
REMARK    6  A    between atoms: C_16  and  C_17
REMARK    7  A    between atoms: C_21  and  C_22
REMARK                            x       y       z     vdW  Elec       q    Type
REMARK                         _______ _______ _______ _____ _____    ______ ____
ROOT
ATOM      8  C   UNL     1      13.729   9.153  19.692  0.00  0.00    +0.046 C 
ATOM      9  C   UNL     1      13.922   7.683  20.131  0.00  0.00    +0.112 C 
ATOM     10  C   UNL     1      12.957   7.533  21.306  0.00  0.00    +0.164 C 
ATOM     11  C   UNL     1      12.322   9.564  20.197  0.00  0.00    +0.044 C 
ATOM     12  C   UNL     1      11.730   8.316  20.850  0.00  0.00    +0.145 C 
ENDROOT
BRANCH   8  13
ATOM      5  N   UNL     1      13.709   8.529  15.951  0.00  0.00    -0.263 NA
ATOM     13  C   UNL     1      13.945   9.361  18.209  0.00  0.00    -0.024 A 
ATOM     14  C   UNL     1      14.549  10.517  17.727  0.00  0.00    +0.007 A 
ATOM     15  C   UNL     1      13.545   8.406  17.287  0.00  0.00    +0.114 A 
ATOM     18  C   UNL     1      14.735  10.680  16.358  0.00  0.00    +0.020 A 
ATOM     19  C   UNL     1      14.301   9.666  15.520  0.00  0.00    +0.111 A 
ENDBRANCH   8  13
BRANCH   9   4
ATOM      3  O   UNL     1      15.872   6.231  18.604  0.00  0.00    -0.268 OA
ATOM      4  N   UNL     1      15.283   7.407  20.515  0.00  0.00    -0.304 N 
ATOM     16  C   UNL     1      16.157   6.693  19.706  0.00  0.00    +0.264 C 
ATOM     24  H   UNL     1      15.624   7.781  21.396  0.00  0.00    +0.149 HD
BRANCH  16  17
ATOM      6  N   UNL     1      17.910   7.131  21.350  0.00  0.00    -0.167 NA
ATOM      7  N   UNL     1      19.162   6.685  21.544  0.00  0.00    -0.271 N 
ATOM     17  C   UNL     1      17.519   6.471  20.256  0.00  0.00    +0.147 A 
ATOM     20  C   UNL     1      18.514   5.609  19.757  0.00  0.00    +0.057 A 
ATOM     21  C   UNL     1      19.572   5.772  20.617  0.00  0.00    +0.037 A 
ATOM     22  C   UNL     1      20.909   5.150  20.637  0.00  0.00    +0.065 C 
ATOM     23  C   UNL     1      19.925   7.189  22.662  0.00  0.00    +0.172 C 
ENDBRANCH  16  17
ENDBRANCH   9   4
BRANCH  10   1
ATOM      1  O   UNL     1      12.632   6.181  21.565  0.00  0.00    -0.387 OA
ATOM     25  H   UNL     1      11.924   5.927  20.950  0.00  0.00    +0.210 HD
ENDBRANCH  10   1
BRANCH  12   2
ATOM      2  O   UNL     1      11.000   7.589  19.865  0.00  0.00    -0.389 OA
ATOM     26  H   UNL     1      10.059   7.635  20.106  0.00  0.00    +0.210 HD
ENDBRANCH  12   2
TORSDOF 5
ENDMDL
MODEL 2
REMARK VINA RESULT:      -6.6      2.544      3.262
REMARK  Name = 75536080
REMARK  7 active torsions:
REMARK  status: ('A' for Active; 'I' for Inactive)
REMARK    1  A    between atoms: O_1  and  C_10
REMARK    2  A    between atoms: O_2  and  C_12
REMARK    3  A    between atoms: N_4  and  C_9
REMARK    4  A    between atoms: N_7  and  C_23
REMARK    5  A    between atoms: C_8  and  C_13
REMARK    6  A    between atoms: C_16  and  C_17
REMARK    7  A    between atoms: C_21  and  C_22
REMARK                            x       y       z     vdW  Elec       q    Type
REMARK                         _______ _______ _______ _____ _____    ______ ____
ROOT
ATOM      8  C   UNL     1      12.531   8.848  22.215  0.00  0.00    +0.046 C 
ATOM      9  C   UNL     1      13.028   7.973  21.041  0.00  0.00    +0.112 C 
ATOM     10  C   UNL     1      12.106   6.756  21.089  0.00  0.00    +0.164 C 
ATOM     11  C   UNL     1      11.063   8.418  22.470  0.00  0.00    +0.044 C 
ATOM     12  C   UNL     1      10.745   7.365  21.410  0.00  0.00    +0.145 C 
ENDROOT
BRANCH   8  13
ATOM      5  N   UNL     1      12.486  12.216  20.471  0.00  0.00    -0.263 NA
ATOM     13  C   UNL     1      12.712  10.330  21.966  0.00  0.00    -0.024 A 
ATOM     14  C   UNL     1      13.246  11.161  22.945  0.00  0.00    +0.007 A 
ATOM     15  C   UNL     1      12.350  10.902  20.757  0.00  0.00    +0.114 A 
ATOM     18  C   UNL     1      13.401  12.519  22.688  0.00  0.00    +0.020 A 
ATOM     19  C   UNL     1      13.010  12.992  21.446  0.00  0.00    +0.111 A 
ENDBRANCH   8  13
BRANCH   9   4
ATOM      3  O   UNL     1      15.266   9.112  19.648  0.00  0.00    -0.268 OA
ATOM      4  N   UNL     1      14.413   7.604  21.191  0.00  0.00    -0.304 N 
ATOM     16  C   UNL     1      15.431   8.214  20.470  0.00  0.00    +0.264 C 
ATOM     24  H   UNL     1      14.654   6.894  21.877  0.00  0.00    +0.149 HD
BRANCH  16  17
ATOM      6  N   UNL     1      17.592   8.321  21.602  0.00  0.00    -0.167 NA
ATOM      7  N   UNL     1      18.722   7.594  21.562  0.00  0.00    -0.271 N 
ATOM     17  C   UNL     1      16.803   7.702  20.720  0.00  0.00    +0.147 A 
ATOM     20  C   UNL     1      17.423   6.588  20.123  0.00  0.00    +0.057 A 
ATOM     21  C   UNL     1      18.672   6.545  20.691  0.00  0.00    +0.037 A 
ATOM     22  C   UNL     1      19.799   5.616  20.486  0.00  0.00    +0.065 C 
ATOM     23  C   UNL     1      19.834   7.972  22.403  0.00  0.00    +0.172 C 
ENDBRANCH  16  17
ENDBRANCH   9   4
BRANCH  10   1
ATOM      1  O   UNL     1      12.075   6.057  19.859  0.00  0.00    -0.387 OA
ATOM     25  H   UNL     1      11.178   6.148  19.493  0.00  0.00    +0.210 HD
ENDBRANCH  10   1
BRANCH  12   2
ATOM      2  O   UNL     1      10.197   8.018  20.268  0.00  0.00    -0.389 OA
ATOM     26  H   UNL     1      10.184   7.372  19.541  0.00  0.00    +0.210 HD
ENDBRANCH  12   2
TORSDOF 5
ENDMDL
MODEL 3
REMARK VINA RESULT:      -6.2      4.068      6.369
REMARK  Name = 75536080
REMARK  7 active torsions:
REMARK  status: ('A' for Active; 'I' for Inactive)
REMARK    1  A    between atoms: O_1  and  C_10
REMARK    2  A    between atoms: O_2  and  C_12
REMARK    3  A    between atoms: N_4  and  C_9
REMARK    4  A    between atoms: N_7  and  C_23
REMARK    5  A    between atoms: C_8  and  C_13
REMARK    6  A    between atoms: C_16  and  C_17
REMARK    7  A    between atoms: C_21  and  C_22
REMARK                            x       y       z     vdW  Elec       q    Type
REMARK                         _______ _______ _______ _____ _____    ______ ____
ROOT
ATOM      8  C   UNL     1      13.130   9.055  20.676  0.00  0.00    +0.046 C 
ATOM      9  C   UNL     1      12.671   8.807  19.220  0.00  0.00    +0.112 C 
ATOM     10  C   UNL     1      12.875   7.305  19.034  0.00  0.00    +0.164 C 
ATOM     11  C   UNL     1      12.997   7.690  21.398  0.00  0.00    +0.044 C 
ATOM     12  C   UNL     1      12.417   6.725  20.367  0.00  0.00    +0.145 C 
ENDROOT
BRANCH   8  13
ATOM      5  N   UNL     1      10.954  10.946  23.141  0.00  0.00    -0.263 NA
ATOM     13  C   UNL     1      12.386  10.190  21.346  0.00  0.00    -0.024 A 
ATOM     14  C   UNL     1      12.430  11.480  20.828  0.00  0.00    +0.007 A 
ATOM     15  C   UNL     1      11.642   9.978  22.495  0.00  0.00    +0.114 A 
ATOM     18  C   UNL     1      11.735  12.503  21.465  0.00  0.00    +0.020 A 
ATOM     19  C   UNL     1      11.019  12.186  22.608  0.00  0.00    +0.111 A 
ENDBRANCH   8  13
BRANCH   9   4
ATOM      3  O   UNL     1      11.934   9.422  16.513  0.00  0.00    -0.268 OA
ATOM      4  N   UNL     1      13.438   9.575  18.273  0.00  0.00    -0.304 N 
ATOM     16  C   UNL     1      12.998   9.822  16.979  0.00  0.00    +0.264 C 
ATOM     24  H   UNL     1      14.319   9.981  18.577  0.00  0.00    +0.149 HD
BRANCH  16  17
ATOM      6  N   UNL     1      13.570  10.890  14.859  0.00  0.00    -0.167 NA
ATOM      7  N   UNL     1      14.619  11.596  14.403  0.00  0.00    -0.271 N 
ATOM     17  C   UNL     1      13.917  10.609  16.117  0.00  0.00    +0.147 A 
ATOM     20  C   UNL     1      15.177  11.132  16.463  0.00  0.00    +0.057 A 
ATOM     21  C   UNL     1      15.610  11.768  15.325  0.00  0.00    +0.037 A 
ATOM     22  C   UNL     1      16.852  12.510  15.042  0.00  0.00    +0.065 C 
ATOM     23  C   UNL     1      14.605  12.084  13.044  0.00  0.00    +0.172 C 
ENDBRANCH  16  17
ENDBRANCH   9   4
BRANCH  10   1
ATOM      1  O   UNL     1      12.110   6.788  17.962  0.00  0.00    -0.387 OA
ATOM     25  H   UNL     1      11.297   6.410  18.338  0.00  0.00    +0.210 HD
ENDBRANCH  10   1
BRANCH  12   2
ATOM      2  O   UNL     1      10.996   6.747  20.471  0.00  0.00    -0.389 OA
ATOM     26  H   UNL     1      10.642   6.184  19.761  0.00  0.00    +0.210 HD
ENDBRANCH  12   2
TORSDOF 5
ENDMDL
MODEL 4
REMARK VINA RESULT:      -6.0     26.428     28.314
REMARK  Name = 75536080
REMARK  7 active torsions:
REMARK  status: ('A' for Active; 'I' for Inactive)
REMARK    1  A    between atoms: O_1  and  C_10
REMARK    2  A    between atoms: O_2  and  C_12
REMARK    3  A    between atoms: N_4  and  C_9
REMARK    4  A    between atoms: N_7  and  C_23
REMARK    5  A    between atoms: C_8  and  C_13
REMARK    6  A    between atoms: C_16  and  C_17
REMARK    7  A    between atoms: C_21  and  C_22
REMARK                            x       y       z     vdW  Elec       q    Type
REMARK                         _______ _______ _______ _____ _____    ______ ____
ROOT
ATOM      8  C   UNL     1      -3.670 -12.857  12.355  0.00  0.00    +0.046 C 
ATOM      9  C   UNL     1      -3.156 -13.124  13.789  0.00  0.00    +0.112 C 
ATOM     10  C   UNL     1      -3.114 -14.649  13.873  0.00  0.00    +0.164 C 
ATOM     11  C   UNL     1      -3.331 -14.133  11.541  0.00  0.00    +0.044 C 
ATOM     12  C   UNL     1      -2.588 -15.058  12.502  0.00  0.00    +0.145 C 
ENDROOT
BRANCH   8  13
ATOM      5  N   UNL     1      -1.394  -9.890  11.718  0.00  0.00    -0.263 NA
ATOM     13  C   UNL     1      -3.127 -11.575  11.761  0.00  0.00    -0.024 A 
ATOM     14  C   UNL     1      -3.811 -10.908  10.751  0.00  0.00    +0.007 A 
ATOM     15  C   UNL     1      -1.933 -11.031  12.205  0.00  0.00    +0.114 A 
ATOM     18  C   UNL     1      -3.288  -9.731  10.224  0.00  0.00    +0.020 A 
ATOM     19  C   UNL     1      -2.087  -9.269  10.738  0.00  0.00    +0.111 A 
ENDBRANCH   8  13
BRANCH   9   4
ATOM      3  O   UNL     1      -2.476 -11.069  15.676  0.00  0.00    -0.268 OA
ATOM      4  N   UNL     1      -4.023 -12.554  14.788  0.00  0.00    -0.304 N 
ATOM     16  C   UNL     1      -3.603 -11.558  15.661  0.00  0.00    +0.264 C 
ATOM     24  H   UNL     1      -4.988 -12.868  14.830  0.00  0.00    +0.149 HD
BRANCH  16  17
ATOM      6  N   UNL     1      -5.673 -10.399  16.240  0.00  0.00    -0.167 NA
ATOM      7  N   UNL     1      -6.340 -10.159  17.383  0.00  0.00    -0.271 N 
ATOM     17  C   UNL     1      -4.609 -11.094  16.651  0.00  0.00    +0.147 A 
ATOM     20  C   UNL     1      -4.597 -11.298  18.044  0.00  0.00    +0.057 A 
ATOM     21  C   UNL     1      -5.736 -10.676  18.492  0.00  0.00    +0.037 A 
ATOM     22  C   UNL     1      -6.292 -10.533  19.850  0.00  0.00    +0.065 C 
ATOM     23  C   UNL     1      -7.575  -9.412  17.335  0.00  0.00    +0.172 C 
ENDBRANCH  16  17
ENDBRANCH   9   4
BRANCH  10   1
ATOM      1  O   UNL     1      -2.261 -15.106  14.905  0.00  0.00    -0.387 OA
ATOM     25  H   UNL     1      -1.365 -15.175  14.535  0.00  0.00    +0.210 HD
ENDBRANCH  10   1
BRANCH  12   2
ATOM      2  O   UNL     1      -1.191 -14.801  12.395  0.00  0.00    -0.389 OA
ATOM     26  H   UNL     1      -1.063 -14.192  11.648  0.00  0.00    +0.210 HD
ENDBRANCH  12   2
TORSDOF 5
ENDMDL
MODEL 5
REMARK VINA RESULT:      -5.8     13.243     14.986
REMARK  Name = 75536080
REMARK  7 active torsions:
REMARK  status: ('A' for Active; 'I' for Inactive)
REMARK    1  A    between atoms: O_1  and  C_10
REMARK    2  A    between atoms: O_2  and  C_12
REMARK    3  A    between atoms: N_4  and  C_9
REMARK    4  A    between atoms: N_7  and  C_23
REMARK    5  A    between atoms: C_8  and  C_13
REMARK    6  A    between atoms: C_16  and  C_17
REMARK    7  A    between atoms: C_21  and  C_22
REMARK                            x       y       z     vdW  Elec       q    Type
REMARK                         _______ _______ _______ _____ _____    ______ ____
ROOT
ATOM      8  C   UNL     1      10.361   6.205   4.907  0.00  0.00    +0.046 C 
ATOM      9  C   UNL     1      11.447   6.187   6.008  0.00  0.00    +0.112 C 
ATOM     10  C   UNL     1      10.648   5.972   7.292  0.00  0.00    +0.164 C 
ATOM     11  C   UNL     1       9.150   5.438   5.496  0.00  0.00    +0.044 C 
ATOM     12  C   UNL     1       9.590   4.955   6.877  0.00  0.00    +0.145 C 
ENDROOT
BRANCH   8  13
ATOM      5  N   UNL     1      11.708   6.112   1.362  0.00  0.00    -0.263 NA
ATOM     13  C   UNL     1      10.854   5.669   3.580  0.00  0.00    -0.024 A 
ATOM     14  C   UNL     1      10.915   4.301   3.339  0.00  0.00    +0.007 A 
ATOM     15  C   UNL     1      11.259   6.525   2.569  0.00  0.00    +0.114 A 
ATOM     18  C   UNL     1      11.371   3.837   2.109  0.00  0.00    +0.020 A 
ATOM     19  C   UNL     1      11.752   4.775   1.164  0.00  0.00    +0.111 A 
ENDBRANCH   8  13
BRANCH   9   4
ATOM      3  O   UNL     1      14.080   6.548   7.095  0.00  0.00    -0.268 OA
ATOM      4  N   UNL     1      12.202   7.413   6.043  0.00  0.00    -0.304 N 
ATOM     16  C   UNL     1      13.475   7.492   6.592  0.00  0.00    +0.264 C 
ATOM     24  H   UNL     1      11.799   8.243   5.617  0.00  0.00    +0.149 HD
BRANCH  16  17
ATOM      6  N   UNL     1      13.400   9.910   6.926  0.00  0.00    -0.167 NA
ATOM      7  N   UNL     1      14.282  10.915   6.792  0.00  0.00    -0.271 N 
ATOM     17  C   UNL     1      14.110   8.834   6.575  0.00  0.00    +0.147 A 
ATOM     20  C   UNL     1      15.436   9.150   6.222  0.00  0.00    +0.057 A 
ATOM     21  C   UNL     1      15.516  10.513   6.372  0.00  0.00    +0.037 A 
ATOM     22  C   UNL     1      16.637  11.447   6.158  0.00  0.00    +0.065 C 
ATOM     23  C   UNL     1      13.863  12.265   7.089  0.00  0.00    +0.172 C 
ENDBRANCH  16  17
ENDBRANCH   9   4
BRANCH  10   1
ATOM      1  O   UNL     1      11.449   5.474   8.346  0.00  0.00    -0.387 OA
ATOM     25  H   UNL     1      10.923   4.811   8.826  0.00  0.00    +0.210 HD
ENDBRANCH  10   1
BRANCH  12   2
ATOM      2  O   UNL     1      10.158   3.655   6.745  0.00  0.00    -0.389 OA
ATOM     26  H   UNL     1       9.424   3.025   6.638  0.00  0.00    +0.210 HD
ENDBRANCH  12   2
TORSDOF 5
ENDMDL
MODEL 6
REMARK VINA RESULT:      -5.8     31.723     33.264
REMARK  Name = 75536080
REMARK  7 active torsions:
REMARK  status: ('A' for Active; 'I' for Inactive)
REMARK    1  A    between atoms: O_1  and  C_10
REMARK    2  A    between atoms: O_2  and  C_12
REMARK    3  A    between atoms: N_4  and  C_9
REMARK    4  A    between atoms: N_7  and  C_23
REMARK    5  A    between atoms: C_8  and  C_13
REMARK    6  A    between atoms: C_16  and  C_17
REMARK    7  A    between atoms: C_21  and  C_22
REMARK                            x       y       z     vdW  Elec       q    Type
REMARK                         _______ _______ _______ _____ _____    ______ ____
ROOT
ATOM      8  C   UNL     1     -14.343   3.397  30.647  0.00  0.00    +0.046 C 
ATOM      9  C   UNL     1     -15.141   2.539  29.638  0.00  0.00    +0.112 C 
ATOM     10  C   UNL     1     -14.335   1.244  29.557  0.00  0.00    +0.164 C 
ATOM     11  C   UNL     1     -13.525   2.394  31.500  0.00  0.00    +0.044 C 
ATOM     12  C   UNL     1     -13.918   1.004  31.004  0.00  0.00    +0.145 C 
ENDROOT
BRANCH   8  13
ATOM      5  N   UNL     1     -17.409   4.874  32.322  0.00  0.00    -0.263 NA
ATOM     13  C   UNL     1     -15.219   4.332  31.453  0.00  0.00    -0.024 A 
ATOM     14  C   UNL     1     -14.691   5.470  32.053  0.00  0.00    +0.007 A 
ATOM     15  C   UNL     1     -16.571   4.080  31.617  0.00  0.00    +0.114 A 
ATOM     18  C   UNL     1     -15.521   6.311  32.787  0.00  0.00    +0.020 A 
ATOM     19  C   UNL     1     -16.860   5.971  32.890  0.00  0.00    +0.111 A 
ENDBRANCH   8  13
BRANCH   9   4
ATOM      3  O   UNL     1     -17.416   2.475  27.887  0.00  0.00    -0.268 OA
ATOM      4  N   UNL     1     -15.256   3.182  28.354  0.00  0.00    -0.304 N 
ATOM     16  C   UNL     1     -16.402   3.094  27.575  0.00  0.00    +0.264 C 
ATOM     24  H   UNL     1     -14.481   3.751  28.025  0.00  0.00    +0.149 HD
BRANCH  16  17
ATOM      6  N   UNL     1     -17.027   4.933  26.093  0.00  0.00    -0.167 NA
ATOM      7  N   UNL     1     -16.752   5.261  24.819  0.00  0.00    -0.271 N 
ATOM     17  C   UNL     1     -16.353   3.792  26.264  0.00  0.00    +0.147 A 
ATOM     20  C   UNL     1     -15.651   3.397  25.109  0.00  0.00    +0.057 A 
ATOM     21  C   UNL     1     -15.933   4.374  24.186  0.00  0.00    +0.037 A 
ATOM     22  C   UNL     1     -15.500   4.536  22.785  0.00  0.00    +0.065 C 
ATOM     23  C   UNL     1     -17.323   6.466  24.262  0.00  0.00    +0.172 C 
ENDBRANCH  16  17
ENDBRANCH   9   4
BRANCH  10   1
ATOM      1  O   UNL     1     -15.103   0.164  29.061  0.00  0.00    -0.387 OA
ATOM     25  H   UNL     1     -15.419  -0.346  29.826  0.00  0.00    +0.210 HD
ENDBRANCH  10   1
BRANCH  12   2
ATOM      2  O   UNL     1     -15.017   0.536  31.780  0.00  0.00    -0.389 OA
ATOM     26  H   UNL     1     -14.917  -0.426  31.878  0.00  0.00    +0.210 HD
ENDBRANCH  12   2
TORSDOF 5
ENDMDL
MODEL 7
REMARK VINA RESULT:      -5.7     27.139     28.926
REMARK  Name = 75536080
REMARK  7 active torsions:
REMARK  status: ('A' for Active; 'I' for Inactive)
REMARK    1  A    between atoms: O_1  and  C_10
REMARK    2  A    between atoms: O_2  and  C_12
REMARK    3  A    between atoms: N_4  and  C_9
REMARK    4  A    between atoms: N_7  and  C_23
REMARK    5  A    between atoms: C_8  and  C_13
REMARK    6  A    between atoms: C_16  and  C_17
REMARK    7  A    between atoms: C_21  and  C_22
REMARK                            x       y       z     vdW  Elec       q    Type
REMARK                         _______ _______ _______ _____ _____    ______ ____
ROOT
ATOM      8  C   UNL     1      -5.973 -10.244  17.541  0.00  0.00    +0.046 C 
ATOM      9  C   UNL     1      -5.592 -11.246  16.426  0.00  0.00    +0.112 C 
ATOM     10  C   UNL     1      -4.353 -11.944  16.983  0.00  0.00    +0.164 C 
ATOM     11  C   UNL     1      -5.353 -10.808  18.845  0.00  0.00    +0.044 C 
ATOM     12  C   UNL     1      -4.694 -12.131  18.458  0.00  0.00    +0.145 C 
ENDROOT
BRANCH   8  13
ATOM      5  N   UNL     1      -9.642 -10.685  18.394  0.00  0.00    -0.263 NA
ATOM     13  C   UNL     1      -7.462  -9.984  17.620  0.00  0.00    -0.024 A 
ATOM     14  C   UNL     1      -8.026  -8.861  17.025  0.00  0.00    +0.007 A 
ATOM     15  C   UNL     1      -8.305 -10.858  18.288  0.00  0.00    +0.114 A 
ATOM     18  C   UNL     1      -9.398  -8.650  17.114  0.00  0.00    +0.020 A 
ATOM     19  C   UNL     1     -10.155  -9.583  17.803  0.00  0.00    +0.111 A 
ENDBRANCH   8  13
BRANCH   9   4
ATOM      3  O   UNL     1      -5.760 -12.403  13.803  0.00  0.00    -0.268 OA
ATOM      4  N   UNL     1      -5.319 -10.585  15.175  0.00  0.00    -0.304 N 
ATOM     16  C   UNL     1      -5.428 -11.230  13.950  0.00  0.00    +0.264 C 
ATOM     24  H   UNL     1      -5.073  -9.599  15.191  0.00  0.00    +0.149 HD
BRANCH  16  17
ATOM      6  N   UNL     1      -3.836 -10.415  12.286  0.00  0.00    -0.167 NA
ATOM      7  N   UNL     1      -3.907  -9.591  11.227  0.00  0.00    -0.271 N 
ATOM     17  C   UNL     1      -5.087 -10.417  12.754  0.00  0.00    +0.147 A 
ATOM     20  C   UNL     1      -5.951  -9.601  11.999  0.00  0.00    +0.057 A 
ATOM     21  C   UNL     1      -5.152  -9.076  11.013  0.00  0.00    +0.037 A 
ATOM     22  C   UNL     1      -5.460  -8.149   9.907  0.00  0.00    +0.065 C 
ATOM     23  C   UNL     1      -2.717  -9.335  10.451  0.00  0.00    +0.172 C 
ENDBRANCH  16  17
ENDBRANCH   9   4
BRANCH  10   1
ATOM      1  O   UNL     1      -4.109 -13.188  16.354  0.00  0.00    -0.387 OA
ATOM     25  H   UNL     1      -4.957 -13.662  16.304  0.00  0.00    +0.210 HD
ENDBRANCH  10   1
BRANCH  12   2
ATOM      2  O   UNL     1      -5.642 -13.181  18.633  0.00  0.00    -0.389 OA
ATOM     26  H   UNL     1      -6.373 -13.020  18.011  0.00  0.00    +0.210 HD
ENDBRANCH  12   2
TORSDOF 5
ENDMDL
MODEL 8
REMARK VINA RESULT:      -5.6     11.286     14.604
REMARK  Name = 75536080
REMARK  7 active torsions:
REMARK  status: ('A' for Active; 'I' for Inactive)
REMARK    1  A    between atoms: O_1  and  C_10
REMARK    2  A    between atoms: O_2  and  C_12
REMARK    3  A    between atoms: N_4  and  C_9
REMARK    4  A    between atoms: N_7  and  C_23
REMARK    5  A    between atoms: C_8  and  C_13
REMARK    6  A    between atoms: C_16  and  C_17
REMARK    7  A    between atoms: C_21  and  C_22
REMARK                            x       y       z     vdW  Elec       q    Type
REMARK                         _______ _______ _______ _____ _____    ______ ____
ROOT
ATOM      8  C   UNL     1       8.736   7.088   6.061  0.00  0.00    +0.046 C 
ATOM      9  C   UNL     1      10.118   7.400   6.681  0.00  0.00    +0.112 C 
ATOM     10  C   UNL     1      10.598   6.039   7.182  0.00  0.00    +0.164 C 
ATOM     11  C   UNL     1       8.764   5.579   5.707  0.00  0.00    +0.044 C 
ATOM     12  C   UNL     1      10.163   5.088   6.073  0.00  0.00    +0.145 C 
ENDROOT
BRANCH   8  13
ATOM      5  N   UNL     1       7.435  10.073   4.115  0.00  0.00    -0.263 NA
ATOM     13  C   UNL     1       8.390   7.995   4.900  0.00  0.00    -0.024 A 
ATOM     14  C   UNL     1       8.685   7.628   3.591  0.00  0.00    +0.007 A 
ATOM     15  C   UNL     1       7.771   9.217   5.107  0.00  0.00    +0.114 A 
ATOM     18  C   UNL     1       8.354   8.483   2.544  0.00  0.00    +0.020 A 
ATOM     19  C   UNL     1       7.736   9.682   2.857  0.00  0.00    +0.111 A 
ENDBRANCH   8  13
BRANCH   9   4
ATOM      3  O   UNL     1      11.108  10.095   6.645  0.00  0.00    -0.268 OA
ATOM      4  N   UNL     1      10.027   8.364   7.748  0.00  0.00    -0.304 N 
ATOM     16  C   UNL     1      10.537   9.651   7.638  0.00  0.00    +0.264 C 
ATOM     24  H   UNL     1       9.538   8.101   8.599  0.00  0.00    +0.149 HD
BRANCH  16  17
ATOM      6  N   UNL     1      11.464  11.071   9.395  0.00  0.00    -0.167 NA
ATOM      7  N   UNL     1      10.950  11.765  10.426  0.00  0.00    -0.271 N 
ATOM     17  C   UNL     1      10.386  10.515   8.837  0.00  0.00    +0.147 A 
ATOM     20  C   UNL     1       9.193  10.853   9.504  0.00  0.00    +0.057 A 
ATOM     21  C   UNL     1       9.594  11.666  10.535  0.00  0.00    +0.037 A 
ATOM     22  C   UNL     1       8.821  12.345  11.591  0.00  0.00    +0.065 C 
ATOM     23  C   UNL     1      11.838  12.514  11.284  0.00  0.00    +0.172 C 
ENDBRANCH  16  17
ENDBRANCH   9   4
BRANCH  10   1
ATOM      1  O   UNL     1      12.001   5.999   7.367  0.00  0.00    -0.387 OA
ATOM     25  H   UNL     1      12.251   5.070   7.506  0.00  0.00    +0.210 HD
ENDBRANCH  10   1
BRANCH  12   2
ATOM      2  O   UNL     1      11.005   5.217   4.931  0.00  0.00    -0.389 OA
ATOM     26  H   UNL     1      11.656   4.496   4.965  0.00  0.00    +0.210 HD
ENDBRANCH  12   2
TORSDOF 5
ENDMDL
MODEL 9
REMARK VINA RESULT:      -5.6     14.635     17.721
REMARK  Name = 75536080
REMARK  7 active torsions:
REMARK  status: ('A' for Active; 'I' for Inactive)
REMARK    1  A    between atoms: O_1  and  C_10
REMARK    2  A    between atoms: O_2  and  C_12
REMARK    3  A    between atoms: N_4  and  C_9
REMARK    4  A    between atoms: N_7  and  C_23
REMARK    5  A    between atoms: C_8  and  C_13
REMARK    6  A    between atoms: C_16  and  C_17
REMARK    7  A    between atoms: C_21  and  C_22
REMARK                            x       y       z     vdW  Elec       q    Type
REMARK                         _______ _______ _______ _____ _____    ______ ____
ROOT
ATOM      8  C   UNL     1       9.658   5.158   4.870  0.00  0.00    +0.046 C 
ATOM      9  C   UNL     1       9.430   6.567   5.467  0.00  0.00    +0.112 C 
ATOM     10  C   UNL     1       8.944   6.278   6.886  0.00  0.00    +0.164 C 
ATOM     11  C   UNL     1       9.872   4.217   6.083  0.00  0.00    +0.044 C 
ATOM     12  C   UNL     1       9.821   5.110   7.321  0.00  0.00    +0.145 C 
ENDROOT
BRANCH   8  13
ATOM      5  N   UNL     1      12.650   6.228   2.799  0.00  0.00    -0.263 NA
ATOM     13  C   UNL     1      10.773   5.122   3.848  0.00  0.00    -0.024 A 
ATOM     14  C   UNL     1      10.965   4.010   3.036  0.00  0.00    +0.007 A 
ATOM     15  C   UNL     1      11.636   6.195   3.692  0.00  0.00    +0.114 A 
ATOM     18  C   UNL     1      11.998   4.006   2.104  0.00  0.00    +0.020 A 
ATOM     19  C   UNL     1      12.805   5.129   2.026  0.00  0.00    +0.111 A 
ENDBRANCH   8  13
BRANCH   9   4
ATOM      3  O   UNL     1       9.155   9.425   5.410  0.00  0.00    -0.268 OA
ATOM      4  N   UNL     1       8.463   7.323   4.711  0.00  0.00    -0.304 N 
ATOM     16  C   UNL     1       8.407   8.710   4.747  0.00  0.00    +0.264 C 
ATOM     24  H   UNL     1       7.823   6.822   4.103  0.00  0.00    +0.149 HD
BRANCH  16  17
ATOM      6  N   UNL     1       6.459  10.165   4.511  0.00  0.00    -0.167 NA
ATOM      7  N   UNL     1       5.664  10.529   3.490  0.00  0.00    -0.271 N 
ATOM     17  C   UNL     1       7.336   9.340   3.933  0.00  0.00    +0.147 A 
ATOM     20  C   UNL     1       7.104   9.180   2.553  0.00  0.00    +0.057 A 
ATOM     21  C   UNL     1       6.008   9.966   2.296  0.00  0.00    +0.037 A 
ATOM     22  C   UNL     1       5.274  10.225   1.043  0.00  0.00    +0.065 C 
ATOM     23  C   UNL     1       4.570  11.439   3.738  0.00  0.00    +0.172 C 
ENDBRANCH  16  17
ENDBRANCH   9   4
BRANCH  10   1
ATOM      1  O   UNL     1       9.109   7.389   7.746  0.00  0.00    -0.387 OA
ATOM     25  H   UNL     1       8.430   8.044   7.511  0.00  0.00    +0.210 HD
ENDBRANCH  10   1
BRANCH  12   2
ATOM      2  O   UNL     1      11.144   5.549   7.621  0.00  0.00    -0.389 OA
ATOM     26  H   UNL     1      11.663   4.765   7.869  0.00  0.00    +0.210 HD
ENDBRANCH  12   2
TORSDOF 5
ENDMDL
MODEL 10
REMARK VINA RESULT:      -5.6     13.260     16.574
REMARK  Name = 75536080
REMARK  7 active torsions:
REMARK  status: ('A' for Active; 'I' for Inactive)
REMARK    1  A    between atoms: O_1  and  C_10
REMARK    2  A    between atoms: O_2  and  C_12
REMARK    3  A    between atoms: N_4  and  C_9
REMARK    4  A    between atoms: N_7  and  C_23
REMARK    5  A    between atoms: C_8  and  C_13
REMARK    6  A    between atoms: C_16  and  C_17
REMARK    7  A    between atoms: C_21  and  C_22
REMARK                            x       y       z     vdW  Elec       q    Type
REMARK                         _______ _______ _______ _____ _____    ______ ____
ROOT
ATOM      8  C   UNL     1      11.205   6.484   6.709  0.00  0.00    +0.046 C 
ATOM      9  C   UNL     1      10.168   6.584   5.566  0.00  0.00    +0.112 C 
ATOM     10  C   UNL     1       8.919   5.938   6.161  0.00  0.00    +0.164 C 
ATOM     11  C   UNL     1      10.381   6.359   8.016  0.00  0.00    +0.044 C 
ATOM     12  C   UNL     1       8.915   6.450   7.597  0.00  0.00    +0.145 C 
ENDROOT
BRANCH   8  13
ATOM      5  N   UNL     1      12.638   9.985   6.990  0.00  0.00    -0.263 NA
ATOM     13  C   UNL     1      12.201   7.624   6.706  0.00  0.00    -0.024 A 
ATOM     14  C   UNL     1      13.545   7.401   6.432  0.00  0.00    +0.007 A 
ATOM     15  C   UNL     1      11.801   8.923   6.978  0.00  0.00    +0.114 A 
ATOM     18  C   UNL     1      14.437   8.469   6.436  0.00  0.00    +0.020 A 
ATOM     19  C   UNL     1      13.937   9.729   6.718  0.00  0.00    +0.111 A 
ENDBRANCH   8  13
BRANCH   9   4
ATOM      3  O   UNL     1       9.275   7.074   2.881  0.00  0.00    -0.268 OA
ATOM      4  N   UNL     1      10.610   5.904   4.375  0.00  0.00    -0.304 N 
ATOM     16  C   UNL     1      10.118   6.211   3.113  0.00  0.00    +0.264 C 
ATOM     24  H   UNL     1      11.335   5.197   4.460  0.00  0.00    +0.149 HD
BRANCH  16  17
ATOM      6  N   UNL     1      11.766   4.679   2.163  0.00  0.00    -0.167 NA
ATOM      7  N   UNL     1      11.940   4.096   0.964  0.00  0.00    -0.271 N 
ATOM     17  C   UNL     1      10.655   5.401   1.990  0.00  0.00    +0.147 A 
ATOM     20  C   UNL     1      10.124   5.278   0.692  0.00  0.00    +0.057 A 
ATOM     21  C   UNL     1      10.984   4.423   0.048  0.00  0.00    +0.037 A 
ATOM     22  C   UNL     1      10.978   3.899  -1.330  0.00  0.00    +0.065 C 
ATOM     23  C   UNL     1      13.071   3.220   0.764  0.00  0.00    +0.172 C 
ENDBRANCH  16  17
ENDBRANCH   9   4
BRANCH  10   1
ATOM      1  O   UNL     1       7.740   6.321   5.480  0.00  0.00    -0.387 OA
ATOM     25  H   UNL     1       7.143   5.553   5.473  0.00  0.00    +0.210 HD
ENDBRANCH  10   1
BRANCH  12   2
ATOM      2  O   UNL     1       8.509   7.815   7.651  0.00  0.00    -0.389 OA
ATOM     26  H   UNL     1       7.537   7.831   7.655  0.00  0.00    +0.210 HD
ENDBRANCH  12   2
TORSDOF 5
ENDMDL
