MODEL 1
REMARK VINA RESULT:      -6.7      0.000      0.000
REMARK  Name = 26743177
REMARK  8 active torsions:
REMARK  status: ('A' for Active; 'I' for Inactive)
REMARK    1  A    between atoms: O_3  and  C_24
REMARK    2  A    between atoms: O_3  and  C_25
REMARK    3  A    between atoms: N_6  and  C_22
REMARK    4  A    between atoms: C_8  and  C_12
REMARK    5  A    between atoms: C_9  and  C_14
REMARK    6  A    between atoms: C_12  and  C_15
REMARK    7  A    between atoms: C_14  and  C_16
REMARK    8  A    between atoms: C_23  and  C_24
REMARK                            x       y       z     vdW  Elec       q    Type
REMARK                         _______ _______ _______ _____ _____    ______ ____
ROOT
ATOM      4  N   UNL     1      -5.840 -14.170  17.475  0.00  0.00    -0.316 NA
ATOM      8  C   UNL     1      -6.405 -11.381  16.692  0.00  0.00    +0.004 C 
ATOM      9  C   UNL     1      -4.970 -11.958  16.756  0.00  0.00    +0.012 C 
ATOM     10  C   UNL     1      -7.400 -12.535  16.478  0.00  0.00    +0.019 C 
ATOM     11  C   UNL     1      -4.867 -13.115  17.763  0.00  0.00    +0.085 C 
ATOM     13  C   UNL     1      -7.211 -13.664  17.490  0.00  0.00    +0.081 C 
ATOM     31  H   UNL     1      -5.748 -14.913  18.167  0.00  0.00    +0.122 HD
ENDROOT
BRANCH   8  12
ATOM     12  C   UNL     1      -6.795 -10.544  17.915  0.00  0.00    +0.100 C 
BRANCH  12  15
ATOM      1  O   UNL     1      -8.066  -8.894  16.784  0.00  0.00    -0.276 OA
ATOM      5  N   UNL     1      -9.191 -10.160  18.373  0.00  0.00    -0.299 N 
ATOM      6  N   UNL     1     -11.647 -11.351  19.244  0.00  0.00    -0.302 NA
ATOM     15  C   UNL     1      -8.070  -9.787  17.635  0.00  0.00    +0.216 C 
ATOM     17  C   UNL     1     -10.466  -9.477  18.157  0.00  0.00    +0.123 C 
ATOM     18  C   UNL     1      -9.197 -11.121  19.480  0.00  0.00    +0.123 C 
ATOM     19  C   UNL     1     -11.620 -10.474  18.065  0.00  0.00    +0.103 C 
ATOM     20  C   UNL     1     -10.379 -12.085  19.368  0.00  0.00    +0.103 C 
ATOM     22  C   UNL     1     -12.773 -12.281  19.167  0.00  0.00    +0.105 C 
ENDBRANCH  12  15
ENDBRANCH   8  12
BRANCH   9  14
ATOM     14  C   UNL     1      -3.910 -10.896  17.048  0.00  0.00    +0.064 C 
BRANCH  14  16
ATOM      2  O   UNL     1      -1.229 -10.200  14.748  0.00  0.00    -0.356 OA
ATOM      7  N   UNL     1      -1.742 -10.342  16.031  0.00  0.00    -0.083 NA
ATOM     16  C   UNL     1      -3.028 -10.660  15.855  0.00  0.00    +0.084 A 
ATOM     21  C   UNL     1      -3.379 -10.734  14.496  0.00  0.00    +0.074 A 
ATOM     23  C   UNL     1      -2.213 -10.436  13.842  0.00  0.00    +0.175 A 
BRANCH  23  24
ATOM     24  C   UNL     1      -1.841 -10.328  12.427  0.00  0.00    +0.306 C 
BRANCH  24   3
ATOM      3  O   UNL     1      -2.560 -11.288  11.650  0.00  0.00    -0.484 OA
BRANCH   3  25
ATOM     25  C   UNL     1      -3.282 -10.802  10.596  0.00  0.00    +0.121 A 
ATOM     26  C   UNL     1      -3.996 -11.676   9.777  0.00  0.00    +0.045 A 
ATOM     27  C   UNL     1      -3.306  -9.431  10.340  0.00  0.00    +0.045 A 
ATOM     28  C   UNL     1      -4.733 -11.181   8.701  0.00  0.00    +0.004 A 
ATOM     29  C   UNL     1      -4.043  -8.935   9.266  0.00  0.00    +0.004 A 
ATOM     30  C   UNL     1      -4.756  -9.810   8.446  0.00  0.00    +0.000 A 
ENDBRANCH   3  25
ENDBRANCH  24   3
ENDBRANCH  23  24
ENDBRANCH  14  16
ENDBRANCH   9  14
TORSDOF 7
ENDMDL
MODEL 2
REMARK VINA RESULT:      -6.7      1.743      2.074
REMARK  Name = 26743177
REMARK  8 active torsions:
REMARK  status: ('A' for Active; 'I' for Inactive)
REMARK    1  A    between atoms: O_3  and  C_24
REMARK    2  A    between atoms: O_3  and  C_25
REMARK    3  A    between atoms: N_6  and  C_22
REMARK    4  A    between atoms: C_8  and  C_12
REMARK    5  A    between atoms: C_9  and  C_14
REMARK    6  A    between atoms: C_12  and  C_15
REMARK    7  A    between atoms: C_14  and  C_16
REMARK    8  A    between atoms: C_23  and  C_24
REMARK                            x       y       z     vdW  Elec       q    Type
REMARK                         _______ _______ _______ _____ _____    ______ ____
ROOT
ATOM      4  N   UNL     1      -6.383 -12.679  19.188  0.00  0.00    -0.316 NA
ATOM      8  C   UNL     1      -6.738 -11.225  16.645  0.00  0.00    +0.004 C 
ATOM      9  C   UNL     1      -5.362 -11.378  17.336  0.00  0.00    +0.012 C 
ATOM     10  C   UNL     1      -7.655 -12.376  17.092  0.00  0.00    +0.019 C 
ATOM     11  C   UNL     1      -5.506 -11.555  18.857  0.00  0.00    +0.085 C 
ATOM     13  C   UNL     1      -7.717 -12.516  18.612  0.00  0.00    +0.081 C 
ATOM     31  H   UNL     1      -6.462 -12.759  20.202  0.00  0.00    +0.122 HD
ENDROOT
BRANCH   8  12
ATOM     12  C   UNL     1      -7.409  -9.869  16.886  0.00  0.00    +0.100 C 
BRANCH  12  15
ATOM      1  O   UNL     1      -7.883  -9.779  14.565  0.00  0.00    -0.276 OA
ATOM      5  N   UNL     1      -9.479  -8.866  15.984  0.00  0.00    -0.299 N 
ATOM      6  N   UNL     1     -12.239  -8.292  16.495  0.00  0.00    -0.302 NA
ATOM     15  C   UNL     1      -8.271  -9.503  15.703  0.00  0.00    +0.216 C 
ATOM     17  C   UNL     1     -10.373  -8.485  14.891  0.00  0.00    +0.123 C 
ATOM     18  C   UNL     1      -9.907  -8.408  17.308  0.00  0.00    +0.123 C 
ATOM     19  C   UNL     1     -11.821  -8.858  15.204  0.00  0.00    +0.103 C 
ATOM     20  C   UNL     1     -11.367  -8.777  17.575  0.00  0.00    +0.103 C 
ATOM     22  C   UNL     1     -13.635  -8.624  16.773  0.00  0.00    +0.105 C 
ENDBRANCH  12  15
ENDBRANCH   8  12
BRANCH   9  14
ATOM     14  C   UNL     1      -4.401 -10.232  17.018  0.00  0.00    +0.064 C 
BRANCH  14  16
ATOM      2  O   UNL     1      -1.510 -11.213  15.110  0.00  0.00    -0.356 OA
ATOM      7  N   UNL     1      -2.142 -10.881  16.302  0.00  0.00    -0.083 NA
ATOM     16  C   UNL     1      -3.409 -10.627  15.962  0.00  0.00    +0.084 A 
ATOM     21  C   UNL     1      -3.633 -10.782  14.583  0.00  0.00    +0.074 A 
ATOM     23  C   UNL     1      -2.408 -11.150  14.093  0.00  0.00    +0.175 A 
BRANCH  23  24
ATOM     24  C   UNL     1      -1.905 -11.473  12.753  0.00  0.00    +0.306 C 
BRANCH  24   3
ATOM      3  O   UNL     1      -1.951 -10.317  11.913  0.00  0.00    -0.484 OA
BRANCH   3  25
ATOM     25  C   UNL     1      -2.864 -10.339  10.896  0.00  0.00    +0.121 A 
ATOM     26  C   UNL     1      -3.484 -11.536  10.541  0.00  0.00    +0.045 A 
ATOM     27  C   UNL     1      -3.176  -9.163  10.214  0.00  0.00    +0.045 A 
ATOM     28  C   UNL     1      -4.415 -11.559   9.502  0.00  0.00    +0.004 A 
ATOM     29  C   UNL     1      -4.108  -9.185   9.177  0.00  0.00    +0.004 A 
ATOM     30  C   UNL     1      -4.727 -10.383   8.821  0.00  0.00    +0.000 A 
ENDBRANCH   3  25
ENDBRANCH  24   3
ENDBRANCH  23  24
ENDBRANCH  14  16
ENDBRANCH   9  14
TORSDOF 7
ENDMDL
MODEL 3
REMARK VINA RESULT:      -6.6     19.375     22.182
REMARK  Name = 26743177
REMARK  8 active torsions:
REMARK  status: ('A' for Active; 'I' for Inactive)
REMARK    1  A    between atoms: O_3  and  C_24
REMARK    2  A    between atoms: O_3  and  C_25
REMARK    3  A    between atoms: N_6  and  C_22
REMARK    4  A    between atoms: C_8  and  C_12
REMARK    5  A    between atoms: C_9  and  C_14
REMARK    6  A    between atoms: C_12  and  C_15
REMARK    7  A    between atoms: C_14  and  C_16
REMARK    8  A    between atoms: C_23  and  C_24
REMARK                            x       y       z     vdW  Elec       q    Type
REMARK                         _______ _______ _______ _____ _____    ______ ____
ROOT
ATOM      4  N   UNL     1     -18.319   5.572  22.116  0.00  0.00    -0.316 NA
ATOM      8  C   UNL     1     -15.428   5.183  21.673  0.00  0.00    +0.004 C 
ATOM      9  C   UNL     1     -16.194   4.508  22.836  0.00  0.00    +0.012 C 
ATOM     10  C   UNL     1     -16.417   5.508  20.541  0.00  0.00    +0.019 C 
ATOM     11  C   UNL     1     -17.430   5.323  23.252  0.00  0.00    +0.085 C 
ATOM     13  C   UNL     1     -17.637   6.283  21.037  0.00  0.00    +0.081 C 
ATOM     31  H   UNL     1     -19.120   6.121  22.428  0.00  0.00    +0.122 HD
ENDROOT
BRANCH   8  12
ATOM     12  C   UNL     1     -14.644   6.434  22.087  0.00  0.00    +0.100 C 
BRANCH  12  15
ATOM      1  O   UNL     1     -12.471   5.496  21.976  0.00  0.00    -0.276 OA
ATOM      5  N   UNL     1     -12.893   7.300  20.576  0.00  0.00    -0.299 N 
ATOM      6  N   UNL     1     -12.365   8.632  18.095  0.00  0.00    -0.302 NA
ATOM     15  C   UNL     1     -13.237   6.362  21.548  0.00  0.00    +0.216 C 
ATOM     17  C   UNL     1     -11.549   7.292  20.000  0.00  0.00    +0.123 C 
ATOM     18  C   UNL     1     -13.734   8.420  20.143  0.00  0.00    +0.123 C 
ATOM     19  C   UNL     1     -11.597   7.440  18.480  0.00  0.00    +0.103 C 
ATOM     20  C   UNL     1     -13.737   8.551  18.619  0.00  0.00    +0.103 C 
ATOM     22  C   UNL     1     -12.380   8.786  16.641  0.00  0.00    +0.105 C 
ENDBRANCH  12  15
ENDBRANCH   8  12
BRANCH   9  14
ATOM     14  C   UNL     1     -15.309   4.218  24.048  0.00  0.00    +0.064 C 
BRANCH  14  16
ATOM      2  O   UNL     1     -16.832   1.272  25.449  0.00  0.00    -0.356 OA
ATOM      7  N   UNL     1     -16.349   2.016  24.380  0.00  0.00    -0.083 NA
ATOM     16  C   UNL     1     -15.911   3.156  24.923  0.00  0.00    +0.084 A 
ATOM     21  C   UNL     1     -16.089   3.186  26.317  0.00  0.00    +0.074 A 
ATOM     23  C   UNL     1     -16.672   1.979  26.597  0.00  0.00    +0.175 A 
BRANCH  23  24
ATOM     24  C   UNL     1     -17.133   1.335  27.833  0.00  0.00    +0.306 C 
BRANCH  24   3
ATOM      3  O   UNL     1     -16.085   0.547  28.402  0.00  0.00    -0.484 OA
BRANCH   3  25
ATOM     25  C   UNL     1     -15.698   0.873  29.672  0.00  0.00    +0.121 A 
ATOM     26  C   UNL     1     -15.818   2.187  30.122  0.00  0.00    +0.045 A 
ATOM     27  C   UNL     1     -15.184  -0.109  30.518  0.00  0.00    +0.045 A 
ATOM     28  C   UNL     1     -15.423   2.521  31.417  0.00  0.00    +0.004 A 
ATOM     29  C   UNL     1     -14.790   0.223  31.814  0.00  0.00    +0.004 A 
ATOM     30  C   UNL     1     -14.909   1.539  32.264  0.00  0.00    +0.000 A 
ENDBRANCH   3  25
ENDBRANCH  24   3
ENDBRANCH  23  24
ENDBRANCH  14  16
ENDBRANCH   9  14
TORSDOF 7
ENDMDL
MODEL 4
REMARK VINA RESULT:      -6.5     24.250     28.894
REMARK  Name = 26743177
REMARK  8 active torsions:
REMARK  status: ('A' for Active; 'I' for Inactive)
REMARK    1  A    between atoms: O_3  and  C_24
REMARK    2  A    between atoms: O_3  and  C_25
REMARK    3  A    between atoms: N_6  and  C_22
REMARK    4  A    between atoms: C_8  and  C_12
REMARK    5  A    between atoms: C_9  and  C_14
REMARK    6  A    between atoms: C_12  and  C_15
REMARK    7  A    between atoms: C_14  and  C_16
REMARK    8  A    between atoms: C_23  and  C_24
REMARK                            x       y       z     vdW  Elec       q    Type
REMARK                         _______ _______ _______ _____ _____    ______ ____
ROOT
ATOM      4  N   UNL     1      16.144   4.235   0.451  0.00  0.00    -0.316 NA
ATOM      8  C   UNL     1      13.371   4.455  -0.533  0.00  0.00    +0.004 C 
ATOM      9  C   UNL     1      13.717   4.312   0.968  0.00  0.00    +0.012 C 
ATOM     10  C   UNL     1      14.577   5.062  -1.271  0.00  0.00    +0.019 C 
ATOM     11  C   UNL     1      15.054   3.582   1.176  0.00  0.00    +0.085 C 
ATOM     13  C   UNL     1      15.875   4.308  -0.984  0.00  0.00    +0.081 C 
ATOM     31  H   UNL     1      17.010   3.718   0.605  0.00  0.00    +0.122 HD
ENDROOT
BRANCH   8  12
ATOM     12  C   UNL     1      12.927   3.148  -1.198  0.00  0.00    +0.100 C 
BRANCH  12  15
ATOM      1  O   UNL     1      10.599   3.588  -1.134  0.00  0.00    -0.276 OA
ATOM      5  N   UNL     1      11.522   3.195  -3.228  0.00  0.00    -0.299 N 
ATOM      6  N   UNL     1      11.466   3.702  -6.048  0.00  0.00    -0.302 NA
ATOM     15  C   UNL     1      11.575   3.330  -1.842  0.00  0.00    +0.216 C 
ATOM     17  C   UNL     1      10.248   3.362  -3.928  0.00  0.00    +0.123 C 
ATOM     18  C   UNL     1      12.632   2.760  -4.081  0.00  0.00    +0.123 C 
ATOM     19  C   UNL     1      10.411   4.233  -5.173  0.00  0.00    +0.103 C 
ATOM     20  C   UNL     1      12.747   3.638  -5.328  0.00  0.00    +0.103 C 
ATOM     22  C   UNL     1      11.594   4.520  -7.253  0.00  0.00    +0.105 C 
ENDBRANCH  12  15
ENDBRANCH   8  12
BRANCH   9  14
ATOM     14  C   UNL     1      12.607   3.641   1.778  0.00  0.00    +0.064 C 
BRANCH  14  16
ATOM      2  O   UNL     1      11.416   6.528   3.569  0.00  0.00    -0.356 OA
ATOM      7  N   UNL     1      12.339   5.878   2.759  0.00  0.00    -0.083 NA
ATOM     16  C   UNL     1      11.856   4.641   2.610  0.00  0.00    +0.084 A 
ATOM     21  C   UNL     1      10.643   4.455   3.295  0.00  0.00    +0.074 A 
ATOM     23  C   UNL     1      10.411   5.671   3.881  0.00  0.00    +0.175 A 
BRANCH  23  24
ATOM     24  C   UNL     1       9.342   6.198   4.737  0.00  0.00    +0.306 C 
BRANCH  24   3
ATOM      3  O   UNL     1       9.892   6.756   5.933  0.00  0.00    -0.484 OA
BRANCH   3  25
ATOM     25  C   UNL     1       9.681   6.055   7.087  0.00  0.00    +0.121 A 
ATOM     26  C   UNL     1      10.042   4.710   7.161  0.00  0.00    +0.045 A 
ATOM     27  C   UNL     1       9.104   6.684   8.189  0.00  0.00    +0.045 A 
ATOM     28  C   UNL     1       9.826   3.994   8.339  0.00  0.00    +0.004 A 
ATOM     29  C   UNL     1       8.889   5.969   9.367  0.00  0.00    +0.004 A 
ATOM     30  C   UNL     1       9.249   4.623   9.442  0.00  0.00    +0.000 A 
ENDBRANCH   3  25
ENDBRANCH  24   3
ENDBRANCH  23  24
ENDBRANCH  14  16
ENDBRANCH   9  14
TORSDOF 7
ENDMDL
MODEL 5
REMARK VINA RESULT:      -6.4      3.880      8.457
REMARK  Name = 26743177
REMARK  8 active torsions:
REMARK  status: ('A' for Active; 'I' for Inactive)
REMARK    1  A    between atoms: O_3  and  C_24
REMARK    2  A    between atoms: O_3  and  C_25
REMARK    3  A    between atoms: N_6  and  C_22
REMARK    4  A    between atoms: C_8  and  C_12
REMARK    5  A    between atoms: C_9  and  C_14
REMARK    6  A    between atoms: C_12  and  C_15
REMARK    7  A    between atoms: C_14  and  C_16
REMARK    8  A    between atoms: C_23  and  C_24
REMARK                            x       y       z     vdW  Elec       q    Type
REMARK                         _______ _______ _______ _____ _____    ______ ____
ROOT
ATOM      4  N   UNL     1      -9.080 -11.837  19.252  0.00  0.00    -0.316 NA
ATOM      8  C   UNL     1      -6.393 -10.814  18.591  0.00  0.00    +0.004 C 
ATOM      9  C   UNL     1      -7.692 -10.126  18.108  0.00  0.00    +0.012 C 
ATOM     10  C   UNL     1      -6.696 -11.623  19.863  0.00  0.00    +0.019 C 
ATOM     11  C   UNL     1      -8.856 -11.124  17.993  0.00  0.00    +0.085 C 
ATOM     13  C   UNL     1      -7.888 -12.563  19.686  0.00  0.00    +0.081 C 
ATOM     31  H   UNL     1      -9.851 -12.495  19.135  0.00  0.00    +0.122 HD
ENDROOT
BRANCH   8  12
ATOM     12  C   UNL     1      -5.724 -11.695  17.530  0.00  0.00    +0.100 C 
BRANCH  12  15
ATOM      1  O   UNL     1      -3.560 -11.630  18.495  0.00  0.00    -0.276 OA
ATOM      5  N   UNL     1      -3.731 -10.930  16.288  0.00  0.00    -0.299 N 
ATOM      6  N   UNL     1      -2.509 -10.689  13.708  0.00  0.00    -0.302 NA
ATOM     15  C   UNL     1      -4.242 -11.417  17.489  0.00  0.00    +0.216 C 
ATOM     17  C   UNL     1      -2.303 -10.640  16.167  0.00  0.00    +0.123 C 
ATOM     18  C   UNL     1      -4.531 -10.542  15.122  0.00  0.00    +0.123 C 
ATOM     19  C   UNL     1      -1.736 -11.184  14.856  0.00  0.00    +0.103 C 
ATOM     20  C   UNL     1      -3.920 -11.083  13.829  0.00  0.00    +0.103 C 
ATOM     22  C   UNL     1      -1.942 -11.185  12.455  0.00  0.00    +0.105 C 
ENDBRANCH  12  15
ENDBRANCH   8  12
BRANCH   9  14
ATOM     14  C   UNL     1      -7.513  -9.358  16.798  0.00  0.00    +0.064 C 
BRANCH  14  16
ATOM      2  O   UNL     1     -10.478  -8.455  14.967  0.00  0.00    -0.356 OA
ATOM      7  N   UNL     1      -9.273  -9.134  15.098  0.00  0.00    -0.083 NA
ATOM     16  C   UNL     1      -8.817  -8.798  16.309  0.00  0.00    +0.084 A 
ATOM     21  C   UNL     1      -9.685  -7.920  16.981  0.00  0.00    +0.074 A 
ATOM     23  C   UNL     1     -10.713  -7.735  16.095  0.00  0.00    +0.175 A 
BRANCH  23  24
ATOM     24  C   UNL     1     -11.953  -6.952  16.127  0.00  0.00    +0.306 C 
BRANCH  24   3
ATOM      3  O   UNL     1     -12.725  -7.196  14.948  0.00  0.00    -0.484 OA
BRANCH   3  25
ATOM     25  C   UNL     1     -13.116  -6.096  14.237  0.00  0.00    +0.121 A 
ATOM     26  C   UNL     1     -14.472  -5.845  14.030  0.00  0.00    +0.045 A 
ATOM     27  C   UNL     1     -12.159  -5.224  13.720  0.00  0.00    +0.045 A 
ATOM     28  C   UNL     1     -14.871  -4.723  13.305  0.00  0.00    +0.004 A 
ATOM     29  C   UNL     1     -12.557  -4.101  12.996  0.00  0.00    +0.004 A 
ATOM     30  C   UNL     1     -13.914  -3.851  12.787  0.00  0.00    +0.000 A 
ENDBRANCH   3  25
ENDBRANCH  24   3
ENDBRANCH  23  24
ENDBRANCH  14  16
ENDBRANCH   9  14
TORSDOF 7
ENDMDL
MODEL 6
REMARK VINA RESULT:      -6.4     22.758     26.927
REMARK  Name = 26743177
REMARK  8 active torsions:
REMARK  status: ('A' for Active; 'I' for Inactive)
REMARK    1  A    between atoms: O_3  and  C_24
REMARK    2  A    between atoms: O_3  and  C_25
REMARK    3  A    between atoms: N_6  and  C_22
REMARK    4  A    between atoms: C_8  and  C_12
REMARK    5  A    between atoms: C_9  and  C_14
REMARK    6  A    between atoms: C_12  and  C_15
REMARK    7  A    between atoms: C_14  and  C_16
REMARK    8  A    between atoms: C_23  and  C_24
REMARK                            x       y       z     vdW  Elec       q    Type
REMARK                         _______ _______ _______ _____ _____    ______ ____
ROOT
ATOM      4  N   UNL     1     -13.304   9.598  30.522  0.00  0.00    -0.316 NA
ATOM      8  C   UNL     1     -12.251   8.402  33.006  0.00  0.00    +0.004 C 
ATOM      9  C   UNL     1     -13.636   8.034  32.422  0.00  0.00    +0.012 C 
ATOM     10  C   UNL     1     -11.350   8.919  31.872  0.00  0.00    +0.019 C 
ATOM     11  C   UNL     1     -14.222   9.181  31.583  0.00  0.00    +0.085 C 
ATOM     13  C   UNL     1     -12.014  10.029  31.058  0.00  0.00    +0.081 C 
ATOM     31  H   UNL     1     -13.723  10.364  29.995  0.00  0.00    +0.122 HD
ENDROOT
BRANCH   8  12
ATOM     12  C   UNL     1     -12.309   9.411  34.159  0.00  0.00    +0.100 C 
BRANCH  12  15
ATOM      1  O   UNL     1     -12.125   7.898  35.975  0.00  0.00    -0.276 OA
ATOM      5  N   UNL     1     -10.410   9.446  35.737  0.00  0.00    -0.299 N 
ATOM      6  N   UNL     1      -7.636  10.078  36.076  0.00  0.00    -0.302 NA
ATOM     15  C   UNL     1     -11.613   8.846  35.373  0.00  0.00    +0.216 C 
ATOM     17  C   UNL     1      -9.672   8.953  36.900  0.00  0.00    +0.123 C 
ATOM     18  C   UNL     1      -9.844  10.653  35.126  0.00  0.00    +0.123 C 
ATOM     19  C   UNL     1      -8.182   8.814  36.592  0.00  0.00    +0.103 C 
ATOM     20  C   UNL     1      -8.348  10.486  34.857  0.00  0.00    +0.103 C 
ATOM     22  C   UNL     1      -6.203   9.950  35.816  0.00  0.00    +0.105 C 
ENDBRANCH  12  15
ENDBRANCH   8  12
BRANCH   9  14
ATOM     14  C   UNL     1     -14.635   7.583  33.488  0.00  0.00    +0.064 C 
BRANCH  14  16
ATOM      2  O   UNL     1     -14.191   4.321  34.945  0.00  0.00    -0.356 OA
ATOM      7  N   UNL     1     -14.253   5.707  35.028  0.00  0.00    -0.083 NA
ATOM     16  C   UNL     1     -14.499   6.116  33.780  0.00  0.00    +0.084 A 
ATOM     21  C   UNL     1     -14.603   5.045  32.877  0.00  0.00    +0.074 A 
ATOM     23  C   UNL     1     -14.401   3.939  33.659  0.00  0.00    +0.175 A 
BRANCH  23  24
ATOM     24  C   UNL     1     -14.369   2.496  33.391  0.00  0.00    +0.306 C 
BRANCH  24   3
ATOM      3  O   UNL     1     -13.675   2.234  32.168  0.00  0.00    -0.484 OA
BRANCH   3  25
ATOM     25  C   UNL     1     -14.445   1.894  31.091  0.00  0.00    +0.121 A 
ATOM     26  C   UNL     1     -14.593   2.787  30.031  0.00  0.00    +0.045 A 
ATOM     27  C   UNL     1     -15.082   0.654  31.052  0.00  0.00    +0.045 A 
ATOM     28  C   UNL     1     -15.379   2.441  28.931  0.00  0.00    +0.004 A 
ATOM     29  C   UNL     1     -15.866   0.307  29.953  0.00  0.00    +0.004 A 
ATOM     30  C   UNL     1     -16.015   1.201  28.892  0.00  0.00    +0.000 A 
ENDBRANCH   3  25
ENDBRANCH  24   3
ENDBRANCH  23  24
ENDBRANCH  14  16
ENDBRANCH   9  14
TORSDOF 7
ENDMDL
MODEL 7
REMARK VINA RESULT:      -6.2     19.560     21.075
REMARK  Name = 26743177
REMARK  8 active torsions:
REMARK  status: ('A' for Active; 'I' for Inactive)
REMARK    1  A    between atoms: O_3  and  C_24
REMARK    2  A    between atoms: O_3  and  C_25
REMARK    3  A    between atoms: N_6  and  C_22
REMARK    4  A    between atoms: C_8  and  C_12
REMARK    5  A    between atoms: C_9  and  C_14
REMARK    6  A    between atoms: C_12  and  C_15
REMARK    7  A    between atoms: C_14  and  C_16
REMARK    8  A    between atoms: C_23  and  C_24
REMARK                            x       y       z     vdW  Elec       q    Type
REMARK                         _______ _______ _______ _____ _____    ______ ____
ROOT
ATOM      4  N   UNL     1     -18.532   6.293  26.067  0.00  0.00    -0.316 NA
ATOM      8  C   UNL     1     -16.771   4.149  27.073  0.00  0.00    +0.004 C 
ATOM      9  C   UNL     1     -16.726   4.652  25.610  0.00  0.00    +0.012 C 
ATOM     10  C   UNL     1     -17.338   5.264  27.969  0.00  0.00    +0.019 C 
ATOM     11  C   UNL     1     -18.078   5.233  25.166  0.00  0.00    +0.085 C 
ATOM     13  C   UNL     1     -18.661   5.819  27.444  0.00  0.00    +0.081 C 
ATOM     31  H   UNL     1     -19.433   6.647  25.746  0.00  0.00    +0.122 HD
ENDROOT
BRANCH   8  12
ATOM     12  C   UNL     1     -17.557   2.847  27.260  0.00  0.00    +0.100 C 
BRANCH  12  15
ATOM      1  O   UNL     1     -16.297   0.907  26.745  0.00  0.00    -0.276 OA
ATOM      5  N   UNL     1     -16.155   1.685  28.928  0.00  0.00    -0.299 N 
ATOM      6  N   UNL     1     -14.593   1.979  31.312  0.00  0.00    -0.302 NA
ATOM     15  C   UNL     1     -16.615   1.723  27.614  0.00  0.00    +0.216 C 
ATOM     17  C   UNL     1     -15.235   0.629  29.348  0.00  0.00    +0.123 C 
ATOM     18  C   UNL     1     -16.615   2.557  30.013  0.00  0.00    +0.123 C 
ATOM     19  C   UNL     1     -14.083   1.195  30.177  0.00  0.00    +0.103 C 
ATOM     20  C   UNL     1     -15.438   3.084  30.835  0.00  0.00    +0.103 C 
ATOM     22  C   UNL     1     -13.487   2.491  32.121  0.00  0.00    +0.105 C 
ENDBRANCH  12  15
ENDBRANCH   8  12
BRANCH   9  14
ATOM     14  C   UNL     1     -16.250   3.584  24.624  0.00  0.00    +0.064 C 
BRANCH  14  16
ATOM      2  O   UNL     1     -15.004   4.787  21.468  0.00  0.00    -0.356 OA
ATOM      7  N   UNL     1     -15.956   4.145  22.250  0.00  0.00    -0.083 NA
ATOM     16  C   UNL     1     -15.470   4.192  23.494  0.00  0.00    +0.084 A 
ATOM     21  C   UNL     1     -14.228   4.847  23.557  0.00  0.00    +0.074 A 
ATOM     23  C   UNL     1     -13.980   5.201  22.258  0.00  0.00    +0.175 A 
BRANCH  23  24
ATOM     24  C   UNL     1     -12.879   5.905  21.589  0.00  0.00    +0.306 C 
BRANCH  24   3
ATOM      3  O   UNL     1     -13.357   7.106  20.977  0.00  0.00    -0.484 OA
BRANCH   3  25
ATOM     25  C   UNL     1     -12.449   7.820  20.246  0.00  0.00    +0.121 A 
ATOM     26  C   UNL     1     -11.914   7.279  19.077  0.00  0.00    +0.045 A 
ATOM     27  C   UNL     1     -12.058   9.090  20.669  0.00  0.00    +0.045 A 
ATOM     28  C   UNL     1     -10.988   8.007  18.331  0.00  0.00    +0.004 A 
ATOM     29  C   UNL     1     -11.133   9.819  19.923  0.00  0.00    +0.004 A 
ATOM     30  C   UNL     1     -10.597   9.278  18.754  0.00  0.00    +0.000 A 
ENDBRANCH   3  25
ENDBRANCH  24   3
ENDBRANCH  23  24
ENDBRANCH  14  16
ENDBRANCH   9  14
TORSDOF 7
ENDMDL
MODEL 8
REMARK VINA RESULT:      -6.1     20.848     24.767
REMARK  Name = 26743177
REMARK  8 active torsions:
REMARK  status: ('A' for Active; 'I' for Inactive)
REMARK    1  A    between atoms: O_3  and  C_24
REMARK    2  A    between atoms: O_3  and  C_25
REMARK    3  A    between atoms: N_6  and  C_22
REMARK    4  A    between atoms: C_8  and  C_12
REMARK    5  A    between atoms: C_9  and  C_14
REMARK    6  A    between atoms: C_12  and  C_15
REMARK    7  A    between atoms: C_14  and  C_16
REMARK    8  A    between atoms: C_23  and  C_24
REMARK                            x       y       z     vdW  Elec       q    Type
REMARK                         _______ _______ _______ _____ _____    ______ ____
ROOT
ATOM      4  N   UNL     1     -14.610   3.226  34.366  0.00  0.00    -0.316 NA
ATOM      8  C   UNL     1     -15.000   4.451  31.709  0.00  0.00    +0.004 C 
ATOM      9  C   UNL     1     -14.605   5.273  32.960  0.00  0.00    +0.012 C 
ATOM     10  C   UNL     1     -14.556   2.992  31.907  0.00  0.00    +0.019 C 
ATOM     11  C   UNL     1     -15.091   4.604  34.256  0.00  0.00    +0.085 C 
ATOM     13  C   UNL     1     -15.041   2.408  33.234  0.00  0.00    +0.081 C 
ATOM     31  H   UNL     1     -14.959   2.814  35.231  0.00  0.00    +0.122 HD
ENDROOT
BRANCH   8  12
ATOM     12  C   UNL     1     -16.491   4.525  31.361  0.00  0.00    +0.100 C 
BRANCH  12  15
ATOM      1  O   UNL     1     -16.425   6.154  29.641  0.00  0.00    -0.276 OA
ATOM      5  N   UNL     1     -17.090   4.018  29.020  0.00  0.00    -0.299 N 
ATOM      6  N   UNL     1     -17.192   1.992  26.997  0.00  0.00    -0.302 NA
ATOM     15  C   UNL     1     -16.664   4.980  29.933  0.00  0.00    +0.216 C 
ATOM     17  C   UNL     1     -17.277   4.380  27.615  0.00  0.00    +0.123 C 
ATOM     18  C   UNL     1     -17.508   2.654  29.357  0.00  0.00    +0.123 C 
ATOM     19  C   UNL     1     -16.668   3.330  26.687  0.00  0.00    +0.103 C 
ATOM     20  C   UNL     1     -16.900   1.635  28.393  0.00  0.00    +0.103 C 
ATOM     22  C   UNL     1     -16.632   0.996  26.084  0.00  0.00    +0.105 C 
ENDBRANCH  12  15
ENDBRANCH   8  12
BRANCH   9  14
ATOM     14  C   UNL     1     -15.076   6.726  32.896  0.00  0.00    +0.064 C 
BRANCH  14  16
ATOM      2  O   UNL     1     -11.984   8.354  32.029  0.00  0.00    -0.356 OA
ATOM      7  N   UNL     1     -12.709   7.329  32.624  0.00  0.00    -0.083 NA
ATOM     16  C   UNL     1     -13.990   7.631  32.390  0.00  0.00    +0.084 A 
ATOM     21  C   UNL     1     -14.132   8.823  31.657  0.00  0.00    +0.074 A 
ATOM     23  C   UNL     1     -12.842   9.237  31.456  0.00  0.00    +0.175 A 
BRANCH  23  24
ATOM     24  C   UNL     1     -12.240  10.390  30.777  0.00  0.00    +0.306 C 
BRANCH  24   3
ATOM      3  O   UNL     1     -13.022  10.761  29.639  0.00  0.00    -0.484 OA
BRANCH   3  25
ATOM     25  C   UNL     1     -12.395  10.713  28.426  0.00  0.00    +0.121 A 
ATOM     26  C   UNL     1     -12.944  11.377  27.330  0.00  0.00    +0.045 A 
ATOM     27  C   UNL     1     -11.204  10.001  28.285  0.00  0.00    +0.045 A 
ATOM     28  C   UNL     1     -12.304  11.328  26.092  0.00  0.00    +0.004 A 
ATOM     29  C   UNL     1     -10.563   9.953  27.047  0.00  0.00    +0.004 A 
ATOM     30  C   UNL     1     -11.114  10.616  25.950  0.00  0.00    +0.000 A 
ENDBRANCH   3  25
ENDBRANCH  24   3
ENDBRANCH  23  24
ENDBRANCH  14  16
ENDBRANCH   9  14
TORSDOF 7
ENDMDL
MODEL 9
REMARK VINA RESULT:      -6.1      5.475      8.918
REMARK  Name = 26743177
REMARK  8 active torsions:
REMARK  status: ('A' for Active; 'I' for Inactive)
REMARK    1  A    between atoms: O_3  and  C_24
REMARK    2  A    between atoms: O_3  and  C_25
REMARK    3  A    between atoms: N_6  and  C_22
REMARK    4  A    between atoms: C_8  and  C_12
REMARK    5  A    between atoms: C_9  and  C_14
REMARK    6  A    between atoms: C_12  and  C_15
REMARK    7  A    between atoms: C_14  and  C_16
REMARK    8  A    between atoms: C_23  and  C_24
REMARK                            x       y       z     vdW  Elec       q    Type
REMARK                         _______ _______ _______ _____ _____    ______ ____
ROOT
ATOM      4  N   UNL     1     -13.082 -10.326  18.276  0.00  0.00    -0.316 NA
ATOM      8  C   UNL     1     -10.217  -9.810  18.760  0.00  0.00    +0.004 C 
ATOM      9  C   UNL     1     -11.044  -9.021  17.717  0.00  0.00    +0.012 C 
ATOM     10  C   UNL     1     -11.165 -10.370  19.834  0.00  0.00    +0.019 C 
ATOM     11  C   UNL     1     -12.228  -9.847  17.188  0.00  0.00    +0.085 C 
ATOM     13  C   UNL     1     -12.337 -11.144  19.232  0.00  0.00    +0.081 C 
ATOM     31  H   UNL     1     -13.848 -10.876  17.887  0.00  0.00    +0.122 HD
ENDROOT
BRANCH   8  12
ATOM     12  C   UNL     1      -9.357 -10.926  18.157  0.00  0.00    +0.100 C 
BRANCH  12  15
ATOM      1  O   UNL     1      -8.088 -11.607  20.040  0.00  0.00    -0.276 OA
ATOM      5  N   UNL     1      -6.922 -10.550  18.332  0.00  0.00    -0.299 N 
ATOM      6  N   UNL     1      -4.471 -10.252  16.878  0.00  0.00    -0.302 NA
ATOM     15  C   UNL     1      -8.070 -11.061  18.934  0.00  0.00    +0.216 C 
ATOM     17  C   UNL     1      -5.634 -10.647  19.019  0.00  0.00    +0.123 C 
ATOM     18  C   UNL     1      -6.889  -9.781  17.084  0.00  0.00    +0.123 C 
ATOM     19  C   UNL     1      -4.533 -11.114  18.068  0.00  0.00    +0.103 C 
ATOM     20  C   UNL     1      -5.760 -10.259  16.171  0.00  0.00    +0.103 C 
ATOM     22  C   UNL     1      -3.394 -10.683  15.988  0.00  0.00    +0.105 C 
ENDBRANCH  12  15
ENDBRANCH   8  12
BRANCH   9  14
ATOM     14  C   UNL     1     -10.199  -8.490  16.559  0.00  0.00    +0.064 C 
BRANCH  14  16
ATOM      2  O   UNL     1     -11.844  -5.582  15.219  0.00  0.00    -0.356 OA
ATOM      7  N   UNL     1     -11.109  -6.236  16.200  0.00  0.00    -0.083 NA
ATOM     16  C   UNL     1     -10.959  -7.483  15.744  0.00  0.00    +0.084 A 
ATOM     21  C   UNL     1     -11.570  -7.672  14.492  0.00  0.00    +0.074 A 
ATOM     23  C   UNL     1     -12.112  -6.447  14.207  0.00  0.00    +0.175 A 
BRANCH  23  24
ATOM     24  C   UNL     1     -12.886  -5.916  13.079  0.00  0.00    +0.306 C 
BRANCH  24   3
ATOM      3  O   UNL     1     -12.874  -4.486  13.097  0.00  0.00    -0.484 OA
BRANCH   3  25
ATOM     25  C   UNL     1     -13.557  -3.858  12.094  0.00  0.00    +0.121 A 
ATOM     26  C   UNL     1     -14.761  -3.210  12.369  0.00  0.00    +0.045 A 
ATOM     27  C   UNL     1     -13.049  -3.863  10.795  0.00  0.00    +0.045 A 
ATOM     28  C   UNL     1     -15.459  -2.569  11.346  0.00  0.00    +0.004 A 
ATOM     29  C   UNL     1     -13.746  -3.221   9.772  0.00  0.00    +0.004 A 
ATOM     30  C   UNL     1     -14.951  -2.575  10.047  0.00  0.00    +0.000 A 
ENDBRANCH   3  25
ENDBRANCH  24   3
ENDBRANCH  23  24
ENDBRANCH  14  16
ENDBRANCH   9  14
TORSDOF 7
ENDMDL
MODEL 10
REMARK VINA RESULT:      -6.1      5.677      8.849
REMARK  Name = 26743177
REMARK  8 active torsions:
REMARK  status: ('A' for Active; 'I' for Inactive)
REMARK    1  A    between atoms: O_3  and  C_24
REMARK    2  A    between atoms: O_3  and  C_25
REMARK    3  A    between atoms: N_6  and  C_22
REMARK    4  A    between atoms: C_8  and  C_12
REMARK    5  A    between atoms: C_9  and  C_14
REMARK    6  A    between atoms: C_12  and  C_15
REMARK    7  A    between atoms: C_14  and  C_16
REMARK    8  A    between atoms: C_23  and  C_24
REMARK                            x       y       z     vdW  Elec       q    Type
REMARK                         _______ _______ _______ _____ _____    ______ ____
ROOT
ATOM      4  N   UNL     1      -9.858 -10.353  14.118  0.00  0.00    -0.316 NA
ATOM      8  C   UNL     1      -9.536  -9.722  16.983  0.00  0.00    +0.004 C 
ATOM      9  C   UNL     1     -10.472  -8.917  16.048  0.00  0.00    +0.012 C 
ATOM     10  C   UNL     1      -9.344 -11.134  16.404  0.00  0.00    +0.019 C 
ATOM     11  C   UNL     1     -10.000  -8.973  14.586  0.00  0.00    +0.085 C 
ATOM     13  C   UNL     1      -8.915 -11.111  14.938  0.00  0.00    +0.081 C 
ATOM     31  H   UNL     1      -9.535 -10.350  13.150  0.00  0.00    +0.122 HD
ENDROOT
BRANCH   8  12
ATOM     12  C   UNL     1      -8.184  -9.049  17.240  0.00  0.00    +0.100 C 
BRANCH  12  15
ATOM      1  O   UNL     1      -7.620 -10.467  19.054  0.00  0.00    -0.276 OA
ATOM      5  N   UNL     1      -6.054 -10.295  17.348  0.00  0.00    -0.299 N 
ATOM      6  N   UNL     1      -3.965 -11.533  15.827  0.00  0.00    -0.302 NA
ATOM     15  C   UNL     1      -7.266 -10.000  17.968  0.00  0.00    +0.216 C 
ATOM     17  C   UNL     1      -5.112 -11.213  17.988  0.00  0.00    +0.123 C 
ATOM     18  C   UNL     1      -5.548  -9.658  16.128  0.00  0.00    +0.123 C 
ATOM     19  C   UNL     1      -4.552 -12.221  16.986  0.00  0.00    +0.103 C 
ATOM     20  C   UNL     1      -4.973 -10.694  15.162  0.00  0.00    +0.103 C 
ATOM     22  C   UNL     1      -3.401 -12.500  14.887  0.00  0.00    +0.105 C 
ENDBRANCH  12  15
ENDBRANCH   8  12
BRANCH   9  14
ATOM     14  C   UNL     1     -10.662  -7.467  16.496  0.00  0.00    +0.064 C 
BRANCH  14  16
ATOM      2  O   UNL     1     -13.821  -6.455  15.097  0.00  0.00    -0.356 OA
ATOM      7  N   UNL     1     -13.038  -7.275  15.901  0.00  0.00    -0.083 NA
ATOM     16  C   UNL     1     -11.793  -6.811  15.757  0.00  0.00    +0.084 A 
ATOM     21  C   UNL     1     -11.730  -5.711  14.885  0.00  0.00    +0.074 A 
ATOM     23  C   UNL     1     -13.031  -5.527  14.497  0.00  0.00    +0.175 A 
BRANCH  23  24
ATOM     24  C   UNL     1     -13.701  -4.573  13.607  0.00  0.00    +0.306 C 
BRANCH  24   3
ATOM      3  O   UNL     1     -12.738  -3.730  12.968  0.00  0.00    -0.484 OA
BRANCH   3  25
ATOM     25  C   UNL     1     -12.865  -3.575  11.616  0.00  0.00    +0.121 A 
ATOM     26  C   UNL     1     -14.112  -3.287  11.061  0.00  0.00    +0.045 A 
ATOM     27  C   UNL     1     -11.748  -3.705  10.791  0.00  0.00    +0.045 A 
ATOM     28  C   UNL     1     -14.242  -3.130   9.681  0.00  0.00    +0.004 A 
ATOM     29  C   UNL     1     -11.878  -3.546   9.412  0.00  0.00    +0.004 A 
ATOM     30  C   UNL     1     -13.125  -3.259   8.857  0.00  0.00    +0.000 A 
ENDBRANCH   3  25
ENDBRANCH  24   3
ENDBRANCH  23  24
ENDBRANCH  14  16
ENDBRANCH   9  14
TORSDOF 7
ENDMDL
