MODEL 1
REMARK VINA RESULT:      -6.8      0.000      0.000
REMARK  Name = 28962806
REMARK  12 active torsions:
REMARK  status: ('A' for Active; 'I' for Inactive)
REMARK    1  A    between atoms: O_2  and  C_10
REMARK    2  A    between atoms: N_5  and  C_14
REMARK    3  A    between atoms: N_6  and  C_24
REMARK    4  A    between atoms: N_6  and  C_25
REMARK    5  A    between atoms: C_7  and  C_17
REMARK    6  A    between atoms: C_9  and  C_19
REMARK    7  A    between atoms: C_12  and  C_18
REMARK    8  A    between atoms: C_18  and  C_20
REMARK    9  A    between atoms: C_18  and  C_21
REMARK   10  A    between atoms: C_22  and  C_23
REMARK   11  A    between atoms: C_24  and  C_26
REMARK   12  A    between atoms: C_25  and  C_27
REMARK                            x       y       z     vdW  Elec       q    Type
REMARK                         _______ _______ _______ _____ _____    ______ ____
ROOT
ATOM      7  C   UNL     1      -4.806 -11.210  17.149  0.00  0.00    -0.027 C 
ATOM      8  C   UNL     1      -5.598 -10.535  15.980  0.00  0.00    +0.028 C 
ATOM      9  C   UNL     1      -7.146 -10.610  16.236  0.00  0.00    +0.012 C 
ATOM     10  C   UNL     1      -5.124 -11.066  14.596  0.00  0.00    +0.122 C 
ATOM     11  C   UNL     1      -3.288 -11.020  16.921  0.00  0.00    +0.007 C 
ATOM     12  C   UNL     1      -3.591 -10.969  14.415  0.00  0.00    +0.029 C 
ATOM     13  C   UNL     1      -5.174 -10.510  18.477  0.00  0.00    +0.009 C 
ATOM     14  C   UNL     1      -7.495  -9.970  17.610  0.00  0.00    +0.076 C 
ATOM     15  C   UNL     1      -2.813 -11.574  15.584  0.00  0.00    +0.007 C 
ATOM     16  C   UNL     1      -6.668 -10.527  18.768  0.00  0.00    +0.023 C 
ATOM     17  C   UNL     1      -5.105 -12.726  17.271  0.00  0.00    +0.011 C 
ATOM     19  C   UNL     1      -7.986  -9.937  15.138  0.00  0.00    +0.010 C 
ENDROOT
BRANCH  14   5
ATOM      4  O   UNL     1      -9.511  -7.927  17.519  0.00  0.00    -0.270 OA
ATOM      5  N   UNL     1      -8.898 -10.124  17.933  0.00  0.00    -0.308 N 
ATOM     22  C   UNL     1      -9.795  -9.072  17.857  0.00  0.00    +0.244 C 
ATOM     33  H   UNL     1      -9.182 -11.014  18.330  0.00  0.00    +0.149 HD
BRANCH  22  23
ATOM      1  F   UNL     1     -13.031 -10.771  21.066  0.00  0.00    -0.205 F 
ATOM     23  C   UNL     1     -11.193  -9.388  18.247  0.00  0.00    +0.039 A 
ATOM     28  C   UNL     1     -11.461  -9.943  19.499  0.00  0.00    +0.051 A 
ATOM     29  C   UNL     1     -12.239  -9.132  17.360  0.00  0.00    +0.013 A 
ATOM     30  C   UNL     1     -12.774 -10.240  19.864  0.00  0.00    +0.124 A 
ATOM     31  C   UNL     1     -13.552  -9.429  17.726  0.00  0.00    +0.004 A 
ATOM     32  C   UNL     1     -13.820  -9.982  18.978  0.00  0.00    +0.038 A 
ENDBRANCH  22  23
ENDBRANCH  14   5
BRANCH  10   2
ATOM      2  O   UNL     1      -5.709 -10.280  13.557  0.00  0.00    -0.391 OA
ATOM     34  H   UNL     1      -6.198  -9.548  13.971  0.00  0.00    +0.210 HD
ENDBRANCH  10   2
BRANCH  12  18
ATOM     18  C   UNL     1      -3.131 -11.617  13.104  0.00  0.00    +0.078 C 
ATOM     20  C   UNL     1      -2.007 -12.613  13.393  0.00  0.00    +0.017 C 
BRANCH  18  21
ATOM      3  O   UNL     1      -1.697  -9.826  12.418  0.00  0.00    -0.275 OA
ATOM      6  N   UNL     1      -3.387 -10.377  10.936  0.00  0.00    -0.302 N 
ATOM     21  C   UNL     1      -2.667 -10.534  12.126  0.00  0.00    +0.219 C 
BRANCH   6  24
ATOM     24  C   UNL     1      -2.984  -9.339   9.992  0.00  0.00    +0.104 C 
ATOM     26  C   UNL     1      -4.168  -8.820   9.202  0.00  0.00    +0.024 C 
ENDBRANCH   6  24
BRANCH   6  25
ATOM     25  C   UNL     1      -4.520 -11.191  10.501  0.00  0.00    +0.104 C 
ATOM     27  C   UNL     1      -4.062 -12.411   9.729  0.00  0.00    +0.024 C 
ENDBRANCH   6  25
ENDBRANCH  18  21
ENDBRANCH  12  18
TORSDOF 7
ENDMDL
MODEL 2
REMARK VINA RESULT:      -6.5     18.680     19.894
REMARK  Name = 28962806
REMARK  12 active torsions:
REMARK  status: ('A' for Active; 'I' for Inactive)
REMARK    1  A    between atoms: O_2  and  C_10
REMARK    2  A    between atoms: N_5  and  C_14
REMARK    3  A    between atoms: N_6  and  C_24
REMARK    4  A    between atoms: N_6  and  C_25
REMARK    5  A    between atoms: C_7  and  C_17
REMARK    6  A    between atoms: C_9  and  C_19
REMARK    7  A    between atoms: C_12  and  C_18
REMARK    8  A    between atoms: C_18  and  C_20
REMARK    9  A    between atoms: C_18  and  C_21
REMARK   10  A    between atoms: C_22  and  C_23
REMARK   11  A    between atoms: C_24  and  C_26
REMARK   12  A    between atoms: C_25  and  C_27
REMARK                            x       y       z     vdW  Elec       q    Type
REMARK                         _______ _______ _______ _____ _____    ______ ____
ROOT
ATOM      7  C   UNL     1     -16.776   6.007  20.988  0.00  0.00    -0.027 C 
ATOM      8  C   UNL     1     -15.282   5.776  21.393  0.00  0.00    +0.028 C 
ATOM      9  C   UNL     1     -15.170   5.357  22.903  0.00  0.00    +0.012 C 
ATOM     10  C   UNL     1     -14.389   6.976  20.965  0.00  0.00    +0.122 C 
ATOM     11  C   UNL     1     -16.860   6.306  19.473  0.00  0.00    +0.007 C 
ATOM     12  C   UNL     1     -14.556   7.337  19.470  0.00  0.00    +0.029 C 
ATOM     13  C   UNL     1     -17.577   4.711  21.257  0.00  0.00    +0.009 C 
ATOM     14  C   UNL     1     -16.040   4.097  23.177  0.00  0.00    +0.076 C 
ATOM     15  C   UNL     1     -16.018   7.504  19.056  0.00  0.00    +0.007 C 
ATOM     16  C   UNL     1     -17.484   4.241  22.702  0.00  0.00    +0.023 C 
ATOM     17  C   UNL     1     -17.427   7.179  21.764  0.00  0.00    +0.011 C 
ATOM     19  C   UNL     1     -13.727   5.085  23.361  0.00  0.00    +0.010 C 
ENDROOT
BRANCH  14   5
ATOM      4  O   UNL     1     -16.734   1.552  24.311  0.00  0.00    -0.270 OA
ATOM      5  N   UNL     1     -16.052   3.751  24.583  0.00  0.00    -0.308 N 
ATOM     22  C   UNL     1     -16.404   2.490  25.032  0.00  0.00    +0.244 C 
ATOM     33  H   UNL     1     -15.903   4.508  25.243  0.00  0.00    +0.149 HD
BRANCH  22  23
ATOM      1  F   UNL     1     -15.504   4.142  29.517  0.00  0.00    -0.205 F 
ATOM     23  C   UNL     1     -16.393   2.303  26.506  0.00  0.00    +0.039 A 
ATOM     28  C   UNL     1     -15.945   3.330  27.337  0.00  0.00    +0.051 A 
ATOM     29  C   UNL     1     -16.829   1.099  27.060  0.00  0.00    +0.013 A 
ATOM     30  C   UNL     1     -15.934   3.155  28.720  0.00  0.00    +0.124 A 
ATOM     31  C   UNL     1     -16.818   0.924  28.444  0.00  0.00    +0.004 A 
ATOM     32  C   UNL     1     -16.372   1.952  29.274  0.00  0.00    +0.038 A 
ENDBRANCH  22  23
ENDBRANCH  14   5
BRANCH  10   2
ATOM      2  O   UNL     1     -13.014   6.639  21.152  0.00  0.00    -0.391 OA
ATOM     34  H   UNL     1     -12.959   5.984  21.869  0.00  0.00    +0.210 HD
ENDBRANCH  10   2
BRANCH  12  18
ATOM     18  C   UNL     1     -13.770   8.601  19.100  0.00  0.00    +0.078 C 
ATOM     20  C   UNL     1     -14.747   9.739  18.800  0.00  0.00    +0.017 C 
BRANCH  18  21
ATOM      3  O   UNL     1     -13.385   8.024  16.808  0.00  0.00    -0.275 OA
ATOM      6  N   UNL     1     -11.486   8.382  18.082  0.00  0.00    -0.302 N 
ATOM     21  C   UNL     1     -12.871   8.317  17.893  0.00  0.00    +0.219 C 
BRANCH   6  24
ATOM     24  C   UNL     1     -10.600   8.096  16.959  0.00  0.00    +0.104 C 
ATOM     26  C   UNL     1     -10.430   9.307  16.065  0.00  0.00    +0.024 C 
ENDBRANCH   6  24
BRANCH   6  25
ATOM     25  C   UNL     1     -10.802   8.753  19.319  0.00  0.00    +0.104 C 
ATOM     27  C   UNL     1     -10.632  10.254  19.430  0.00  0.00    +0.024 C 
ENDBRANCH   6  25
ENDBRANCH  18  21
ENDBRANCH  12  18
TORSDOF 7
ENDMDL
MODEL 3
REMARK VINA RESULT:      -6.2     18.833     21.942
REMARK  Name = 28962806
REMARK  12 active torsions:
REMARK  status: ('A' for Active; 'I' for Inactive)
REMARK    1  A    between atoms: O_2  and  C_10
REMARK    2  A    between atoms: N_5  and  C_14
REMARK    3  A    between atoms: N_6  and  C_24
REMARK    4  A    between atoms: N_6  and  C_25
REMARK    5  A    between atoms: C_7  and  C_17
REMARK    6  A    between atoms: C_9  and  C_19
REMARK    7  A    between atoms: C_12  and  C_18
REMARK    8  A    between atoms: C_18  and  C_20
REMARK    9  A    between atoms: C_18  and  C_21
REMARK   10  A    between atoms: C_22  and  C_23
REMARK   11  A    between atoms: C_24  and  C_26
REMARK   12  A    between atoms: C_25  and  C_27
REMARK                            x       y       z     vdW  Elec       q    Type
REMARK                         _______ _______ _______ _____ _____    ______ ____
ROOT
ATOM      7  C   UNL     1     -16.813   6.383  23.068  0.00  0.00    -0.027 C 
ATOM      8  C   UNL     1     -15.461   5.678  23.420  0.00  0.00    +0.028 C 
ATOM      9  C   UNL     1     -14.403   5.897  22.280  0.00  0.00    +0.012 C 
ATOM     10  C   UNL     1     -15.689   4.199  23.845  0.00  0.00    +0.122 C 
ATOM     11  C   UNL     1     -17.792   6.244  24.258  0.00  0.00    +0.007 C 
ATOM     12  C   UNL     1     -16.747   4.059  24.965  0.00  0.00    +0.029 C 
ATOM     13  C   UNL     1     -16.553   7.891  22.845  0.00  0.00    +0.009 C 
ATOM     14  C   UNL     1     -14.205   7.416  22.013  0.00  0.00    +0.076 C 
ATOM     15  C   UNL     1     -18.048   4.796  24.652  0.00  0.00    +0.007 C 
ATOM     16  C   UNL     1     -15.514   8.165  21.767  0.00  0.00    +0.023 C 
ATOM     17  C   UNL     1     -17.480   5.788  21.802  0.00  0.00    +0.011 C 
ATOM     19  C   UNL     1     -13.037   5.254  22.574  0.00  0.00    +0.010 C 
ENDROOT
BRANCH  14   5
ATOM      4  O   UNL     1     -12.379   9.609  21.698  0.00  0.00    -0.270 OA
ATOM      5  N   UNL     1     -13.324   7.653  20.889  0.00  0.00    -0.308 N 
ATOM     22  C   UNL     1     -12.475   8.745  20.830  0.00  0.00    +0.244 C 
ATOM     33  H   UNL     1     -13.433   7.044  20.084  0.00  0.00    +0.149 HD
BRANCH  22  23
ATOM      1  F   UNL     1      -9.577  11.300  17.876  0.00  0.00    -0.205 F 
ATOM     23  C   UNL     1     -11.655   8.859  19.598  0.00  0.00    +0.039 A 
ATOM     28  C   UNL     1     -10.988  10.050  19.310  0.00  0.00    +0.051 A 
ATOM     29  C   UNL     1     -11.552   7.775  18.726  0.00  0.00    +0.013 A 
ATOM     30  C   UNL     1     -10.218  10.157  18.152  0.00  0.00    +0.124 A 
ATOM     31  C   UNL     1     -10.781   7.882  17.568  0.00  0.00    +0.004 A 
ATOM     32  C   UNL     1     -10.114   9.072  17.281  0.00  0.00    +0.038 A 
ENDBRANCH  22  23
ENDBRANCH  14   5
BRANCH  10   2
ATOM      2  O   UNL     1     -14.473   3.658  24.362  0.00  0.00    -0.391 OA
ATOM     34  H   UNL     1     -14.197   2.927  23.783  0.00  0.00    +0.210 HD
ENDBRANCH  10   2
BRANCH  12  18
ATOM     18  C   UNL     1     -17.052   2.588  25.277  0.00  0.00    +0.078 C 
ATOM     20  C   UNL     1     -17.756   1.948  24.079  0.00  0.00    +0.017 C 
BRANCH  18  21
ATOM      3  O   UNL     1     -19.120   2.224  26.429  0.00  0.00    -0.275 OA
ATOM      6  N   UNL     1     -17.306   2.747  27.769  0.00  0.00    -0.302 N 
ATOM     21  C   UNL     1     -17.919   2.495  26.536  0.00  0.00    +0.219 C 
BRANCH   6  24
ATOM     24  C   UNL     1     -18.108   2.688  28.987  0.00  0.00    +0.104 C 
ATOM     26  C   UNL     1     -18.562   4.067  29.418  0.00  0.00    +0.024 C 
ENDBRANCH   6  24
BRANCH   6  25
ATOM     25  C   UNL     1     -15.890   3.038  27.984  0.00  0.00    +0.104 C 
ATOM     27  C   UNL     1     -15.326   2.230  29.133  0.00  0.00    +0.024 C 
ENDBRANCH   6  25
ENDBRANCH  18  21
ENDBRANCH  12  18
TORSDOF 7
ENDMDL
MODEL 4
REMARK VINA RESULT:      -6.2      4.270      9.102
REMARK  Name = 28962806
REMARK  12 active torsions:
REMARK  status: ('A' for Active; 'I' for Inactive)
REMARK    1  A    between atoms: O_2  and  C_10
REMARK    2  A    between atoms: N_5  and  C_14
REMARK    3  A    between atoms: N_6  and  C_24
REMARK    4  A    between atoms: N_6  and  C_25
REMARK    5  A    between atoms: C_7  and  C_17
REMARK    6  A    between atoms: C_9  and  C_19
REMARK    7  A    between atoms: C_12  and  C_18
REMARK    8  A    between atoms: C_18  and  C_20
REMARK    9  A    between atoms: C_18  and  C_21
REMARK   10  A    between atoms: C_22  and  C_23
REMARK   11  A    between atoms: C_24  and  C_26
REMARK   12  A    between atoms: C_25  and  C_27
REMARK                            x       y       z     vdW  Elec       q    Type
REMARK                         _______ _______ _______ _____ _____    ______ ____
ROOT
ATOM      7  C   UNL     1      -3.544 -11.190  11.240  0.00  0.00    -0.027 C 
ATOM      8  C   UNL     1      -4.976 -10.859  11.780  0.00  0.00    +0.028 C 
ATOM      9  C   UNL     1      -5.765  -9.962  10.760  0.00  0.00    +0.012 C 
ATOM     10  C   UNL     1      -4.918 -10.321  13.239  0.00  0.00    +0.122 C 
ATOM     11  C   UNL     1      -2.839 -12.164  12.212  0.00  0.00    +0.007 C 
ATOM     12  C   UNL     1      -4.121 -11.249  14.184  0.00  0.00    +0.029 C 
ATOM     13  C   UNL     1      -3.674 -11.900   9.872  0.00  0.00    +0.009 C 
ATOM     14  C   UNL     1      -5.822 -10.653   9.368  0.00  0.00    +0.076 C 
ATOM     15  C   UNL     1      -2.745 -11.624  13.633  0.00  0.00    +0.007 C 
ATOM     16  C   UNL     1      -4.453 -11.087   8.849  0.00  0.00    +0.023 C 
ATOM     17  C   UNL     1      -2.665  -9.925  11.077  0.00  0.00    +0.011 C 
ATOM     19  C   UNL     1      -7.194  -9.622  11.216  0.00  0.00    +0.010 C 
ENDROOT
BRANCH  14   5
ATOM      4  O   UNL     1      -7.380 -11.506   7.112  0.00  0.00    -0.270 OA
ATOM      5  N   UNL     1      -6.441  -9.802   8.374  0.00  0.00    -0.308 N 
ATOM     22  C   UNL     1      -7.177 -10.312   7.317  0.00  0.00    +0.244 C 
ATOM     33  H   UNL     1      -6.219  -8.812   8.414  0.00  0.00    +0.149 HD
BRANCH  22  23
ATOM      1  F   UNL     1     -10.001  -6.472   6.354  0.00  0.00    -0.205 F 
ATOM     23  C   UNL     1      -7.724  -9.309   6.368  0.00  0.00    +0.039 A 
ATOM     28  C   UNL     1      -8.624  -8.342   6.815  0.00  0.00    +0.051 A 
ATOM     29  C   UNL     1      -7.338  -9.335   5.027  0.00  0.00    +0.013 A 
ATOM     30  C   UNL     1      -9.138  -7.401   5.925  0.00  0.00    +0.124 A 
ATOM     31  C   UNL     1      -7.852  -8.393   4.136  0.00  0.00    +0.004 A 
ATOM     32  C   UNL     1      -8.751  -7.426   4.584  0.00  0.00    +0.038 A 
ENDBRANCH  22  23
ENDBRANCH  14   5
BRANCH  10   2
ATOM      2  O   UNL     1      -6.241 -10.236  13.769  0.00  0.00    -0.391 OA
ATOM     34  H   UNL     1      -6.187  -9.835  14.653  0.00  0.00    +0.210 HD
ENDBRANCH  10   2
BRANCH  12  18
ATOM     18  C   UNL     1      -3.964 -10.638  15.582  0.00  0.00    +0.078 C 
ATOM     20  C   UNL     1      -2.481 -10.581  15.950  0.00  0.00    +0.017 C 
BRANCH  18  21
ATOM      3  O   UNL     1      -4.409 -12.631  16.832  0.00  0.00    -0.275 OA
ATOM      6  N   UNL     1      -5.854 -10.864  17.219  0.00  0.00    -0.302 N 
ATOM     21  C   UNL     1      -4.751 -11.466  16.601  0.00  0.00    +0.219 C 
BRANCH   6  24
ATOM     24  C   UNL     1      -6.639 -11.633  18.179  0.00  0.00    +0.104 C 
ATOM     26  C   UNL     1      -6.209 -11.345  19.603  0.00  0.00    +0.024 C 
ENDBRANCH   6  24
BRANCH   6  25
ATOM     25  C   UNL     1      -6.302  -9.486  17.027  0.00  0.00    +0.104 C 
ATOM     27  C   UNL     1      -7.806  -9.409  16.871  0.00  0.00    +0.024 C 
ENDBRANCH   6  25
ENDBRANCH  18  21
ENDBRANCH  12  18
TORSDOF 7
ENDMDL
MODEL 5
REMARK VINA RESULT:      -5.9      5.197      9.442
REMARK  Name = 28962806
REMARK  12 active torsions:
REMARK  status: ('A' for Active; 'I' for Inactive)
REMARK    1  A    between atoms: O_2  and  C_10
REMARK    2  A    between atoms: N_5  and  C_14
REMARK    3  A    between atoms: N_6  and  C_24
REMARK    4  A    between atoms: N_6  and  C_25
REMARK    5  A    between atoms: C_7  and  C_17
REMARK    6  A    between atoms: C_9  and  C_19
REMARK    7  A    between atoms: C_12  and  C_18
REMARK    8  A    between atoms: C_18  and  C_20
REMARK    9  A    between atoms: C_18  and  C_21
REMARK   10  A    between atoms: C_22  and  C_23
REMARK   11  A    between atoms: C_24  and  C_26
REMARK   12  A    between atoms: C_25  and  C_27
REMARK                            x       y       z     vdW  Elec       q    Type
REMARK                         _______ _______ _______ _____ _____    ______ ____
ROOT
ATOM      7  C   UNL     1     -12.125  -9.198  13.388  0.00  0.00    -0.027 C 
ATOM      8  C   UNL     1     -11.576  -7.939  14.138  0.00  0.00    +0.028 C 
ATOM      9  C   UNL     1     -10.688  -8.361  15.364  0.00  0.00    +0.012 C 
ATOM     10  C   UNL     1     -12.716  -6.930  14.457  0.00  0.00    +0.122 C 
ATOM     11  C   UNL     1     -12.898  -8.750  12.126  0.00  0.00    +0.007 C 
ATOM     12  C   UNL     1     -13.552  -6.565  13.207  0.00  0.00    +0.029 C 
ATOM     13  C   UNL     1     -10.933 -10.068  12.925  0.00  0.00    +0.009 C 
ATOM     14  C   UNL     1      -9.537  -9.298  14.897  0.00  0.00    +0.076 C 
ATOM     15  C   UNL     1     -14.040  -7.792  12.437  0.00  0.00    +0.007 C 
ATOM     16  C   UNL     1     -10.020 -10.487  14.069  0.00  0.00    +0.023 C 
ATOM     17  C   UNL     1     -13.067 -10.052  14.273  0.00  0.00    +0.011 C 
ATOM     19  C   UNL     1     -10.090  -7.170  16.131  0.00  0.00    +0.010 C 
ENDROOT
BRANCH  14   5
ATOM      4  O   UNL     1      -6.726  -9.883  14.920  0.00  0.00    -0.270 OA
ATOM      5  N   UNL     1      -8.768  -9.800  16.016  0.00  0.00    -0.308 N 
ATOM     22  C   UNL     1      -7.409 -10.052  15.927  0.00  0.00    +0.244 C 
ATOM     33  H   UNL     1      -9.287 -10.072  16.844  0.00  0.00    +0.149 HD
BRANCH  22  23
ATOM      1  F   UNL     1      -7.694 -12.340  20.209  0.00  0.00    -0.205 F 
ATOM     23  C   UNL     1      -6.771 -10.590  17.155  0.00  0.00    +0.039 A 
ATOM     28  C   UNL     1      -7.547 -11.225  18.125  0.00  0.00    +0.051 A 
ATOM     29  C   UNL     1      -5.394 -10.459  17.341  0.00  0.00    +0.013 A 
ATOM     30  C   UNL     1      -6.949 -11.730  19.279  0.00  0.00    +0.124 A 
ATOM     31  C   UNL     1      -4.795 -10.964  18.495  0.00  0.00    +0.004 A 
ATOM     32  C   UNL     1      -5.572 -11.600  19.463  0.00  0.00    +0.038 A 
ENDBRANCH  22  23
ENDBRANCH  14   5
BRANCH  10   2
ATOM      2  O   UNL     1     -12.153  -5.710  14.941  0.00  0.00    -0.391 OA
ATOM     34  H   UNL     1     -12.510  -5.545  15.830  0.00  0.00    +0.210 HD
ENDBRANCH  10   2
BRANCH  12  18
ATOM     18  C   UNL     1     -14.749  -5.675  13.565  0.00  0.00    +0.078 C 
ATOM     20  C   UNL     1     -15.804  -6.507  14.296  0.00  0.00    +0.017 C 
BRANCH  18  21
ATOM      3  O   UNL     1     -16.393  -5.479  11.835  0.00  0.00    -0.275 OA
ATOM      6  N   UNL     1     -14.603  -4.019  11.684  0.00  0.00    -0.302 N 
ATOM     21  C   UNL     1     -15.328  -5.050  12.293  0.00  0.00    +0.219 C 
BRANCH   6  24
ATOM     24  C   UNL     1     -15.116  -3.417  10.458  0.00  0.00    +0.104 C 
ATOM     26  C   UNL     1     -15.838  -2.115  10.740  0.00  0.00    +0.024 C 
ENDBRANCH   6  24
BRANCH   6  25
ATOM     25  C   UNL     1     -13.359  -3.433  12.178  0.00  0.00    +0.104 C 
ATOM     27  C   UNL     1     -12.221  -3.642  11.202  0.00  0.00    +0.024 C 
ENDBRANCH   6  25
ENDBRANCH  18  21
ENDBRANCH  12  18
TORSDOF 7
ENDMDL
MODEL 6
REMARK VINA RESULT:      -5.9      4.232     10.734
REMARK  Name = 28962806
REMARK  12 active torsions:
REMARK  status: ('A' for Active; 'I' for Inactive)
REMARK    1  A    between atoms: O_2  and  C_10
REMARK    2  A    between atoms: N_5  and  C_14
REMARK    3  A    between atoms: N_6  and  C_24
REMARK    4  A    between atoms: N_6  and  C_25
REMARK    5  A    between atoms: C_7  and  C_17
REMARK    6  A    between atoms: C_9  and  C_19
REMARK    7  A    between atoms: C_12  and  C_18
REMARK    8  A    between atoms: C_18  and  C_20
REMARK    9  A    between atoms: C_18  and  C_21
REMARK   10  A    between atoms: C_22  and  C_23
REMARK   11  A    between atoms: C_24  and  C_26
REMARK   12  A    between atoms: C_25  and  C_27
REMARK                            x       y       z     vdW  Elec       q    Type
REMARK                         _______ _______ _______ _____ _____    ______ ____
ROOT
ATOM      7  C   UNL     1     -10.525 -10.199  17.961  0.00  0.00    -0.027 C 
ATOM      8  C   UNL     1      -9.709 -11.195  18.852  0.00  0.00    +0.028 C 
ATOM      9  C   UNL     1      -8.414 -11.679  18.108  0.00  0.00    +0.012 C 
ATOM     10  C   UNL     1     -10.619 -12.325  19.414  0.00  0.00    +0.122 C 
ATOM     11  C   UNL     1     -11.729  -9.656  18.765  0.00  0.00    +0.007 C 
ATOM     12  C   UNL     1     -11.877 -11.776  20.127  0.00  0.00    +0.029 C 
ATOM     13  C   UNL     1      -9.623  -8.997  17.594  0.00  0.00    +0.009 C 
ATOM     14  C   UNL     1      -7.552 -10.458  17.676  0.00  0.00    +0.076 C 
ATOM     15  C   UNL     1     -12.644 -10.757  19.283  0.00  0.00    +0.007 C 
ATOM     16  C   UNL     1      -8.337  -9.409  16.891  0.00  0.00    +0.023 C 
ATOM     17  C   UNL     1     -11.050 -10.860  16.662  0.00  0.00    +0.011 C 
ATOM     19  C   UNL     1      -7.547 -12.640  18.940  0.00  0.00    +0.010 C 
ENDROOT
BRANCH  14   5
ATOM      4  O   UNL     1      -4.807 -10.482  18.519  0.00  0.00    -0.270 OA
ATOM      5  N   UNL     1      -6.409 -10.862  16.886  0.00  0.00    -0.308 N 
ATOM     22  C   UNL     1      -5.118 -10.838  17.385  0.00  0.00    +0.244 C 
ATOM     33  H   UNL     1      -6.576 -11.057  15.903  0.00  0.00    +0.149 HD
BRANCH  22  23
ATOM      1  F   UNL     1      -0.612 -10.417  15.602  0.00  0.00    -0.205 F 
ATOM     23  C   UNL     1      -4.052 -11.257  16.438  0.00  0.00    +0.039 A 
ATOM     28  C   UNL     1      -2.807 -10.628  16.465  0.00  0.00    +0.051 A 
ATOM     29  C   UNL     1      -4.297 -12.279  15.521  0.00  0.00    +0.013 A 
ATOM     30  C   UNL     1      -1.807 -11.021  15.576  0.00  0.00    +0.124 A 
ATOM     31  C   UNL     1      -3.296 -12.673  14.632  0.00  0.00    +0.004 A 
ATOM     32  C   UNL     1      -2.052 -12.044  14.660  0.00  0.00    +0.038 A 
ENDBRANCH  22  23
ENDBRANCH  14   5
BRANCH  10   2
ATOM      2  O   UNL     1      -9.896 -13.081  20.386  0.00  0.00    -0.391 OA
ATOM     34  H   UNL     1      -9.241 -13.626  19.918  0.00  0.00    +0.210 HD
ENDBRANCH  10   2
BRANCH  12  18
ATOM     18  C   UNL     1     -12.824 -12.903  20.556  0.00  0.00    +0.078 C 
ATOM     20  C   UNL     1     -13.981 -13.005  19.560  0.00  0.00    +0.017 C 
BRANCH  18  21
ATOM      3  O   UNL     1     -13.997 -11.611  22.196  0.00  0.00    -0.275 OA
ATOM      6  N   UNL     1     -13.025 -13.564  22.969  0.00  0.00    -0.302 N 
ATOM     21  C   UNL     1     -13.341 -12.634  21.972  0.00  0.00    +0.219 C 
BRANCH   6  24
ATOM     24  C   UNL     1     -13.483 -13.327  24.334  0.00  0.00    +0.104 C 
ATOM     26  C   UNL     1     -14.372 -14.452  24.823  0.00  0.00    +0.024 C 
ENDBRANCH   6  24
BRANCH   6  25
ATOM     25  C   UNL     1     -12.288 -14.812  22.781  0.00  0.00    +0.104 C 
ATOM     27  C   UNL     1     -10.910 -14.741  23.404  0.00  0.00    +0.024 C 
ENDBRANCH   6  25
ENDBRANCH  18  21
ENDBRANCH  12  18
TORSDOF 7
ENDMDL
MODEL 7
REMARK VINA RESULT:      -5.8     19.080     21.840
REMARK  Name = 28962806
REMARK  12 active torsions:
REMARK  status: ('A' for Active; 'I' for Inactive)
REMARK    1  A    between atoms: O_2  and  C_10
REMARK    2  A    between atoms: N_5  and  C_14
REMARK    3  A    between atoms: N_6  and  C_24
REMARK    4  A    between atoms: N_6  and  C_25
REMARK    5  A    between atoms: C_7  and  C_17
REMARK    6  A    between atoms: C_9  and  C_19
REMARK    7  A    between atoms: C_12  and  C_18
REMARK    8  A    between atoms: C_18  and  C_20
REMARK    9  A    between atoms: C_18  and  C_21
REMARK   10  A    between atoms: C_22  and  C_23
REMARK   11  A    between atoms: C_24  and  C_26
REMARK   12  A    between atoms: C_25  and  C_27
REMARK                            x       y       z     vdW  Elec       q    Type
REMARK                         _______ _______ _______ _____ _____    ______ ____
ROOT
ATOM      7  C   UNL     1     -11.714   7.938  19.128  0.00  0.00    -0.027 C 
ATOM      8  C   UNL     1     -13.137   7.886  18.477  0.00  0.00    +0.028 C 
ATOM      9  C   UNL     1     -13.229   8.871  17.257  0.00  0.00    +0.012 C 
ATOM     10  C   UNL     1     -14.254   8.043  19.548  0.00  0.00    +0.122 C 
ATOM     11  C   UNL     1     -11.622   6.878  20.251  0.00  0.00    +0.007 C 
ATOM     12  C   UNL     1     -14.096   7.048  20.722  0.00  0.00    +0.029 C 
ATOM     13  C   UNL     1     -10.657   7.582  18.057  0.00  0.00    +0.009 C 
ATOM     14  C   UNL     1     -12.113   8.552  16.222  0.00  0.00    +0.076 C 
ATOM     15  C   UNL     1     -12.690   7.052  21.322  0.00  0.00    +0.007 C 
ATOM     16  C   UNL     1     -10.715   8.489  16.836  0.00  0.00    +0.023 C 
ATOM     17  C   UNL     1     -11.386   9.328  19.728  0.00  0.00    +0.011 C 
ATOM     19  C   UNL     1     -14.595   8.849  16.550  0.00  0.00    +0.010 C 
ENDROOT
BRANCH  14   5
ATOM      4  O   UNL     1     -11.895   7.973  13.418  0.00  0.00    -0.270 OA
ATOM      5  N   UNL     1     -12.095   9.513  15.140  0.00  0.00    -0.308 N 
ATOM     22  C   UNL     1     -11.986   9.132  13.813  0.00  0.00    +0.244 C 
ATOM     33  H   UNL     1     -12.050  10.494  15.398  0.00  0.00    +0.149 HD
BRANCH  22  23
ATOM      1  F   UNL     1     -11.910  10.728   9.219  0.00  0.00    -0.205 F 
ATOM     23  C   UNL     1     -11.955  10.241  12.824  0.00  0.00    +0.039 A 
ATOM     28  C   UNL     1     -11.947   9.959  11.459  0.00  0.00    +0.051 A 
ATOM     29  C   UNL     1     -11.934  11.565  13.262  0.00  0.00    +0.013 A 
ATOM     30  C   UNL     1     -11.917  10.999  10.531  0.00  0.00    +0.124 A 
ATOM     31  C   UNL     1     -11.904  12.606  12.334  0.00  0.00    +0.004 A 
ATOM     32  C   UNL     1     -11.897  12.323  10.969  0.00  0.00    +0.038 A 
ENDBRANCH  22  23
ENDBRANCH  14   5
BRANCH  10   2
ATOM      2  O   UNL     1     -15.525   7.776  18.955  0.00  0.00    -0.391 OA
ATOM     34  H   UNL     1     -16.215   8.030  19.592  0.00  0.00    +0.210 HD
ENDBRANCH  10   2
BRANCH  12  18
ATOM     18  C   UNL     1     -15.126   7.306  21.828  0.00  0.00    +0.078 C 
ATOM     20  C   UNL     1     -14.568   8.331  22.817  0.00  0.00    +0.017 C 
BRANCH  18  21
ATOM      3  O   UNL     1     -14.737   5.583  23.445  0.00  0.00    -0.275 OA
ATOM      6  N   UNL     1     -16.596   5.289  22.098  0.00  0.00    -0.302 N 
ATOM     21  C   UNL     1     -15.467   5.991  22.535  0.00  0.00    +0.219 C 
BRANCH   6  24
ATOM     24  C   UNL     1     -16.937   4.021  22.736  0.00  0.00    +0.104 C 
ATOM     26  C   UNL     1     -18.178   4.149  23.595  0.00  0.00    +0.024 C 
ENDBRANCH   6  24
BRANCH   6  25
ATOM     25  C   UNL     1     -17.527   5.718  21.057  0.00  0.00    +0.104 C 
ATOM     27  C   UNL     1     -17.387   4.875  19.806  0.00  0.00    +0.024 C 
ENDBRANCH   6  25
ENDBRANCH  18  21
ENDBRANCH  12  18
TORSDOF 7
ENDMDL
MODEL 8
REMARK VINA RESULT:      -5.7     19.480     23.633
REMARK  Name = 28962806
REMARK  12 active torsions:
REMARK  status: ('A' for Active; 'I' for Inactive)
REMARK    1  A    between atoms: O_2  and  C_10
REMARK    2  A    between atoms: N_5  and  C_14
REMARK    3  A    between atoms: N_6  and  C_24
REMARK    4  A    between atoms: N_6  and  C_25
REMARK    5  A    between atoms: C_7  and  C_17
REMARK    6  A    between atoms: C_9  and  C_19
REMARK    7  A    between atoms: C_12  and  C_18
REMARK    8  A    between atoms: C_18  and  C_20
REMARK    9  A    between atoms: C_18  and  C_21
REMARK   10  A    between atoms: C_22  and  C_23
REMARK   11  A    between atoms: C_24  and  C_26
REMARK   12  A    between atoms: C_25  and  C_27
REMARK                            x       y       z     vdW  Elec       q    Type
REMARK                         _______ _______ _______ _____ _____    ______ ____
ROOT
ATOM      7  C   UNL     1      -7.285 -10.861  38.770  0.00  0.00    -0.027 C 
ATOM      8  C   UNL     1      -8.596 -10.024  38.602  0.00  0.00    +0.028 C 
ATOM      9  C   UNL     1      -9.377 -10.461  37.310  0.00  0.00    +0.012 C 
ATOM     10  C   UNL     1      -8.312  -8.499  38.727  0.00  0.00    +0.122 C 
ATOM     11  C   UNL     1      -6.601 -10.486  40.105  0.00  0.00    +0.007 C 
ATOM     12  C   UNL     1      -7.535  -8.143  40.016  0.00  0.00    +0.029 C 
ATOM     13  C   UNL     1      -7.651 -12.363  38.833  0.00  0.00    +0.009 C 
ATOM     14  C   UNL     1      -9.673 -11.987  37.351  0.00  0.00    +0.076 C 
ATOM     15  C   UNL     1      -6.285  -9.001  40.215  0.00  0.00    +0.007 C 
ATOM     16  C   UNL     1      -8.433 -12.839  37.618  0.00  0.00    +0.023 C 
ATOM     17  C   UNL     1      -6.280 -10.630  37.613  0.00  0.00    +0.011 C 
ATOM     19  C   UNL     1     -10.695  -9.696  37.099  0.00  0.00    +0.010 C 
ENDROOT
BRANCH  14   5
ATOM      4  O   UNL     1     -12.250 -13.226  37.085  0.00  0.00    -0.270 OA
ATOM      5  N   UNL     1     -10.289 -12.446  36.124  0.00  0.00    -0.308 N 
ATOM     22  C   UNL     1     -11.542 -13.034  36.100  0.00  0.00    +0.244 C 
ATOM     33  H   UNL     1      -9.715 -12.425  35.287  0.00  0.00    +0.149 HD
BRANCH  22  23
ATOM      1  F   UNL     1     -14.638 -12.675  32.365  0.00  0.00    -0.205 F 
ATOM     23  C   UNL     1     -12.022 -13.475  34.765  0.00  0.00    +0.039 A 
ATOM     28  C   UNL     1     -13.127 -12.856  34.180  0.00  0.00    +0.051 A 
ATOM     29  C   UNL     1     -11.369 -14.510  34.096  0.00  0.00    +0.013 A 
ATOM     30  C   UNL     1     -13.578 -13.270  32.927  0.00  0.00    +0.124 A 
ATOM     31  C   UNL     1     -11.819 -14.925  32.843  0.00  0.00    +0.004 A 
ATOM     32  C   UNL     1     -12.923 -14.305  32.258  0.00  0.00    +0.038 A 
ENDBRANCH  22  23
ENDBRANCH  14   5
BRANCH  10   2
ATOM      2  O   UNL     1      -9.548  -7.786  38.785  0.00  0.00    -0.391 OA
ATOM     34  H   UNL     1      -9.379  -6.867  38.517  0.00  0.00    +0.210 HD
ENDBRANCH  10   2
BRANCH  12  18
ATOM     18  C   UNL     1      -7.151  -6.659  40.056  0.00  0.00    +0.078 C 
ATOM     20  C   UNL     1      -5.627  -6.527  40.092  0.00  0.00    +0.017 C 
BRANCH  18  21
ATOM      3  O   UNL     1      -7.597  -6.470  42.401  0.00  0.00    -0.275 OA
ATOM      6  N   UNL     1      -8.590  -4.865  41.061  0.00  0.00    -0.302 N 
ATOM     21  C   UNL     1      -7.789  -5.992  41.278  0.00  0.00    +0.219 C 
BRANCH   6  24
ATOM     24  C   UNL     1      -9.230  -4.218  42.202  0.00  0.00    +0.104 C 
ATOM     26  C   UNL     1      -8.612  -2.865  42.491  0.00  0.00    +0.024 C 
ENDBRANCH   6  24
BRANCH   6  25
ATOM     25  C   UNL     1      -8.837  -4.218  39.774  0.00  0.00    +0.104 C 
ATOM     27  C   UNL     1     -10.316  -4.172  39.452  0.00  0.00    +0.024 C 
ENDBRANCH   6  25
ENDBRANCH  18  21
ENDBRANCH  12  18
TORSDOF 7
ENDMDL
MODEL 9
REMARK VINA RESULT:      -5.6      4.466      6.642
REMARK  Name = 28962806
REMARK  12 active torsions:
REMARK  status: ('A' for Active; 'I' for Inactive)
REMARK    1  A    between atoms: O_2  and  C_10
REMARK    2  A    between atoms: N_5  and  C_14
REMARK    3  A    between atoms: N_6  and  C_24
REMARK    4  A    between atoms: N_6  and  C_25
REMARK    5  A    between atoms: C_7  and  C_17
REMARK    6  A    between atoms: C_9  and  C_19
REMARK    7  A    between atoms: C_12  and  C_18
REMARK    8  A    between atoms: C_18  and  C_20
REMARK    9  A    between atoms: C_18  and  C_21
REMARK   10  A    between atoms: C_22  and  C_23
REMARK   11  A    between atoms: C_24  and  C_26
REMARK   12  A    between atoms: C_25  and  C_27
REMARK                            x       y       z     vdW  Elec       q    Type
REMARK                         _______ _______ _______ _____ _____    ______ ____
ROOT
ATOM      7  C   UNL     1     -10.084 -10.921  15.265  0.00  0.00    -0.027 C 
ATOM      8  C   UNL     1      -9.863  -9.678  16.190  0.00  0.00    +0.028 C 
ATOM      9  C   UNL     1     -10.259  -8.351  15.447  0.00  0.00    +0.012 C 
ATOM     10  C   UNL     1      -8.442  -9.691  16.823  0.00  0.00    +0.122 C 
ATOM     11  C   UNL     1      -9.794 -12.215  16.063  0.00  0.00    +0.007 C 
ATOM     12  C   UNL     1      -8.119 -11.028  17.530  0.00  0.00    +0.029 C 
ATOM     13  C   UNL     1     -11.566 -10.963  14.823  0.00  0.00    +0.009 C 
ATOM     14  C   UNL     1     -11.727  -8.436  14.941  0.00  0.00    +0.076 C 
ATOM     15  C   UNL     1      -8.390 -12.248  16.651  0.00  0.00    +0.007 C 
ATOM     16  C   UNL     1     -12.015  -9.691  14.119  0.00  0.00    +0.023 C 
ATOM     17  C   UNL     1      -9.177 -10.896  14.010  0.00  0.00    +0.011 C 
ATOM     19  C   UNL     1     -10.094  -7.089  16.310  0.00  0.00    +0.010 C 
ENDROOT
BRANCH  14   5
ATOM      4  O   UNL     1     -13.807  -6.543  15.523  0.00  0.00    -0.270 OA
ATOM      5  N   UNL     1     -12.089  -7.278  14.151  0.00  0.00    -0.308 N 
ATOM     22  C   UNL     1     -13.112  -6.421  14.518  0.00  0.00    +0.244 C 
ATOM     33  H   UNL     1     -11.635  -7.179  13.248  0.00  0.00    +0.149 HD
BRANCH  22  23
ATOM      1  F   UNL     1     -11.582  -3.172  11.238  0.00  0.00    -0.205 F 
ATOM     23  C   UNL     1     -13.376  -5.295  13.586  0.00  0.00    +0.039 A 
ATOM     28  C   UNL     1     -12.335  -4.751  12.835  0.00  0.00    +0.051 A 
ATOM     29  C   UNL     1     -14.667  -4.779  13.464  0.00  0.00    +0.013 A 
ATOM     30  C   UNL     1     -12.582  -3.693  11.960  0.00  0.00    +0.124 A 
ATOM     31  C   UNL     1     -14.915  -3.720  12.589  0.00  0.00    +0.004 A 
ATOM     32  C   UNL     1     -13.873  -3.179  11.837  0.00  0.00    +0.038 A 
ENDBRANCH  22  23
ENDBRANCH  14   5
BRANCH  10   2
ATOM      2  O   UNL     1      -8.354  -8.670  17.819  0.00  0.00    -0.391 OA
ATOM     34  H   UNL     1      -8.843  -8.971  18.603  0.00  0.00    +0.210 HD
ENDBRANCH  10   2
BRANCH  12  18
ATOM     18  C   UNL     1      -6.670 -11.069  18.032  0.00  0.00    +0.078 C 
ATOM     20  C   UNL     1      -6.563 -10.296  19.347  0.00  0.00    +0.017 C 
BRANCH  18  21
ATOM      3  O   UNL     1      -5.798  -9.270  16.713  0.00  0.00    -0.275 OA
ATOM      6  N   UNL     1      -4.861 -11.349  16.313  0.00  0.00    -0.302 N 
ATOM     21  C   UNL     1      -5.738 -10.478  16.970  0.00  0.00    +0.219 C 
BRANCH   6  24
ATOM     24  C   UNL     1      -3.975 -10.822  15.281  0.00  0.00    +0.104 C 
ATOM     26  C   UNL     1      -2.557 -10.672  15.792  0.00  0.00    +0.024 C 
ENDBRANCH   6  24
BRANCH   6  25
ATOM     25  C   UNL     1      -4.705 -12.777  16.581  0.00  0.00    +0.104 C 
ATOM     27  C   UNL     1      -5.145 -13.615  15.399  0.00  0.00    +0.024 C 
ENDBRANCH   6  25
ENDBRANCH  18  21
ENDBRANCH  12  18
TORSDOF 7
ENDMDL
MODEL 10
REMARK VINA RESULT:      -5.6     28.765     30.447
REMARK  Name = 28962806
REMARK  12 active torsions:
REMARK  status: ('A' for Active; 'I' for Inactive)
REMARK    1  A    between atoms: O_2  and  C_10
REMARK    2  A    between atoms: N_5  and  C_14
REMARK    3  A    between atoms: N_6  and  C_24
REMARK    4  A    between atoms: N_6  and  C_25
REMARK    5  A    between atoms: C_7  and  C_17
REMARK    6  A    between atoms: C_9  and  C_19
REMARK    7  A    between atoms: C_12  and  C_18
REMARK    8  A    between atoms: C_18  and  C_20
REMARK    9  A    between atoms: C_18  and  C_21
REMARK   10  A    between atoms: C_22  and  C_23
REMARK   11  A    between atoms: C_24  and  C_26
REMARK   12  A    between atoms: C_25  and  C_27
REMARK                            x       y       z     vdW  Elec       q    Type
REMARK                         _______ _______ _______ _____ _____    ______ ____
ROOT
ATOM      7  C   UNL     1      -2.084  12.656  36.021  0.00  0.00    -0.027 C 
ATOM      8  C   UNL     1      -3.468  11.928  36.092  0.00  0.00    +0.028 C 
ATOM      9  C   UNL     1      -3.316  10.500  36.728  0.00  0.00    +0.012 C 
ATOM     10  C   UNL     1      -4.200  11.973  34.720  0.00  0.00    +0.122 C 
ATOM     11  C   UNL     1      -2.286  14.097  35.496  0.00  0.00    +0.007 C 
ATOM     12  C   UNL     1      -4.307  13.408  34.151  0.00  0.00    +0.029 C 
ATOM     13  C   UNL     1      -1.492  12.753  37.446  0.00  0.00    +0.009 C 
ATOM     14  C   UNL     1      -2.650  10.603  38.130  0.00  0.00    +0.076 C 
ATOM     15  C   UNL     1      -2.968  14.145  34.136  0.00  0.00    +0.007 C 
ATOM     16  C   UNL     1      -1.345  11.398  38.125  0.00  0.00    +0.023 C 
ATOM     17  C   UNL     1      -1.076  11.927  35.098  0.00  0.00    +0.011 C 
ATOM     19  C   UNL     1      -4.645   9.737  36.855  0.00  0.00    +0.010 C 
ENDROOT
BRANCH  14   5
ATOM      4  O   UNL     1      -0.634   8.740  37.286  0.00  0.00    -0.270 OA
ATOM      5  N   UNL     1      -2.388   9.297  38.696  0.00  0.00    -0.308 N 
ATOM     22  C   UNL     1      -1.388   8.468  38.217  0.00  0.00    +0.244 C 
ATOM     33  H   UNL     1      -3.047   8.958  39.391  0.00  0.00    +0.149 HD
BRANCH  22  23
ATOM      1  F   UNL     1       1.157   4.465  39.289  0.00  0.00    -0.205 F 
ATOM     23  C   UNL     1      -1.266   7.149  38.889  0.00  0.00    +0.039 A 
ATOM     28  C   UNL     1      -0.089   6.411  38.771  0.00  0.00    +0.051 A 
ATOM     29  C   UNL     1      -2.331   6.647  39.638  0.00  0.00    +0.013 A 
ATOM     30  C   UNL     1       0.026   5.173  39.401  0.00  0.00    +0.124 A 
ATOM     31  C   UNL     1      -2.217   5.407  40.268  0.00  0.00    +0.004 A 
ATOM     32  C   UNL     1      -1.038   4.671  40.151  0.00  0.00    +0.038 A 
ENDBRANCH  22  23
ENDBRANCH  14   5
BRANCH  10   2
ATOM      2  O   UNL     1      -5.537  11.496  34.876  0.00  0.00    -0.391 OA
ATOM     34  H   UNL     1      -5.790  11.606  35.809  0.00  0.00    +0.210 HD
ENDBRANCH  10   2
BRANCH  12  18
ATOM     18  C   UNL     1      -4.913  13.416  32.741  0.00  0.00    +0.078 C 
ATOM     20  C   UNL     1      -3.837  13.804  31.726  0.00  0.00    +0.017 C 
BRANCH  18  21
ATOM      3  O   UNL     1      -5.914  15.578  32.986  0.00  0.00    -0.275 OA
ATOM      6  N   UNL     1      -7.344  13.882  32.326  0.00  0.00    -0.302 N 
ATOM     21  C   UNL     1      -6.092  14.391  32.691  0.00  0.00    +0.219 C 
BRANCH   6  24
ATOM     24  C   UNL     1      -8.494  14.779  32.289  0.00  0.00    +0.104 C 
ATOM     26  C   UNL     1      -9.168  14.760  30.933  0.00  0.00    +0.024 C 
ENDBRANCH   6  24
BRANCH   6  25
ATOM     25  C   UNL     1      -7.632  12.505  31.930  0.00  0.00    +0.104 C 
ATOM     27  C   UNL     1      -8.441  11.781  32.986  0.00  0.00    +0.024 C 
ENDBRANCH   6  25
ENDBRANCH  18  21
ENDBRANCH  12  18
TORSDOF 7
ENDMDL
