MODEL 1
REMARK VINA RESULT:      -6.9      0.000      0.000
REMARK  Name = 44716626
REMARK  8 active torsions:
REMARK  status: ('A' for Active; 'I' for Inactive)
REMARK    1  A    between atoms: O_2  and  C_9
REMARK    2  A    between atoms: N_5  and  C_22
REMARK    3  A    between atoms: N_6  and  C_26
REMARK    4  A    between atoms: C_7  and  C_15
REMARK    5  A    between atoms: C_10  and  C_16
REMARK    6  A    between atoms: C_12  and  C_19
REMARK    7  A    between atoms: C_16  and  C_20
REMARK    8  A    between atoms: C_16  and  C_21
REMARK                            x       y       z     vdW  Elec       q    Type
REMARK                         _______ _______ _______ _____ _____    ______ ____
ROOT
ATOM      1  S   UNL     1      10.591  10.082  22.785  0.00  0.00    -0.057 S 
ATOM      4  N   UNL     1      12.571  11.745  22.806  0.00  0.00    -0.229 NA
ATOM      6  N   UNL     1      10.499  12.641  23.509  0.00  0.00    -0.327 N 
ATOM      7  C   UNL     1      13.697   8.070  20.990  0.00  0.00    -0.022 C 
ATOM      8  C   UNL     1      14.849   8.820  21.768  0.00  0.00    +0.033 C 
ATOM      9  C   UNL     1      16.233   8.584  21.099  0.00  0.00    +0.123 C 
ATOM     10  C   UNL     1      16.537   7.088  20.869  0.00  0.00    +0.029 C 
ATOM     11  C   UNL     1      14.069   6.578  20.821  0.00  0.00    +0.008 C 
ATOM     12  C   UNL     1      14.511  10.351  21.995  0.00  0.00    +0.042 C 
ATOM     13  C   UNL     1      15.409   6.369  20.130  0.00  0.00    +0.007 C 
ATOM     14  C   UNL     1      12.375   8.132  21.816  0.00  0.00    +0.051 C 
ATOM     15  C   UNL     1      13.444   8.687  19.589  0.00  0.00    +0.012 C 
ATOM     17  C   UNL     1      13.062  10.522  22.381  0.00  0.00    +0.057 A 
ATOM     18  C   UNL     1      12.119   9.520  22.286  0.00  0.00    +0.015 A 
ATOM     19  C   UNL     1      15.415  11.023  23.039  0.00  0.00    +0.014 C 
ATOM     25  C   UNL     1      11.286  11.628  23.059  0.00  0.00    +0.158 A 
ATOM     26  C   UNL     1      10.966  13.996  23.776  0.00  0.00    +0.127 C 
ATOM     29  H   UNL     1       9.512  12.468  23.678  0.00  0.00    +0.148 HD
ENDROOT
BRANCH   9   2
ATOM      2  O   UNL     1      17.261   9.101  21.942  0.00  0.00    -0.391 OA
ATOM     27  H   UNL     1      16.999   8.947  22.865  0.00  0.00    +0.210 HD
ENDBRANCH   9   2
BRANCH  10  16
ATOM     16  C   UNL     1      17.857   6.884  20.113  0.00  0.00    +0.077 C 
ATOM     21  C   UNL     1      17.681   5.828  19.027  0.00  0.00    +0.017 C 
BRANCH  16  20
ATOM      3  O   UNL     1      19.040   6.880  22.232  0.00  0.00    -0.276 OA
ATOM      5  N   UNL     1      19.896   5.634  20.475  0.00  0.00    -0.312 N 
ATOM     20  C   UNL     1      18.975   6.482  21.070  0.00  0.00    +0.216 C 
ATOM     28  H   UNL     1      19.784   5.365  19.501  0.00  0.00    +0.149 HD
BRANCH   5  22
ATOM     22  C   UNL     1      21.041   5.125  21.176  0.00  0.00    +0.073 C 
ATOM     23  C   UNL     1      21.518   3.717  20.968  0.00  0.00    +0.024 C 
ATOM     24  C   UNL     1      22.337   4.868  20.463  0.00  0.00    +0.024 C 
ENDBRANCH   5  22
ENDBRANCH  16  20
ENDBRANCH  10  16
TORSDOF 4
ENDMDL
MODEL 2
REMARK VINA RESULT:      -6.7     28.009     29.893
REMARK  Name = 44716626
REMARK  8 active torsions:
REMARK  status: ('A' for Active; 'I' for Inactive)
REMARK    1  A    between atoms: O_2  and  C_9
REMARK    2  A    between atoms: N_5  and  C_22
REMARK    3  A    between atoms: N_6  and  C_26
REMARK    4  A    between atoms: C_7  and  C_15
REMARK    5  A    between atoms: C_10  and  C_16
REMARK    6  A    between atoms: C_12  and  C_19
REMARK    7  A    between atoms: C_16  and  C_20
REMARK    8  A    between atoms: C_16  and  C_21
REMARK                            x       y       z     vdW  Elec       q    Type
REMARK                         _______ _______ _______ _____ _____    ______ ____
ROOT
ATOM      1  S   UNL     1      -5.621 -10.043   6.802  0.00  0.00    -0.057 S 
ATOM      4  N   UNL     1      -6.946  -8.524   8.422  0.00  0.00    -0.229 NA
ATOM      6  N   UNL     1      -7.502  -8.283   6.137  0.00  0.00    -0.327 N 
ATOM      7  C   UNL     1      -3.832 -10.571  10.468  0.00  0.00    -0.022 C 
ATOM      8  C   UNL     1      -5.127 -10.280  11.325  0.00  0.00    +0.033 C 
ATOM      9  C   UNL     1      -4.774 -10.030  12.818  0.00  0.00    +0.123 C 
ATOM     10  C   UNL     1      -3.893 -11.146  13.419  0.00  0.00    +0.029 C 
ATOM     11  C   UNL     1      -3.019 -11.712  11.123  0.00  0.00    +0.008 C 
ATOM     12  C   UNL     1      -6.015  -9.135  10.686  0.00  0.00    +0.042 C 
ATOM     13  C   UNL     1      -2.652 -11.430  12.573  0.00  0.00    +0.007 C 
ATOM     14  C   UNL     1      -4.240 -11.048   9.040  0.00  0.00    +0.051 C 
ATOM     15  C   UNL     1      -2.926  -9.318  10.339  0.00  0.00    +0.012 C 
ATOM     17  C   UNL     1      -6.085  -9.294   9.186  0.00  0.00    +0.057 A 
ATOM     18  C   UNL     1      -5.277 -10.148   8.467  0.00  0.00    +0.015 A 
ATOM     19  C   UNL     1      -7.433  -9.070  11.273  0.00  0.00    +0.014 C 
ATOM     25  C   UNL     1      -6.796  -8.842   7.155  0.00  0.00    +0.158 A 
ATOM     26  C   UNL     1      -8.522  -7.254   6.304  0.00  0.00    +0.127 C 
ATOM     29  H   UNL     1      -7.325  -8.584   5.182  0.00  0.00    +0.148 HD
ENDROOT
BRANCH   9   2
ATOM      2  O   UNL     1      -5.975  -9.978  13.587  0.00  0.00    -0.391 OA
ATOM     27  H   UNL     1      -6.567 -10.679  13.266  0.00  0.00    +0.210 HD
ENDBRANCH   9   2
BRANCH  10  16
ATOM     16  C   UNL     1      -3.470 -10.826  14.859  0.00  0.00    +0.077 C 
ATOM     21  C   UNL     1      -1.989 -11.134  15.050  0.00  0.00    +0.017 C 
BRANCH  16  20
ATOM      3  O   UNL     1      -5.388 -12.130  15.572  0.00  0.00    -0.276 OA
ATOM      5  N   UNL     1      -3.722 -11.663  17.115  0.00  0.00    -0.312 N 
ATOM     20  C   UNL     1      -4.310 -11.612  15.860  0.00  0.00    +0.216 C 
ATOM     28  H   UNL     1      -2.836 -11.192  17.280  0.00  0.00    +0.149 HD
BRANCH   5  22
ATOM     22  C   UNL     1      -4.329 -12.342  18.224  0.00  0.00    +0.073 C 
ATOM     23  C   UNL     1      -3.716 -12.296  19.594  0.00  0.00    +0.024 C 
ATOM     24  C   UNL     1      -5.007 -11.581  19.325  0.00  0.00    +0.024 C 
ENDBRANCH   5  22
ENDBRANCH  16  20
ENDBRANCH  10  16
TORSDOF 4
ENDMDL
MODEL 3
REMARK VINA RESULT:      -6.6     28.104     30.262
REMARK  Name = 44716626
REMARK  8 active torsions:
REMARK  status: ('A' for Active; 'I' for Inactive)
REMARK    1  A    between atoms: O_2  and  C_9
REMARK    2  A    between atoms: N_5  and  C_22
REMARK    3  A    between atoms: N_6  and  C_26
REMARK    4  A    between atoms: C_7  and  C_15
REMARK    5  A    between atoms: C_10  and  C_16
REMARK    6  A    between atoms: C_12  and  C_19
REMARK    7  A    between atoms: C_16  and  C_20
REMARK    8  A    between atoms: C_16  and  C_21
REMARK                            x       y       z     vdW  Elec       q    Type
REMARK                         _______ _______ _______ _____ _____    ______ ____
ROOT
ATOM      1  S   UNL     1      -1.782 -10.733  15.453  0.00  0.00    -0.057 S 
ATOM      4  N   UNL     1      -4.311 -11.183  15.753  0.00  0.00    -0.229 NA
ATOM      6  N   UNL     1      -2.994 -11.511  17.690  0.00  0.00    -0.327 N 
ATOM      7  C   UNL     1      -3.369 -10.499  11.665  0.00  0.00    -0.022 C 
ATOM      8  C   UNL     1      -4.802 -10.016  12.118  0.00  0.00    +0.033 C 
ATOM      9  C   UNL     1      -5.837 -10.153  10.966  0.00  0.00    +0.123 C 
ATOM     10  C   UNL     1      -5.365  -9.487   9.655  0.00  0.00    +0.029 C 
ATOM     11  C   UNL     1      -2.961  -9.771  10.362  0.00  0.00    +0.008 C 
ATOM     12  C   UNL     1      -5.262 -10.709  13.465  0.00  0.00    +0.042 C 
ATOM     13  C   UNL     1      -3.970  -9.949   9.235  0.00  0.00    +0.007 C 
ATOM     14  C   UNL     1      -2.317 -10.127  12.756  0.00  0.00    +0.051 C 
ATOM     15  C   UNL     1      -3.320 -12.030  11.421  0.00  0.00    +0.012 C 
ATOM     17  C   UNL     1      -4.114 -10.784  14.442  0.00  0.00    +0.057 A 
ATOM     18  C   UNL     1      -2.802 -10.528  14.104  0.00  0.00    +0.015 A 
ATOM     19  C   UNL     1      -6.466 -10.018  14.123  0.00  0.00    +0.014 C 
ATOM     25  C   UNL     1      -3.155 -11.181  16.380  0.00  0.00    +0.158 A 
ATOM     26  C   UNL     1      -4.076 -11.911  18.582  0.00  0.00    +0.127 C 
ATOM     29  H   UNL     1      -2.065 -11.486  18.100  0.00  0.00    +0.148 HD
ENDROOT
BRANCH   9   2
ATOM      2  O   UNL     1      -7.058  -9.519  11.346  0.00  0.00    -0.391 OA
ATOM     27  H   UNL     1      -7.755 -10.197  11.366  0.00  0.00    +0.210 HD
ENDBRANCH   9   2
BRANCH  10  16
ATOM     16  C   UNL     1      -6.352  -9.726   8.506  0.00  0.00    +0.077 C 
ATOM     21  C   UNL     1      -5.603 -10.190   7.261  0.00  0.00    +0.017 C 
BRANCH  16  20
ATOM      3  O   UNL     1      -7.469  -7.648   9.069  0.00  0.00    -0.276 OA
ATOM      5  N   UNL     1      -7.480  -8.355   6.862  0.00  0.00    -0.312 N 
ATOM     20  C   UNL     1      -7.153  -8.464   8.205  0.00  0.00    +0.216 C 
ATOM     28  H   UNL     1      -7.198  -9.083   6.210  0.00  0.00    +0.149 HD
BRANCH   5  22
ATOM     22  C   UNL     1      -8.237  -7.254   6.338  0.00  0.00    +0.073 C 
ATOM     23  C   UNL     1      -9.011  -7.380   5.058  0.00  0.00    +0.024 C 
ATOM     24  C   UNL     1      -9.737  -7.260   6.366  0.00  0.00    +0.024 C 
ENDBRANCH   5  22
ENDBRANCH  16  20
ENDBRANCH  10  16
TORSDOF 4
ENDMDL
MODEL 4
REMARK VINA RESULT:      -6.1     28.364     30.187
REMARK  Name = 44716626
REMARK  8 active torsions:
REMARK  status: ('A' for Active; 'I' for Inactive)
REMARK    1  A    between atoms: O_2  and  C_9
REMARK    2  A    between atoms: N_5  and  C_22
REMARK    3  A    between atoms: N_6  and  C_26
REMARK    4  A    between atoms: C_7  and  C_15
REMARK    5  A    between atoms: C_10  and  C_16
REMARK    6  A    between atoms: C_12  and  C_19
REMARK    7  A    between atoms: C_16  and  C_20
REMARK    8  A    between atoms: C_16  and  C_21
REMARK                            x       y       z     vdW  Elec       q    Type
REMARK                         _______ _______ _______ _____ _____    ______ ____
ROOT
ATOM      1  S   UNL     1     -10.033 -10.712  19.782  0.00  0.00    -0.057 S 
ATOM      4  N   UNL     1      -9.248 -13.172  19.631  0.00  0.00    -0.229 NA
ATOM      6  N   UNL     1     -11.175 -12.811  20.953  0.00  0.00    -0.327 N 
ATOM      7  C   UNL     1      -6.421 -10.564  17.821  0.00  0.00    -0.022 C 
ATOM      8  C   UNL     1      -6.528 -12.000  17.172  0.00  0.00    +0.033 C 
ATOM      9  C   UNL     1      -5.155 -12.476  16.618  0.00  0.00    +0.123 C 
ATOM     10  C   UNL     1      -4.497 -11.441  15.681  0.00  0.00    +0.029 C 
ATOM     11  C   UNL     1      -5.773  -9.585  16.813  0.00  0.00    +0.008 C 
ATOM     12  C   UNL     1      -7.210 -13.042  18.150  0.00  0.00    +0.042 C 
ATOM     13  C   UNL     1      -4.413 -10.051  16.313  0.00  0.00    +0.007 C 
ATOM     14  C   UNL     1      -7.847 -10.023  18.147  0.00  0.00    +0.051 C 
ATOM     15  C   UNL     1      -5.578 -10.576  19.123  0.00  0.00    +0.012 C 
ATOM     17  C   UNL     1      -8.383 -12.412  18.862  0.00  0.00    +0.057 A 
ATOM     18  C   UNL     1      -8.646 -11.059  18.855  0.00  0.00    +0.015 A 
ATOM     19  C   UNL     1      -7.655 -14.333  17.446  0.00  0.00    +0.014 C 
ATOM     25  C   UNL     1     -10.162 -12.383  20.153  0.00  0.00    +0.158 A 
ATOM     26  C   UNL     1     -11.392 -14.199  21.344  0.00  0.00    +0.127 C 
ATOM     29  H   UNL     1     -11.841 -12.135  21.318  0.00  0.00    +0.148 HD
ENDROOT
BRANCH   9   2
ATOM      2  O   UNL     1      -5.338 -13.674  15.864  0.00  0.00    -0.391 OA
ATOM     27  H   UNL     1      -4.810 -14.376  16.282  0.00  0.00    +0.210 HD
ENDBRANCH   9   2
BRANCH  10  16
ATOM     16  C   UNL     1      -3.099 -11.885  15.232  0.00  0.00    +0.077 C 
ATOM     21  C   UNL     1      -2.049 -10.902  15.739  0.00  0.00    +0.017 C 
BRANCH  16  20
ATOM      3  O   UNL     1      -3.356 -13.019  13.103  0.00  0.00    -0.276 OA
ATOM      5  N   UNL     1      -2.547 -10.847  13.118  0.00  0.00    -0.312 N 
ATOM     20  C   UNL     1      -3.027 -12.004  13.714  0.00  0.00    +0.216 C 
ATOM     28  H   UNL     1      -2.278 -10.053  13.694  0.00  0.00    +0.149 HD
BRANCH   5  22
ATOM     22  C   UNL     1      -2.385 -10.721  11.697  0.00  0.00    +0.073 C 
ATOM     23  C   UNL     1      -3.154  -9.695  10.915  0.00  0.00    +0.024 C 
ATOM     24  C   UNL     1      -1.672  -9.544  11.098  0.00  0.00    +0.024 C 
ENDBRANCH   5  22
ENDBRANCH  16  20
ENDBRANCH  10  16
TORSDOF 4
ENDMDL
MODEL 5
REMARK VINA RESULT:      -6.0      1.860      2.076
REMARK  Name = 44716626
REMARK  8 active torsions:
REMARK  status: ('A' for Active; 'I' for Inactive)
REMARK    1  A    between atoms: O_2  and  C_9
REMARK    2  A    between atoms: N_5  and  C_22
REMARK    3  A    between atoms: N_6  and  C_26
REMARK    4  A    between atoms: C_7  and  C_15
REMARK    5  A    between atoms: C_10  and  C_16
REMARK    6  A    between atoms: C_12  and  C_19
REMARK    7  A    between atoms: C_16  and  C_20
REMARK    8  A    between atoms: C_16  and  C_21
REMARK                            x       y       z     vdW  Elec       q    Type
REMARK                         _______ _______ _______ _____ _____    ______ ____
ROOT
ATOM      1  S   UNL     1      10.985   9.663  21.888  0.00  0.00    -0.057 S 
ATOM      4  N   UNL     1      12.778  11.514  22.103  0.00  0.00    -0.229 NA
ATOM      6  N   UNL     1      10.543  12.248  22.339  0.00  0.00    -0.327 N 
ATOM      7  C   UNL     1      14.529   7.841  20.872  0.00  0.00    -0.022 C 
ATOM      8  C   UNL     1      15.449   8.762  21.767  0.00  0.00    +0.033 C 
ATOM      9  C   UNL     1      16.948   8.615  21.379  0.00  0.00    +0.123 C 
ATOM     10  C   UNL     1      17.416   7.144  21.350  0.00  0.00    +0.029 C 
ATOM     11  C   UNL     1      15.051   6.385  20.914  0.00  0.00    +0.008 C 
ATOM     12  C   UNL     1      14.946  10.263  21.784  0.00  0.00    +0.042 C 
ATOM     13  C   UNL     1      16.509   6.259  20.494  0.00  0.00    +0.007 C 
ATOM     14  C   UNL     1      13.077   7.833  21.440  0.00  0.00    +0.051 C 
ATOM     15  C   UNL     1      14.489   8.318  19.396  0.00  0.00    +0.012 C 
ATOM     17  C   UNL     1      13.441  10.317  21.889  0.00  0.00    +0.057 A 
ATOM     18  C   UNL     1      12.621   9.221  21.724  0.00  0.00    +0.015 A 
ATOM     19  C   UNL     1      15.580  11.102  22.904  0.00  0.00    +0.014 C 
ATOM     25  C   UNL     1      11.483  11.287  22.133  0.00  0.00    +0.158 A 
ATOM     26  C   UNL     1      10.835  13.660  22.555  0.00  0.00    +0.127 C 
ATOM     29  H   UNL     1       9.559  11.990  22.346  0.00  0.00    +0.148 HD
ENDROOT
BRANCH   9   2
ATOM      2  O   UNL     1      17.755   9.297  22.338  0.00  0.00    -0.391 OA
ATOM     27  H   UNL     1      18.517   9.680  21.872  0.00  0.00    +0.210 HD
ENDBRANCH   9   2
BRANCH  10  16
ATOM     16  C   UNL     1      18.865   7.016  20.863  0.00  0.00    +0.077 C 
ATOM     21  C   UNL     1      19.044   5.715  20.088  0.00  0.00    +0.017 C 
BRANCH  16  20
ATOM      3  O   UNL     1      19.905   6.203  22.899  0.00  0.00    -0.276 OA
ATOM      5  N   UNL     1      20.623   8.220  22.010  0.00  0.00    -0.312 N 
ATOM     20  C   UNL     1      19.839   7.076  22.035  0.00  0.00    +0.216 C 
ATOM     28  H   UNL     1      20.495   8.906  21.271  0.00  0.00    +0.149 HD
BRANCH   5  22
ATOM     22  C   UNL     1      21.610   8.502  23.013  0.00  0.00    +0.073 C 
ATOM     23  C   UNL     1      23.022   8.847  22.639  0.00  0.00    +0.024 C 
ATOM     24  C   UNL     1      22.124   9.895  23.228  0.00  0.00    +0.024 C 
ENDBRANCH   5  22
ENDBRANCH  16  20
ENDBRANCH  10  16
TORSDOF 4
ENDMDL
MODEL 6
REMARK VINA RESULT:      -5.8     27.954     29.828
REMARK  Name = 44716626
REMARK  8 active torsions:
REMARK  status: ('A' for Active; 'I' for Inactive)
REMARK    1  A    between atoms: O_2  and  C_9
REMARK    2  A    between atoms: N_5  and  C_22
REMARK    3  A    between atoms: N_6  and  C_26
REMARK    4  A    between atoms: C_7  and  C_15
REMARK    5  A    between atoms: C_10  and  C_16
REMARK    6  A    between atoms: C_12  and  C_19
REMARK    7  A    between atoms: C_16  and  C_20
REMARK    8  A    between atoms: C_16  and  C_21
REMARK                            x       y       z     vdW  Elec       q    Type
REMARK                         _______ _______ _______ _____ _____    ______ ____
ROOT
ATOM      1  S   UNL     1      -8.567  -8.482   9.102  0.00  0.00    -0.057 S 
ATOM      4  N   UNL     1      -6.301  -9.144   8.048  0.00  0.00    -0.229 NA
ATOM      6  N   UNL     1      -7.914  -8.321   6.528  0.00  0.00    -0.327 N 
ATOM      7  C   UNL     1      -6.460 -10.285  12.139  0.00  0.00    -0.022 C 
ATOM      8  C   UNL     1      -5.029  -9.886  11.605  0.00  0.00    +0.033 C 
ATOM      9  C   UNL     1      -3.911 -10.706  12.309  0.00  0.00    +0.123 C 
ATOM     10  C   UNL     1      -4.013 -10.655  13.849  0.00  0.00    +0.029 C 
ATOM     11  C   UNL     1      -6.485 -10.187  13.683  0.00  0.00    +0.008 C 
ATOM     12  C   UNL     1      -4.951  -9.942  10.024  0.00  0.00    +0.042 C 
ATOM     13  C   UNL     1      -5.407 -11.026  14.355  0.00  0.00    +0.007 C 
ATOM     14  C   UNL     1      -7.526  -9.287  11.591  0.00  0.00    +0.051 C 
ATOM     15  C   UNL     1      -6.857 -11.725  11.721  0.00  0.00    +0.012 C 
ATOM     17  C   UNL     1      -6.206  -9.370   9.410  0.00  0.00    +0.057 A 
ATOM     18  C   UNL     1      -7.351  -9.092  10.127  0.00  0.00    +0.015 A 
ATOM     19  C   UNL     1      -3.716  -9.229   9.452  0.00  0.00    +0.014 C 
ATOM     25  C   UNL     1      -7.495  -8.665   7.774  0.00  0.00    +0.158 A 
ATOM     26  C   UNL     1      -7.103  -8.432   5.321  0.00  0.00    +0.127 C 
ATOM     29  H   UNL     1      -8.856  -7.960   6.400  0.00  0.00    +0.148 HD
ENDROOT
BRANCH   9   2
ATOM      2  O   UNL     1      -2.636 -10.174  11.952  0.00  0.00    -0.391 OA
ATOM     27  H   UNL     1      -2.752  -9.232  11.738  0.00  0.00    +0.210 HD
ENDBRANCH   9   2
BRANCH  10  16
ATOM     16  C   UNL     1      -2.967 -11.554  14.520  0.00  0.00    +0.077 C 
ATOM     21  C   UNL     1      -3.413 -13.011  14.459  0.00  0.00    +0.017 C 
BRANCH  16  20
ATOM      3  O   UNL     1      -1.793 -10.416  16.313  0.00  0.00    -0.276 OA
ATOM      5  N   UNL     1      -3.690 -11.645  16.827  0.00  0.00    -0.312 N 
ATOM     20  C   UNL     1      -2.733 -11.129  15.966  0.00  0.00    +0.216 C 
ATOM     28  H   UNL     1      -4.427 -12.244  16.467  0.00  0.00    +0.149 HD
BRANCH   5  22
ATOM     22  C   UNL     1      -3.676 -11.388  18.240  0.00  0.00    +0.073 C 
ATOM     23  C   UNL     1      -4.951 -11.288  19.025  0.00  0.00    +0.024 C 
ATOM     24  C   UNL     1      -4.034 -12.458  19.228  0.00  0.00    +0.024 C 
ENDBRANCH   5  22
ENDBRANCH  16  20
ENDBRANCH  10  16
TORSDOF 4
ENDMDL
MODEL 7
REMARK VINA RESULT:      -5.7     28.004     29.805
REMARK  Name = 44716626
REMARK  8 active torsions:
REMARK  status: ('A' for Active; 'I' for Inactive)
REMARK    1  A    between atoms: O_2  and  C_9
REMARK    2  A    between atoms: N_5  and  C_22
REMARK    3  A    between atoms: N_6  and  C_26
REMARK    4  A    between atoms: C_7  and  C_15
REMARK    5  A    between atoms: C_10  and  C_16
REMARK    6  A    between atoms: C_12  and  C_19
REMARK    7  A    between atoms: C_16  and  C_20
REMARK    8  A    between atoms: C_16  and  C_21
REMARK                            x       y       z     vdW  Elec       q    Type
REMARK                         _______ _______ _______ _____ _____    ______ ____
ROOT
ATOM      1  S   UNL     1     -10.300 -10.633  20.049  0.00  0.00    -0.057 S 
ATOM      4  N   UNL     1     -10.397 -10.017  17.539  0.00  0.00    -0.229 NA
ATOM      6  N   UNL     1     -12.460  -9.886  18.687  0.00  0.00    -0.327 N 
ATOM      7  C   UNL     1      -6.575 -11.563  18.575  0.00  0.00    -0.022 C 
ATOM      8  C   UNL     1      -6.576 -10.476  17.430  0.00  0.00    +0.033 C 
ATOM      9  C   UNL     1      -5.451 -10.745  16.391  0.00  0.00    +0.123 C 
ATOM     10  C   UNL     1      -4.064 -10.927  17.045  0.00  0.00    +0.029 C 
ATOM     11  C   UNL     1      -5.159 -11.668  19.192  0.00  0.00    +0.008 C 
ATOM     12  C   UNL     1      -8.009 -10.305  16.777  0.00  0.00    +0.042 C 
ATOM     13  C   UNL     1      -4.078 -11.969  18.163  0.00  0.00    +0.007 C 
ATOM     14  C   UNL     1      -7.550 -11.132  19.714  0.00  0.00    +0.051 C 
ATOM     15  C   UNL     1      -6.999 -12.960  18.052  0.00  0.00    +0.012 C 
ATOM     17  C   UNL     1      -9.081 -10.328  17.840  0.00  0.00    +0.057 A 
ATOM     18  C   UNL     1      -8.858 -10.709  19.146  0.00  0.00    +0.015 A 
ATOM     19  C   UNL     1      -8.141  -9.033  15.927  0.00  0.00    +0.014 C 
ATOM     25  C   UNL     1     -11.124 -10.133  18.629  0.00  0.00    +0.158 A 
ATOM     26  C   UNL     1     -13.273  -9.460  17.554  0.00  0.00    +0.127 C 
ATOM     29  H   UNL     1     -12.951 -10.001  19.570  0.00  0.00    +0.148 HD
ENDROOT
BRANCH   9   2
ATOM      2  O   UNL     1      -5.355  -9.636  15.497  0.00  0.00    -0.391 OA
ATOM     27  H   UNL     1      -5.896  -8.913  15.857  0.00  0.00    +0.210 HD
ENDBRANCH   9   2
BRANCH  10  16
ATOM     16  C   UNL     1      -2.990 -11.295  16.013  0.00  0.00    +0.077 C 
ATOM     21  C   UNL     1      -1.919 -10.211  15.964  0.00  0.00    +0.017 C 
BRANCH  16  20
ATOM      3  O   UNL     1      -4.394 -12.407  14.377  0.00  0.00    -0.276 OA
ATOM      5  N   UNL     1      -3.175 -10.548  13.720  0.00  0.00    -0.312 N 
ATOM     20  C   UNL     1      -3.608 -11.497  14.634  0.00  0.00    +0.216 C 
ATOM     28  H   UNL     1      -2.507  -9.836  14.005  0.00  0.00    +0.149 HD
BRANCH   5  22
ATOM     22  C   UNL     1      -3.614 -10.536  12.353  0.00  0.00    +0.073 C 
ATOM     23  C   UNL     1      -2.774  -9.922  11.272  0.00  0.00    +0.024 C 
ATOM     24  C   UNL     1      -2.964 -11.409  11.321  0.00  0.00    +0.024 C 
ENDBRANCH   5  22
ENDBRANCH  16  20
ENDBRANCH  10  16
TORSDOF 4
ENDMDL
MODEL 8
REMARK VINA RESULT:      -5.6     27.948     29.875
REMARK  Name = 44716626
REMARK  8 active torsions:
REMARK  status: ('A' for Active; 'I' for Inactive)
REMARK    1  A    between atoms: O_2  and  C_9
REMARK    2  A    between atoms: N_5  and  C_22
REMARK    3  A    between atoms: N_6  and  C_26
REMARK    4  A    between atoms: C_7  and  C_15
REMARK    5  A    between atoms: C_10  and  C_16
REMARK    6  A    between atoms: C_12  and  C_19
REMARK    7  A    between atoms: C_16  and  C_20
REMARK    8  A    between atoms: C_16  and  C_21
REMARK                            x       y       z     vdW  Elec       q    Type
REMARK                         _______ _______ _______ _____ _____    ______ ____
ROOT
ATOM      1  S   UNL     1      -4.300 -11.477  18.540  0.00  0.00    -0.057 S 
ATOM      4  N   UNL     1      -6.463 -11.719  17.143  0.00  0.00    -0.229 NA
ATOM      6  N   UNL     1      -6.712 -12.124  19.459  0.00  0.00    -0.327 N 
ATOM      7  C   UNL     1      -3.084 -11.169  14.623  0.00  0.00    -0.022 C 
ATOM      8  C   UNL     1      -4.439 -10.567  14.078  0.00  0.00    +0.033 C 
ATOM      9  C   UNL     1      -4.507 -10.637  12.526  0.00  0.00    +0.123 C 
ATOM     10  C   UNL     1      -3.262 -10.029  11.845  0.00  0.00    +0.029 C 
ATOM     11  C   UNL     1      -1.889 -10.494  13.908  0.00  0.00    +0.008 C 
ATOM     12  C   UNL     1      -5.700 -11.202  14.794  0.00  0.00    +0.042 C 
ATOM     13  C   UNL     1      -1.956 -10.607  12.392  0.00  0.00    +0.007 C 
ATOM     14  C   UNL     1      -2.947 -10.868  16.148  0.00  0.00    +0.051 C 
ATOM     15  C   UNL     1      -2.999 -12.702  14.404  0.00  0.00    +0.012 C 
ATOM     17  C   UNL     1      -5.448 -11.355  16.275  0.00  0.00    +0.057 A 
ATOM     18  C   UNL     1      -4.207 -11.210  16.860  0.00  0.00    +0.015 A 
ATOM     19  C   UNL     1      -6.994 -10.408  14.563  0.00  0.00    +0.014 C 
ATOM     25  C   UNL     1      -5.977 -11.801  18.362  0.00  0.00    +0.158 A 
ATOM     26  C   UNL     1      -8.139 -12.424  19.441  0.00  0.00    +0.127 C 
ATOM     29  H   UNL     1      -6.259 -12.168  20.368  0.00  0.00    +0.148 HD
ENDROOT
BRANCH   9   2
ATOM      2  O   UNL     1      -5.641  -9.902  12.068  0.00  0.00    -0.391 OA
ATOM     27  H   UNL     1      -6.144 -10.473  11.462  0.00  0.00    +0.210 HD
ENDBRANCH   9   2
BRANCH  10  16
ATOM     16  C   UNL     1      -3.302 -10.204  10.322  0.00  0.00    +0.077 C 
ATOM     21  C   UNL     1      -3.937  -8.979   9.671  0.00  0.00    +0.017 C 
BRANCH  16  20
ATOM      3  O   UNL     1      -3.636 -12.600  10.142  0.00  0.00    -0.276 OA
ATOM      5  N   UNL     1      -5.285 -11.182   9.339  0.00  0.00    -0.312 N 
ATOM     20  C   UNL     1      -4.067 -11.466   9.939  0.00  0.00    +0.216 C 
ATOM     28  H   UNL     1      -5.563 -10.216   9.188  0.00  0.00    +0.149 HD
BRANCH   5  22
ATOM     22  C   UNL     1      -6.180 -12.209   8.886  0.00  0.00    +0.073 C 
ATOM     23  C   UNL     1      -7.223 -11.927   7.844  0.00  0.00    +0.024 C 
ATOM     24  C   UNL     1      -6.050 -12.804   7.515  0.00  0.00    +0.024 C 
ENDBRANCH   5  22
ENDBRANCH  16  20
ENDBRANCH  10  16
TORSDOF 4
ENDMDL
MODEL 9
REMARK VINA RESULT:      -5.6     32.621     33.742
REMARK  Name = 44716626
REMARK  8 active torsions:
REMARK  status: ('A' for Active; 'I' for Inactive)
REMARK    1  A    between atoms: O_2  and  C_9
REMARK    2  A    between atoms: N_5  and  C_22
REMARK    3  A    between atoms: N_6  and  C_26
REMARK    4  A    between atoms: C_7  and  C_15
REMARK    5  A    between atoms: C_10  and  C_16
REMARK    6  A    between atoms: C_12  and  C_19
REMARK    7  A    between atoms: C_16  and  C_20
REMARK    8  A    between atoms: C_16  and  C_21
REMARK                            x       y       z     vdW  Elec       q    Type
REMARK                         _______ _______ _______ _____ _____    ______ ____
ROOT
ATOM      1  S   UNL     1      -5.458 -11.668   5.043  0.00  0.00    -0.057 S 
ATOM      4  N   UNL     1      -5.520 -12.470   2.585  0.00  0.00    -0.229 NA
ATOM      6  N   UNL     1      -7.446 -11.308   3.312  0.00  0.00    -0.327 N 
ATOM      7  C   UNL     1      -2.112 -14.018   4.600  0.00  0.00    -0.022 C 
ATOM      8  C   UNL     1      -1.914 -13.732   3.060  0.00  0.00    +0.033 C 
ATOM      9  C   UNL     1      -0.926 -14.747   2.417  0.00  0.00    +0.123 C 
ATOM     10  C   UNL     1       0.408 -14.850   3.186  0.00  0.00    +0.029 C 
ATOM     11  C   UNL     1      -0.733 -14.085   5.299  0.00  0.00    +0.008 C 
ATOM     12  C   UNL     1      -3.296 -13.627   2.295  0.00  0.00    +0.042 C 
ATOM     13  C   UNL     1       0.204 -15.110   4.678  0.00  0.00    +0.007 C 
ATOM     14  C   UNL     1      -2.912 -12.851   5.256  0.00  0.00    +0.051 C 
ATOM     15  C   UNL     1      -2.868 -15.350   4.852  0.00  0.00    +0.012 C 
ATOM     17  C   UNL     1      -4.299 -12.850   3.115  0.00  0.00    +0.057 A 
ATOM     18  C   UNL     1      -4.112 -12.521   4.441  0.00  0.00    +0.015 A 
ATOM     19  C   UNL     1      -3.170 -13.004   0.896  0.00  0.00    +0.014 C 
ATOM     25  C   UNL     1      -6.206 -11.830   3.507  0.00  0.00    +0.158 A 
ATOM     26  C   UNL     1      -8.188 -11.381   2.059  0.00  0.00    +0.127 C 
ATOM     29  H   UNL     1      -7.912 -10.828   4.078  0.00  0.00    +0.148 HD
ENDROOT
BRANCH   9   2
ATOM      2  O   UNL     1      -0.618 -14.330   1.087  0.00  0.00    -0.391 OA
ATOM     27  H   UNL     1      -1.084 -14.921   0.472  0.00  0.00    +0.210 HD
ENDBRANCH   9   2
BRANCH  10  16
ATOM     16  C   UNL     1       1.324 -15.931   2.597  0.00  0.00    +0.077 C 
ATOM     21  C   UNL     1       1.671 -16.962   3.666  0.00  0.00    +0.017 C 
BRANCH  16  20
ATOM      3  O   UNL     1       2.632 -14.182   1.541  0.00  0.00    -0.276 OA
ATOM      5  N   UNL     1       3.679 -16.175   2.097  0.00  0.00    -0.312 N 
ATOM     20  C   UNL     1       2.594 -15.314   2.021  0.00  0.00    +0.216 C 
ATOM     28  H   UNL     1       3.562 -17.105   2.491  0.00  0.00    +0.149 HD
BRANCH   5  22
ATOM     22  C   UNL     1       4.982 -15.818   1.612  0.00  0.00    +0.073 C 
ATOM     23  C   UNL     1       5.745 -16.726   0.692  0.00  0.00    +0.024 C 
ATOM     24  C   UNL     1       5.198 -15.426   0.180  0.00  0.00    +0.024 C 
ENDBRANCH   5  22
ENDBRANCH  16  20
ENDBRANCH  10  16
TORSDOF 4
ENDMDL
MODEL 10
REMARK VINA RESULT:      -5.6     18.083     20.466
REMARK  Name = 44716626
REMARK  8 active torsions:
REMARK  status: ('A' for Active; 'I' for Inactive)
REMARK    1  A    between atoms: O_2  and  C_9
REMARK    2  A    between atoms: N_5  and  C_22
REMARK    3  A    between atoms: N_6  and  C_26
REMARK    4  A    between atoms: C_7  and  C_15
REMARK    5  A    between atoms: C_10  and  C_16
REMARK    6  A    between atoms: C_12  and  C_19
REMARK    7  A    between atoms: C_16  and  C_20
REMARK    8  A    between atoms: C_16  and  C_21
REMARK                            x       y       z     vdW  Elec       q    Type
REMARK                         _______ _______ _______ _____ _____    ______ ____
ROOT
ATOM      1  S   UNL     1      11.696   6.368  -1.888  0.00  0.00    -0.057 S 
ATOM      4  N   UNL     1      10.568   4.337  -0.752  0.00  0.00    -0.229 NA
ATOM      6  N   UNL     1      11.099   4.045  -3.037  0.00  0.00    -0.327 N 
ATOM      7  C   UNL     1      10.586   7.707   1.840  0.00  0.00    -0.022 C 
ATOM      8  C   UNL     1      10.692   6.303   2.555  0.00  0.00    +0.033 C 
ATOM      9  C   UNL     1       9.991   6.320   3.944  0.00  0.00    +0.123 C 
ATOM     10  C   UNL     1      10.463   7.488   4.837  0.00  0.00    +0.029 C 
ATOM     11  C   UNL     1      11.097   8.816   2.790  0.00  0.00    +0.008 C 
ATOM     12  C   UNL     1      10.207   5.123   1.618  0.00  0.00    +0.042 C 
ATOM     13  C   UNL     1      10.372   8.839   4.128  0.00  0.00    +0.007 C 
ATOM     14  C   UNL     1      11.495   7.723   0.572  0.00  0.00    +0.051 C 
ATOM     15  C   UNL     1       9.130   8.037   1.418  0.00  0.00    +0.012 C 
ATOM     17  C   UNL     1      10.708   5.325   0.208  0.00  0.00    +0.057 A 
ATOM     18  C   UNL     1      11.273   6.498  -0.243  0.00  0.00    +0.015 A 
ATOM     19  C   UNL     1      10.622   3.734   2.128  0.00  0.00    +0.014 C 
ATOM     25  C   UNL     1      11.064   4.772  -1.890  0.00  0.00    +0.158 A 
ATOM     26  C   UNL     1      10.593   2.683  -3.170  0.00  0.00    +0.127 C 
ATOM     29  H   UNL     1      11.499   4.455  -3.877  0.00  0.00    +0.148 HD
ENDROOT
BRANCH   9   2
ATOM      2  O   UNL     1      10.287   5.109   4.639  0.00  0.00    -0.391 OA
ATOM     27  H   UNL     1      11.187   5.181   4.998  0.00  0.00    +0.210 HD
ENDBRANCH   9   2
BRANCH  10  16
ATOM     16  C   UNL     1       9.684   7.547   6.157  0.00  0.00    +0.077 C 
ATOM     21  C   UNL     1       9.624   8.983   6.665  0.00  0.00    +0.017 C 
BRANCH  16  20
ATOM      3  O   UNL     1      11.485   6.256   7.143  0.00  0.00    -0.276 OA
ATOM      5  N   UNL     1       9.429   6.297   8.213  0.00  0.00    -0.312 N 
ATOM     20  C   UNL     1      10.318   6.638   7.204  0.00  0.00    +0.216 C 
ATOM     28  H   UNL     1       8.472   6.639   8.183  0.00  0.00    +0.149 HD
BRANCH   5  22
ATOM     22  C   UNL     1       9.795   5.445   9.308  0.00  0.00    +0.073 C 
ATOM     23  C   UNL     1       8.753   4.825  10.193  0.00  0.00    +0.024 C 
ATOM     24  C   UNL     1       9.550   3.965   9.257  0.00  0.00    +0.024 C 
ENDBRANCH   5  22
ENDBRANCH  16  20
ENDBRANCH  10  16
TORSDOF 4
ENDMDL
