MODEL 1
REMARK VINA RESULT:      -6.9      0.000      0.000
REMARK  Name = 26762210
REMARK  5 active torsions:
REMARK  status: ('A' for Active; 'I' for Inactive)
REMARK    1  A    between atoms: N_7  and  C_12
REMARK    2  A    between atoms: N_9  and  C_27
REMARK    3  A    between atoms: C_11  and  C_16
REMARK    4  A    between atoms: C_16  and  C_18
REMARK    5  A    between atoms: C_18  and  C_19
REMARK                            x       y       z     vdW  Elec       q    Type
REMARK                         _______ _______ _______ _____ _____    ______ ____
ROOT
ATOM      2  O   UNL     1      10.197  10.551   5.198  0.00  0.00    -0.274 OA
ATOM      5  N   UNL     1      11.169   7.667   6.791  0.00  0.00    -0.285 NA
ATOM      6  N   UNL     1       9.121   9.419   6.901  0.00  0.00    -0.313 N 
ATOM     10  C   UNL     1      11.493   9.083   6.629  0.00  0.00    +0.145 C 
ATOM     11  C   UNL     1      10.223   7.403   7.880  0.00  0.00    +0.075 C 
ATOM     12  C   UNL     1      13.264   7.655   5.786  0.00  0.00    +0.090 C 
ATOM     13  C   UNL     1      12.659   9.059   5.646  0.00  0.00    +0.052 C 
ATOM     14  C   UNL     1      12.452   6.978   6.892  0.00  0.00    +0.107 C 
ATOM     15  C   UNL     1       9.258   8.592   8.088  0.00  0.00    +0.123 C 
ATOM     17  C   UNL     1      10.228   9.762   6.137  0.00  0.00    +0.230 C 
ATOM     35  H   UNL     1       8.220   9.836   6.685  0.00  0.00    +0.149 HD
ENDROOT
BRANCH  12   7
ATOM      4  O   UNL     1      15.408   7.157   3.950  0.00  0.00    -0.253 OA
ATOM      7  N   UNL     1      13.186   6.923   4.544  0.00  0.00    -0.295 N 
ATOM      9  N   UNL     1      13.911   5.982   2.578  0.00  0.00    -0.269 N 
ATOM     20  C   UNL     1      14.286   6.724   3.701  0.00  0.00    +0.304 C 
ATOM     36  H   UNL     1      12.315   6.455   4.313  0.00  0.00    +0.151 HD
ATOM     37  H   UNL     1      12.935   5.699   2.523  0.00  0.00    +0.156 HD
BRANCH   9  27
ATOM      1 CL   UNL     1      16.613   7.275  -1.593  0.00  0.00    -0.083 Cl
ATOM     27  C   UNL     1      14.725   5.573   1.496  0.00  0.00    +0.036 A 
ATOM     30  C   UNL     1      15.211   6.517   0.592  0.00  0.00    +0.043 A 
ATOM     31  C   UNL     1      15.043   4.224   1.335  0.00  0.00    +0.023 A 
ATOM     32  C   UNL     1      16.014   6.111  -0.475  0.00  0.00    +0.043 A 
ATOM     33  C   UNL     1      15.846   3.819   0.269  0.00  0.00    +0.003 A 
ATOM     34  C   UNL     1      16.332   4.763  -0.637  0.00  0.00    +0.020 A 
ENDBRANCH   9  27
ENDBRANCH  12   7
BRANCH  11  16
ATOM     16  C   UNL     1       9.435   6.135   7.544  0.00  0.00    +0.029 C 
BRANCH  16  18
ATOM     18  C   UNL     1       8.791   6.198   6.167  0.00  0.00    +0.098 C 
BRANCH  18  19
ATOM      3  O   UNL     1       9.896   4.194   5.551  0.00  0.00    -0.275 OA
ATOM      8  N   UNL     1       9.686   5.851   3.921  0.00  0.00    -0.271 N 
ATOM     19  C   UNL     1       9.514   5.307   5.186  0.00  0.00    +0.220 C 
ATOM     21  C   UNL     1       9.226   7.186   3.485  0.00  0.00    +0.118 C 
ATOM     22  C   UNL     1      10.325   5.225   2.831  0.00  0.00    +0.039 A 
ATOM     23  C   UNL     1       9.622   7.360   2.014  0.00  0.00    +0.056 C 
ATOM     24  C   UNL     1      10.308   6.067   1.718  0.00  0.00    -0.024 A 
ATOM     25  C   UNL     1      10.917   3.972   2.759  0.00  0.00    +0.024 A 
ATOM     26  C   UNL     1      10.876   5.682   0.513  0.00  0.00    +0.005 A 
ATOM     28  C   UNL     1      11.493   3.576   1.547  0.00  0.00    +0.002 A 
ATOM     29  C   UNL     1      11.474   4.424   0.432  0.00  0.00    +0.000 A 
ENDBRANCH  18  19
ENDBRANCH  16  18
ENDBRANCH  11  16
TORSDOF 5
ENDMDL
MODEL 2
REMARK VINA RESULT:      -6.9     24.582     27.447
REMARK  Name = 26762210
REMARK  5 active torsions:
REMARK  status: ('A' for Active; 'I' for Inactive)
REMARK    1  A    between atoms: N_7  and  C_12
REMARK    2  A    between atoms: N_9  and  C_27
REMARK    3  A    between atoms: C_11  and  C_16
REMARK    4  A    between atoms: C_16  and  C_18
REMARK    5  A    between atoms: C_18  and  C_19
REMARK                            x       y       z     vdW  Elec       q    Type
REMARK                         _______ _______ _______ _____ _____    ______ ____
ROOT
ATOM      2  O   UNL     1      -8.553 -13.918  16.556  0.00  0.00    -0.274 OA
ATOM      5  N   UNL     1      -7.038 -10.951  17.394  0.00  0.00    -0.285 NA
ATOM      6  N   UNL     1      -7.641 -13.294  18.585  0.00  0.00    -0.313 N 
ATOM     10  C   UNL     1      -8.325 -11.557  17.061  0.00  0.00    +0.145 C 
ATOM     11  C   UNL     1      -6.728 -10.983  18.826  0.00  0.00    +0.075 C 
ATOM     12  C   UNL     1      -7.649  -9.918  15.404  0.00  0.00    +0.090 C 
ATOM     13  C   UNL     1      -8.521 -11.167  15.599  0.00  0.00    +0.052 C 
ATOM     14  C   UNL     1      -7.056  -9.626  16.783  0.00  0.00    +0.107 C 
ATOM     15  C   UNL     1      -7.366 -12.211  19.514  0.00  0.00    +0.123 C 
ATOM     17  C   UNL     1      -8.187 -13.043  17.334  0.00  0.00    +0.230 C 
ATOM     35  H   UNL     1      -7.528 -14.255  18.894  0.00  0.00    +0.149 HD
ENDROOT
BRANCH  12   7
ATOM      4  O   UNL     1      -7.764  -9.261  12.616  0.00  0.00    -0.253 OA
ATOM      7  N   UNL     1      -6.618 -10.147  14.418  0.00  0.00    -0.295 N 
ATOM      9  N   UNL     1      -5.601 -10.136  12.359  0.00  0.00    -0.269 N 
ATOM     20  C   UNL     1      -6.755  -9.795  13.070  0.00  0.00    +0.304 C 
ATOM     36  H   UNL     1      -5.720 -10.500  14.733  0.00  0.00    +0.151 HD
ATOM     37  H   UNL     1      -4.851 -10.574  12.889  0.00  0.00    +0.156 HD
BRANCH   9  27
ATOM      1 CL   UNL     1      -6.581 -11.485   7.502  0.00  0.00    -0.083 Cl
ATOM     27  C   UNL     1      -5.343  -9.946  10.981  0.00  0.00    +0.036 A 
ATOM     30  C   UNL     1      -6.013 -10.719  10.033  0.00  0.00    +0.043 A 
ATOM     31  C   UNL     1      -4.419  -8.985  10.572  0.00  0.00    +0.023 A 
ATOM     32  C   UNL     1      -5.757 -10.530   8.674  0.00  0.00    +0.043 A 
ATOM     33  C   UNL     1      -4.164  -8.797   9.214  0.00  0.00    +0.003 A 
ATOM     34  C   UNL     1      -4.833  -9.570   8.264  0.00  0.00    +0.020 A 
ENDBRANCH   9  27
ENDBRANCH  12   7
BRANCH  11  16
ATOM     16  C   UNL     1      -5.207 -11.013  18.995  0.00  0.00    +0.029 C 
BRANCH  16  18
ATOM     18  C   UNL     1      -4.545 -12.058  18.112  0.00  0.00    +0.098 C 
BRANCH  18  19
ATOM      3  O   UNL     1      -3.289 -10.313  17.115  0.00  0.00    -0.275 OA
ATOM      8  N   UNL     1      -3.822 -12.152  15.780  0.00  0.00    -0.271 N 
ATOM     19  C   UNL     1      -3.819 -11.413  16.955  0.00  0.00    +0.220 C 
ATOM     21  C   UNL     1      -4.458 -13.472  15.591  0.00  0.00    +0.118 C 
ATOM     22  C   UNL     1      -3.217 -11.773  14.564  0.00  0.00    +0.039 A 
ATOM     23  C   UNL     1      -4.203 -13.911  14.145  0.00  0.00    +0.056 C 
ATOM     24  C   UNL     1      -3.420 -12.762  13.600  0.00  0.00    -0.024 A 
ATOM     25  C   UNL     1      -2.508 -10.621  14.254  0.00  0.00    +0.024 A 
ATOM     26  C   UNL     1      -2.921 -12.629  12.313  0.00  0.00    +0.005 A 
ATOM     28  C   UNL     1      -2.003 -10.478  12.958  0.00  0.00    +0.002 A 
ATOM     29  C   UNL     1      -2.207 -11.474  11.994  0.00  0.00    +0.000 A 
ENDBRANCH  18  19
ENDBRANCH  16  18
ENDBRANCH  11  16
TORSDOF 5
ENDMDL
MODEL 3
REMARK VINA RESULT:      -6.8     16.081     19.699
REMARK  Name = 26762210
REMARK  5 active torsions:
REMARK  status: ('A' for Active; 'I' for Inactive)
REMARK    1  A    between atoms: N_7  and  C_12
REMARK    2  A    between atoms: N_9  and  C_27
REMARK    3  A    between atoms: C_11  and  C_16
REMARK    4  A    between atoms: C_16  and  C_18
REMARK    5  A    between atoms: C_18  and  C_19
REMARK                            x       y       z     vdW  Elec       q    Type
REMARK                         _______ _______ _______ _____ _____    ______ ____
ROOT
ATOM      2  O   UNL     1      20.772   8.151  24.551  0.00  0.00    -0.274 OA
ATOM      5  N   UNL     1      18.964   8.289  21.633  0.00  0.00    -0.285 NA
ATOM      6  N   UNL     1      20.677   6.594  22.846  0.00  0.00    -0.313 N 
ATOM     10  C   UNL     1      20.101   8.879  22.337  0.00  0.00    +0.145 C 
ATOM     11  C   UNL     1      19.321   7.125  20.817  0.00  0.00    +0.075 C 
ATOM     12  C   UNL     1      18.334  10.501  21.967  0.00  0.00    +0.090 C 
ATOM     13  C   UNL     1      19.530  10.186  22.878  0.00  0.00    +0.052 C 
ATOM     14  C   UNL     1      18.330   9.390  20.915  0.00  0.00    +0.107 C 
ATOM     15  C   UNL     1      20.521   6.360  21.420  0.00  0.00    +0.123 C 
ATOM     17  C   UNL     1      20.536   7.867  23.381  0.00  0.00    +0.230 C 
ATOM     35  H   UNL     1      20.994   5.837  23.443  0.00  0.00    +0.149 HD
ENDROOT
BRANCH  12   7
ATOM      4  O   UNL     1      15.833  11.604  21.105  0.00  0.00    -0.253 OA
ATOM      7  N   UNL     1      17.099  10.530  22.714  0.00  0.00    -0.295 N 
ATOM      9  N   UNL     1      14.889  10.974  23.159  0.00  0.00    -0.269 N 
ATOM     20  C   UNL     1      15.916  11.091  22.218  0.00  0.00    +0.304 C 
ATOM     36  H   UNL     1      17.062  10.045  23.605  0.00  0.00    +0.151 HD
ATOM     37  H   UNL     1      15.126  10.519  24.038  0.00  0.00    +0.156 HD
BRANCH   9  27
ATOM      1 CL   UNL     1      10.660  12.764  25.456  0.00  0.00    -0.083 Cl
ATOM     27  C   UNL     1      13.550  11.413  23.042  0.00  0.00    +0.036 A 
ATOM     30  C   UNL     1      12.849  11.825  24.175  0.00  0.00    +0.043 A 
ATOM     31  C   UNL     1      12.931  11.435  21.792  0.00  0.00    +0.023 A 
ATOM     32  C   UNL     1      11.528  12.257  24.057  0.00  0.00    +0.043 A 
ATOM     33  C   UNL     1      11.610  11.868  21.675  0.00  0.00    +0.003 A 
ATOM     34  C   UNL     1      10.908  12.279  22.808  0.00  0.00    +0.020 A 
ENDBRANCH   9  27
ENDBRANCH  12   7
BRANCH  11  16
ATOM     16  C   UNL     1      18.102   6.205  20.721  0.00  0.00    +0.029 C 
BRANCH  16  18
ATOM     18  C   UNL     1      16.999   6.790  19.854  0.00  0.00    +0.098 C 
BRANCH  18  19
ATOM      3  O   UNL     1      15.759   6.834  21.874  0.00  0.00    -0.275 OA
ATOM      8  N   UNL     1      14.649   7.455  19.917  0.00  0.00    -0.271 N 
ATOM     19  C   UNL     1      15.742   7.028  20.657  0.00  0.00    +0.220 C 
ATOM     21  C   UNL     1      14.631   7.687  18.458  0.00  0.00    +0.118 C 
ATOM     22  C   UNL     1      13.366   7.746  20.428  0.00  0.00    +0.039 A 
ATOM     23  C   UNL     1      13.223   8.158  18.076  0.00  0.00    +0.056 C 
ATOM     24  C   UNL     1      12.520   8.151  19.395  0.00  0.00    -0.024 A 
ATOM     25  C   UNL     1      12.902   7.673  21.733  0.00  0.00    +0.024 A 
ATOM     26  C   UNL     1      11.199   8.494  19.637  0.00  0.00    +0.005 A 
ATOM     28  C   UNL     1      11.570   8.017  21.986  0.00  0.00    +0.002 A 
ATOM     29  C   UNL     1      10.724   8.425  20.947  0.00  0.00    +0.000 A 
ENDBRANCH  18  19
ENDBRANCH  16  18
ENDBRANCH  11  16
TORSDOF 5
ENDMDL
MODEL 4
REMARK VINA RESULT:      -6.7     23.603     26.374
REMARK  Name = 26762210
REMARK  5 active torsions:
REMARK  status: ('A' for Active; 'I' for Inactive)
REMARK    1  A    between atoms: N_7  and  C_12
REMARK    2  A    between atoms: N_9  and  C_27
REMARK    3  A    between atoms: C_11  and  C_16
REMARK    4  A    between atoms: C_16  and  C_18
REMARK    5  A    between atoms: C_18  and  C_19
REMARK                            x       y       z     vdW  Elec       q    Type
REMARK                         _______ _______ _______ _____ _____    ______ ____
ROOT
ATOM      2  O   UNL     1      -8.253  -5.856   7.785  0.00  0.00    -0.274 OA
ATOM      5  N   UNL     1      -7.893  -9.266   8.012  0.00  0.00    -0.285 NA
ATOM      6  N   UNL     1      -7.685  -7.354   6.119  0.00  0.00    -0.313 N 
ATOM     10  C   UNL     1      -8.878  -8.186   8.043  0.00  0.00    +0.145 C 
ATOM     11  C   UNL     1      -7.641  -9.790   6.666  0.00  0.00    +0.075 C 
ATOM     12  C   UNL     1      -8.756  -9.351  10.167  0.00  0.00    +0.090 C 
ATOM     13  C   UNL     1      -9.147  -8.009   9.534  0.00  0.00    +0.052 C 
ATOM     14  C   UNL     1      -8.349 -10.244   8.994  0.00  0.00    +0.107 C 
ATOM     15  C   UNL     1      -7.837  -8.699   5.589  0.00  0.00    +0.123 C 
ATOM     17  C   UNL     1      -8.242  -7.000   7.341  0.00  0.00    +0.230 C 
ATOM     35  H   UNL     1      -7.256  -6.637   5.543  0.00  0.00    +0.149 HD
ENDROOT
BRANCH  12   7
ATOM      4  O   UNL     1      -8.467 -10.691  12.685  0.00  0.00    -0.253 OA
ATOM      7  N   UNL     1      -7.677  -9.191  11.113  0.00  0.00    -0.295 N 
ATOM      9  N   UNL     1      -6.458  -9.529  13.031  0.00  0.00    -0.269 N 
ATOM     20  C   UNL     1      -7.611  -9.886  12.326  0.00  0.00    +0.304 C 
ATOM     36  H   UNL     1      -6.885  -8.614  10.848  0.00  0.00    +0.151 HD
ATOM     37  H   UNL     1      -5.848  -8.844  12.590  0.00  0.00    +0.156 HD
BRANCH   9  27
ATOM      1 CL   UNL     1      -7.322  -9.934  18.076  0.00  0.00    -0.083 Cl
ATOM     27  C   UNL     1      -6.028 -10.006  14.291  0.00  0.00    +0.036 A 
ATOM     30  C   UNL     1      -6.798  -9.763  15.428  0.00  0.00    +0.043 A 
ATOM     31  C   UNL     1      -4.834 -10.719  14.396  0.00  0.00    +0.023 A 
ATOM     32  C   UNL     1      -6.373 -10.234  16.671  0.00  0.00    +0.043 A 
ATOM     33  C   UNL     1      -4.409 -11.189  15.639  0.00  0.00    +0.003 A 
ATOM     34  C   UNL     1      -5.179 -10.946  16.777  0.00  0.00    +0.020 A 
ENDBRANCH   9  27
ENDBRANCH  12   7
BRANCH  11  16
ATOM     16  C   UNL     1      -6.211 -10.334   6.615  0.00  0.00    +0.029 C 
BRANCH  16  18
ATOM     18  C   UNL     1      -5.344  -9.797   7.743  0.00  0.00    +0.098 C 
BRANCH  18  19
ATOM      3  O   UNL     1      -5.400 -12.029   8.537  0.00  0.00    -0.275 OA
ATOM      8  N   UNL     1      -3.987 -10.532   9.636  0.00  0.00    -0.271 N 
ATOM     19  C   UNL     1      -4.917 -10.905   8.676  0.00  0.00    +0.220 C 
ATOM     21  C   UNL     1      -3.409  -9.182   9.800  0.00  0.00    +0.118 C 
ATOM     22  C   UNL     1      -3.430 -11.375  10.620  0.00  0.00    +0.039 A 
ATOM     23  C   UNL     1      -2.425  -9.234  10.975  0.00  0.00    +0.056 C 
ATOM     24  C   UNL     1      -2.529 -10.659  11.409  0.00  0.00    -0.024 A 
ATOM     25  C   UNL     1      -3.668 -12.720  10.863  0.00  0.00    +0.024 A 
ATOM     26  C   UNL     1      -1.844 -11.265  12.452  0.00  0.00    +0.005 A 
ATOM     28  C   UNL     1      -2.982 -13.338  11.914  0.00  0.00    +0.002 A 
ATOM     29  C   UNL     1      -2.077 -12.617  12.703  0.00  0.00    +0.000 A 
ENDBRANCH  18  19
ENDBRANCH  16  18
ENDBRANCH  11  16
TORSDOF 5
ENDMDL
MODEL 5
REMARK VINA RESULT:      -6.4     24.495     27.561
REMARK  Name = 26762210
REMARK  5 active torsions:
REMARK  status: ('A' for Active; 'I' for Inactive)
REMARK    1  A    between atoms: N_7  and  C_12
REMARK    2  A    between atoms: N_9  and  C_27
REMARK    3  A    between atoms: C_11  and  C_16
REMARK    4  A    between atoms: C_16  and  C_18
REMARK    5  A    between atoms: C_18  and  C_19
REMARK                            x       y       z     vdW  Elec       q    Type
REMARK                         _______ _______ _______ _____ _____    ______ ____
ROOT
ATOM      2  O   UNL     1      -7.762  -7.727   7.650  0.00  0.00    -0.274 OA
ATOM      5  N   UNL     1      -6.788 -10.599   9.265  0.00  0.00    -0.285 NA
ATOM      6  N   UNL     1      -5.984  -9.119   7.157  0.00  0.00    -0.313 N 
ATOM     10  C   UNL     1      -7.830 -10.028   8.414  0.00  0.00    +0.145 C 
ATOM     11  C   UNL     1      -5.679 -11.194   8.513  0.00  0.00    +0.075 C 
ATOM     12  C   UNL     1      -8.696 -10.665  10.589  0.00  0.00    +0.090 C 
ATOM     13  C   UNL     1      -8.954  -9.728   9.401  0.00  0.00    +0.052 C 
ATOM     14  C   UNL     1      -7.478 -11.497  10.185  0.00  0.00    +0.107 C 
ATOM     15  C   UNL     1      -5.465 -10.477   7.161  0.00  0.00    +0.123 C 
ATOM     17  C   UNL     1      -7.216  -8.823   7.726  0.00  0.00    +0.230 C 
ATOM     35  H   UNL     1      -5.490  -8.398   6.642  0.00  0.00    +0.149 HD
ENDROOT
BRANCH  12   7
ATOM      4  O   UNL     1     -10.208 -10.804  13.020  0.00  0.00    -0.253 OA
ATOM      7  N   UNL     1      -8.453  -9.920  11.802  0.00  0.00    -0.295 N 
ATOM      9  N   UNL     1      -8.771  -9.206  13.962  0.00  0.00    -0.269 N 
ATOM     20  C   UNL     1      -9.243 -10.047  12.951  0.00  0.00    +0.304 C 
ATOM     36  H   UNL     1      -7.620  -9.342  11.855  0.00  0.00    +0.151 HD
ATOM     37  H   UNL     1      -7.955  -8.640  13.741  0.00  0.00    +0.156 HD
BRANCH   9  27
ATOM      1 CL   UNL     1      -8.846 -10.747  18.860  0.00  0.00    -0.083 Cl
ATOM     27  C   UNL     1      -9.289  -9.042  15.268  0.00  0.00    +0.036 A 
ATOM     30  C   UNL     1      -8.860  -9.878  16.299  0.00  0.00    +0.043 A 
ATOM     31  C   UNL     1     -10.229  -8.044  15.524  0.00  0.00    +0.023 A 
ATOM     32  C   UNL     1      -9.373  -9.715  17.587  0.00  0.00    +0.043 A 
ATOM     33  C   UNL     1     -10.740  -7.881  16.811  0.00  0.00    +0.003 A 
ATOM     34  C   UNL     1     -10.313  -8.717  17.843  0.00  0.00    +0.020 A 
ENDBRANCH   9  27
ENDBRANCH  12   7
BRANCH  11  16
ATOM     16  C   UNL     1      -4.410 -11.105   9.365  0.00  0.00    +0.029 C 
BRANCH  16  18
ATOM     18  C   UNL     1      -4.395  -9.874  10.258  0.00  0.00    +0.098 C 
BRANCH  18  19
ATOM      3  O   UNL     1      -2.174  -9.909  11.087  0.00  0.00    -0.275 OA
ATOM      8  N   UNL     1      -3.900 -10.256  12.620  0.00  0.00    -0.271 N 
ATOM     19  C   UNL     1      -3.371 -10.013  11.360  0.00  0.00    +0.220 C 
ATOM     21  C   UNL     1      -5.337 -10.380  12.944  0.00  0.00    +0.118 C 
ATOM     22  C   UNL     1      -3.161 -10.424  13.809  0.00  0.00    +0.039 A 
ATOM     23  C   UNL     1      -5.456 -10.637  14.450  0.00  0.00    +0.056 C 
ATOM     24  C   UNL     1      -4.025 -10.647  14.882  0.00  0.00    -0.024 A 
ATOM     25  C   UNL     1      -1.788 -10.395  14.004  0.00  0.00    +0.024 A 
ATOM     26  C   UNL     1      -3.544 -10.844  16.167  0.00  0.00    +0.005 A 
ATOM     28  C   UNL     1      -1.294 -10.593  15.297  0.00  0.00    +0.002 A 
ATOM     29  C   UNL     1      -2.165 -10.816  16.372  0.00  0.00    +0.000 A 
ENDBRANCH  18  19
ENDBRANCH  16  18
ENDBRANCH  11  16
TORSDOF 5
ENDMDL
MODEL 6
REMARK VINA RESULT:      -6.3     24.813     27.695
REMARK  Name = 26762210
REMARK  5 active torsions:
REMARK  status: ('A' for Active; 'I' for Inactive)
REMARK    1  A    between atoms: N_7  and  C_12
REMARK    2  A    between atoms: N_9  and  C_27
REMARK    3  A    between atoms: C_11  and  C_16
REMARK    4  A    between atoms: C_16  and  C_18
REMARK    5  A    between atoms: C_18  and  C_19
REMARK                            x       y       z     vdW  Elec       q    Type
REMARK                         _______ _______ _______ _____ _____    ______ ____
ROOT
ATOM      2  O   UNL     1      -5.504 -14.208  15.056  0.00  0.00    -0.274 OA
ATOM      5  N   UNL     1      -3.878 -11.192  15.321  0.00  0.00    -0.285 NA
ATOM      6  N   UNL     1      -3.427 -13.618  14.231  0.00  0.00    -0.313 N 
ATOM     10  C   UNL     1      -4.317 -12.359  16.084  0.00  0.00    +0.145 C 
ATOM     11  C   UNL     1      -2.540 -11.341  14.741  0.00  0.00    +0.075 C 
ATOM     12  C   UNL     1      -5.428 -10.332  16.823  0.00  0.00    +0.090 C 
ATOM     13  C   UNL     1      -5.579 -11.860  16.780  0.00  0.00    +0.052 C 
ATOM     14  C   UNL     1      -4.056 -10.049  16.210  0.00  0.00    +0.107 C 
ATOM     15  C   UNL     1      -2.228 -12.819  14.414  0.00  0.00    +0.123 C 
ATOM     17  C   UNL     1      -4.515 -13.482  15.083  0.00  0.00    +0.230 C 
ATOM     35  H   UNL     1      -3.431 -14.359  13.536  0.00  0.00    +0.149 HD
ENDROOT
BRANCH  12   7
ATOM      4  O   UNL     1      -7.997  -9.558  17.832  0.00  0.00    -0.253 OA
ATOM      7  N   UNL     1      -6.485  -9.679  16.087  0.00  0.00    -0.295 N 
ATOM      9  N   UNL     1      -8.536  -8.717  15.709  0.00  0.00    -0.269 N 
ATOM     20  C   UNL     1      -7.716  -9.334  16.658  0.00  0.00    +0.304 C 
ATOM     36  H   UNL     1      -6.296  -9.378  15.136  0.00  0.00    +0.151 HD
ATOM     37  H   UNL     1      -8.149  -8.606  14.774  0.00  0.00    +0.156 HD
BRANCH   9  27
ATOM      1 CL   UNL     1     -13.512  -9.712  16.493  0.00  0.00    -0.083 Cl
ATOM     27  C   UNL     1      -9.849  -8.222  15.887  0.00  0.00    +0.036 A 
ATOM     30  C   UNL     1     -10.909  -9.108  16.080  0.00  0.00    +0.043 A 
ATOM     31  C   UNL     1     -10.084  -6.847  15.870  0.00  0.00    +0.023 A 
ATOM     32  C   UNL     1     -12.203  -8.619  16.256  0.00  0.00    +0.043 A 
ATOM     33  C   UNL     1     -11.378  -6.358  16.045  0.00  0.00    +0.003 A 
ATOM     34  C   UNL     1     -12.439  -7.244  16.238  0.00  0.00    +0.020 A 
ENDBRANCH   9  27
ENDBRANCH  12   7
BRANCH  11  16
ATOM     16  C   UNL     1      -2.462 -10.490  13.471  0.00  0.00    +0.029 C 
BRANCH  16  18
ATOM     18  C   UNL     1      -3.815 -10.327  12.797  0.00  0.00    +0.098 C 
BRANCH  18  19
ATOM      3  O   UNL     1      -3.328 -12.123  11.329  0.00  0.00    -0.275 OA
ATOM      8  N   UNL     1      -4.454 -10.282  10.439  0.00  0.00    -0.271 N 
ATOM     19  C   UNL     1      -3.838 -11.008  11.449  0.00  0.00    +0.220 C 
ATOM     21  C   UNL     1      -5.065  -8.945  10.586  0.00  0.00    +0.118 C 
ATOM     22  C   UNL     1      -4.606 -10.694   9.099  0.00  0.00    +0.039 A 
ATOM     23  C   UNL     1      -5.630  -8.536   9.221  0.00  0.00    +0.056 C 
ATOM     24  C   UNL     1      -5.276  -9.712   8.369  0.00  0.00    -0.024 A 
ATOM     25  C   UNL     1      -4.192 -11.868   8.486  0.00  0.00    +0.024 A 
ATOM     26  C   UNL     1      -5.551  -9.876   7.020  0.00  0.00    +0.005 A 
ATOM     28  C   UNL     1      -4.464 -12.042   7.126  0.00  0.00    +0.002 A 
ATOM     29  C   UNL     1      -5.139 -11.054   6.397  0.00  0.00    +0.000 A 
ENDBRANCH  18  19
ENDBRANCH  16  18
ENDBRANCH  11  16
TORSDOF 5
ENDMDL
MODEL 7
REMARK VINA RESULT:      -6.3      7.798     10.300
REMARK  Name = 26762210
REMARK  5 active torsions:
REMARK  status: ('A' for Active; 'I' for Inactive)
REMARK    1  A    between atoms: N_7  and  C_12
REMARK    2  A    between atoms: N_9  and  C_27
REMARK    3  A    between atoms: C_11  and  C_16
REMARK    4  A    between atoms: C_16  and  C_18
REMARK    5  A    between atoms: C_18  and  C_19
REMARK                            x       y       z     vdW  Elec       q    Type
REMARK                         _______ _______ _______ _____ _____    ______ ____
ROOT
ATOM      2  O   UNL     1       4.196   9.210   0.909  0.00  0.00    -0.274 OA
ATOM      5  N   UNL     1       4.895  11.458   3.412  0.00  0.00    -0.285 NA
ATOM      6  N   UNL     1       2.946  11.029   1.597  0.00  0.00    -0.313 N 
ATOM     10  C   UNL     1       5.308  11.020   2.080  0.00  0.00    +0.145 C 
ATOM     11  C   UNL     1       3.864  12.501   3.392  0.00  0.00    +0.075 C 
ATOM     12  C   UNL     1       7.048  10.644   3.729  0.00  0.00    +0.090 C 
ATOM     13  C   UNL     1       6.533  10.159   2.366  0.00  0.00    +0.052 C 
ATOM     14  C   UNL     1       6.127  11.803   4.114  0.00  0.00    +0.107 C 
ATOM     15  C   UNL     1       2.956  12.373   2.149  0.00  0.00    +0.123 C 
ATOM     17  C   UNL     1       4.119  10.297   1.475  0.00  0.00    +0.230 C 
ATOM     35  H   UNL     1       2.087  10.659   1.201  0.00  0.00    +0.149 HD
ENDROOT
BRANCH  12   7
ATOM      4  O   UNL     1       9.045   8.634   4.160  0.00  0.00    -0.253 OA
ATOM      7  N   UNL     1       7.012   9.587   4.711  0.00  0.00    -0.295 N 
ATOM      9  N   UNL     1       7.725   7.744   5.884  0.00  0.00    -0.269 N 
ATOM     20  C   UNL     1       8.034   8.641   4.857  0.00  0.00    +0.304 C 
ATOM     36  H   UNL     1       6.253   9.580   5.386  0.00  0.00    +0.151 HD
ATOM     37  H   UNL     1       6.841   7.891   6.366  0.00  0.00    +0.156 HD
BRANCH   9  27
ATOM      1 CL   UNL     1       9.798   5.208   9.838  0.00  0.00    -0.083 Cl
ATOM     27  C   UNL     1       8.494   6.649   6.341  0.00  0.00    +0.036 A 
ATOM     30  C   UNL     1       8.737   6.488   7.705  0.00  0.00    +0.043 A 
ATOM     31  C   UNL     1       9.008   5.730   5.427  0.00  0.00    +0.023 A 
ATOM     32  C   UNL     1       9.496   5.407   8.154  0.00  0.00    +0.043 A 
ATOM     33  C   UNL     1       9.767   4.649   5.877  0.00  0.00    +0.003 A 
ATOM     34  C   UNL     1      10.011   4.487   7.241  0.00  0.00    +0.020 A 
ENDBRANCH   9  27
ENDBRANCH  12   7
BRANCH  11  16
ATOM     16  C   UNL     1       3.030  12.386   4.671  0.00  0.00    +0.029 C 
BRANCH  16  18
ATOM     18  C   UNL     1       1.584  12.805   4.460  0.00  0.00    +0.098 C 
BRANCH  18  19
ATOM      3  O   UNL     1       0.692  12.206   6.573  0.00  0.00    -0.275 OA
ATOM      8  N   UNL     1      -0.185  11.136   4.694  0.00  0.00    -0.271 N 
ATOM     19  C   UNL     1       0.654  12.022   5.356  0.00  0.00    +0.220 C 
ATOM     21  C   UNL     1      -0.229  10.917   3.233  0.00  0.00    +0.118 C 
ATOM     22  C   UNL     1      -1.140  10.293   5.297  0.00  0.00    +0.039 A 
ATOM     23  C   UNL     1      -1.304   9.861   2.950  0.00  0.00    +0.056 C 
ATOM     24  C   UNL     1      -1.801   9.543   4.323  0.00  0.00    -0.024 A 
ATOM     25  C   UNL     1      -1.460  10.143   6.639  0.00  0.00    +0.024 A 
ATOM     26  C   UNL     1      -2.792   8.634   4.661  0.00  0.00    +0.005 A 
ATOM     28  C   UNL     1      -2.458   9.228   6.989  0.00  0.00    +0.002 A 
ATOM     29  C   UNL     1      -3.120   8.479   6.007  0.00  0.00    +0.000 A 
ENDBRANCH  18  19
ENDBRANCH  16  18
ENDBRANCH  11  16
TORSDOF 5
ENDMDL
MODEL 8
REMARK VINA RESULT:      -6.3     17.226     19.704
REMARK  Name = 26762210
REMARK  5 active torsions:
REMARK  status: ('A' for Active; 'I' for Inactive)
REMARK    1  A    between atoms: N_7  and  C_12
REMARK    2  A    between atoms: N_9  and  C_27
REMARK    3  A    between atoms: C_11  and  C_16
REMARK    4  A    between atoms: C_16  and  C_18
REMARK    5  A    between atoms: C_18  and  C_19
REMARK                            x       y       z     vdW  Elec       q    Type
REMARK                         _______ _______ _______ _____ _____    ______ ____
ROOT
ATOM      2  O   UNL     1      21.193  11.151  21.387  0.00  0.00    -0.274 OA
ATOM      5  N   UNL     1      19.704   8.184  22.272  0.00  0.00    -0.285 NA
ATOM      6  N   UNL     1      19.054  10.418  20.908  0.00  0.00    -0.313 N 
ATOM     10  C   UNL     1      20.191   9.456  22.803  0.00  0.00    +0.145 C 
ATOM     11  C   UNL     1      18.303   8.227  21.841  0.00  0.00    +0.075 C 
ATOM     12  C   UNL     1      21.444   7.575  23.687  0.00  0.00    +0.090 C 
ATOM     13  C   UNL     1      21.541   9.081  23.407  0.00  0.00    +0.052 C 
ATOM     14  C   UNL     1      20.019   7.185  23.288  0.00  0.00    +0.107 C 
ATOM     15  C   UNL     1      17.909   9.637  21.346  0.00  0.00    +0.123 C 
ATOM     17  C   UNL     1      20.236  10.423  21.635  0.00  0.00    +0.230 C 
ATOM     35  H   UNL     1      18.954  11.049  20.119  0.00  0.00    +0.149 HD
ENDROOT
BRANCH  12   7
ATOM      4  O   UNL     1      21.952   4.757  23.823  0.00  0.00    -0.253 OA
ATOM      7  N   UNL     1      22.428   6.836  22.931  0.00  0.00    -0.295 N 
ATOM      9  N   UNL     1      23.631   5.019  22.205  0.00  0.00    -0.269 N 
ATOM     20  C   UNL     1      22.613   5.454  23.058  0.00  0.00    +0.304 C 
ATOM     36  H   UNL     1      22.951   7.326  22.211  0.00  0.00    +0.151 HD
ATOM     37  H   UNL     1      24.082   5.730  21.632  0.00  0.00    +0.156 HD
BRANCH   9  27
ATOM      1 CL   UNL     1      27.044   1.418  23.529  0.00  0.00    -0.083 Cl
ATOM     27  C   UNL     1      24.118   3.702  22.035  0.00  0.00    +0.036 A 
ATOM     30  C   UNL     1      25.212   3.262  22.780  0.00  0.00    +0.043 A 
ATOM     31  C   UNL     1      23.503   2.844  21.125  0.00  0.00    +0.023 A 
ATOM     32  C   UNL     1      25.692   1.962  22.612  0.00  0.00    +0.043 A 
ATOM     33  C   UNL     1      23.983   1.545  20.957  0.00  0.00    +0.003 A 
ATOM     34  C   UNL     1      25.077   1.103  21.701  0.00  0.00    +0.020 A 
ENDBRANCH   9  27
ENDBRANCH  12   7
BRANCH  11  16
ATOM     16  C   UNL     1      18.105   7.199  20.725  0.00  0.00    +0.029 C 
BRANCH  16  18
ATOM     18  C   UNL     1      16.890   6.315  20.958  0.00  0.00    +0.098 C 
BRANCH  18  19
ATOM      3  O   UNL     1      15.973   6.211  18.775  0.00  0.00    -0.275 OA
ATOM      8  N   UNL     1      14.705   7.270  20.424  0.00  0.00    -0.271 N 
ATOM     19  C   UNL     1      15.813   6.590  19.936  0.00  0.00    +0.220 C 
ATOM     21  C   UNL     1      14.516   7.723  21.818  0.00  0.00    +0.118 C 
ATOM     22  C   UNL     1      13.569   7.645  19.678  0.00  0.00    +0.039 A 
ATOM     23  C   UNL     1      13.152   8.418  21.902  0.00  0.00    +0.056 C 
ATOM     24  C   UNL     1      12.656   8.309  20.497  0.00  0.00    -0.024 A 
ATOM     25  C   UNL     1      13.293   7.441  18.334  0.00  0.00    +0.024 A 
ATOM     26  C   UNL     1      11.451   8.782  20.000  0.00  0.00    +0.005 A 
ATOM     28  C   UNL     1      12.080   7.915  17.823  0.00  0.00    +0.002 A 
ATOM     29  C   UNL     1      11.165   8.581  18.650  0.00  0.00    +0.000 A 
ENDBRANCH  18  19
ENDBRANCH  16  18
ENDBRANCH  11  16
TORSDOF 5
ENDMDL
MODEL 9
REMARK VINA RESULT:      -6.2     24.914     28.036
REMARK  Name = 26762210
REMARK  5 active torsions:
REMARK  status: ('A' for Active; 'I' for Inactive)
REMARK    1  A    between atoms: N_7  and  C_12
REMARK    2  A    between atoms: N_9  and  C_27
REMARK    3  A    between atoms: C_11  and  C_16
REMARK    4  A    between atoms: C_16  and  C_18
REMARK    5  A    between atoms: C_18  and  C_19
REMARK                            x       y       z     vdW  Elec       q    Type
REMARK                         _______ _______ _______ _____ _____    ______ ____
ROOT
ATOM      2  O   UNL     1      -7.899 -13.951  18.344  0.00  0.00    -0.274 OA
ATOM      5  N   UNL     1      -7.025 -10.754  17.437  0.00  0.00    -0.285 NA
ATOM      6  N   UNL     1      -5.860 -12.893  18.598  0.00  0.00    -0.313 N 
ATOM     10  C   UNL     1      -7.834 -11.526  18.378  0.00  0.00    +0.145 C 
ATOM     11  C   UNL     1      -5.660 -10.501  17.909  0.00  0.00    +0.075 C 
ATOM     12  C   UNL     1      -9.210 -10.155  16.924  0.00  0.00    +0.090 C 
ATOM     13  C   UNL     1      -9.237 -11.423  17.789  0.00  0.00    +0.052 C 
ATOM     14  C   UNL     1      -7.812  -9.567  17.121  0.00  0.00    +0.107 C 
ATOM     15  C   UNL     1      -5.160 -11.640  18.827  0.00  0.00    +0.123 C 
ATOM     17  C   UNL     1      -7.236 -12.921  18.420  0.00  0.00    +0.230 C 
ATOM     35  H   UNL     1      -5.351 -13.768  18.673  0.00  0.00    +0.149 HD
ENDROOT
BRANCH  12   7
ATOM      4  O   UNL     1      -9.877  -8.290  14.852  0.00  0.00    -0.253 OA
ATOM      7  N   UNL     1      -9.468 -10.460  15.536  0.00  0.00    -0.295 N 
ATOM      9  N   UNL     1      -9.984 -10.074  13.331  0.00  0.00    -0.269 N 
ATOM     20  C   UNL     1      -9.789  -9.486  14.584  0.00  0.00    +0.304 C 
ATOM     36  H   UNL     1      -9.326 -11.414  15.217  0.00  0.00    +0.151 HD
ATOM     37  H   UNL     1      -9.872 -11.084  13.279  0.00  0.00    +0.156 HD
BRANCH   9  27
ATOM      1 CL   UNL     1      -8.609  -8.760   8.561  0.00  0.00    -0.083 Cl
ATOM     27  C   UNL     1     -10.319  -9.436  12.114  0.00  0.00    +0.036 A 
ATOM     30  C   UNL     1      -9.405  -9.417  11.061  0.00  0.00    +0.043 A 
ATOM     31  C   UNL     1     -11.565  -8.827  11.968  0.00  0.00    +0.023 A 
ATOM     32  C   UNL     1      -9.738  -8.786   9.862  0.00  0.00    +0.043 A 
ATOM     33  C   UNL     1     -11.897  -8.197  10.769  0.00  0.00    +0.003 A 
ATOM     34  C   UNL     1     -10.983  -8.176   9.715  0.00  0.00    +0.020 A 
ENDBRANCH   9  27
ENDBRANCH  12   7
BRANCH  11  16
ATOM     16  C   UNL     1      -4.742 -10.360  16.693  0.00  0.00    +0.029 C 
BRANCH  16  18
ATOM     18  C   UNL     1      -5.073 -11.359  15.595  0.00  0.00    +0.098 C 
BRANCH  18  19
ATOM      3  O   UNL     1      -6.562 -10.244  14.126  0.00  0.00    -0.275 OA
ATOM      8  N   UNL     1      -4.361 -10.537  13.408  0.00  0.00    -0.271 N 
ATOM     19  C   UNL     1      -5.415 -10.655  14.303  0.00  0.00    +0.220 C 
ATOM     21  C   UNL     1      -2.985 -11.031  13.623  0.00  0.00    +0.118 C 
ATOM     22  C   UNL     1      -4.419  -9.925  12.138  0.00  0.00    +0.039 A 
ATOM     23  C   UNL     1      -2.160 -10.675  12.380  0.00  0.00    +0.056 C 
ATOM     24  C   UNL     1      -3.170  -9.989  11.519  0.00  0.00    -0.024 A 
ATOM     25  C   UNL     1      -5.493  -9.322  11.500  0.00  0.00    +0.024 A 
ATOM     26  C   UNL     1      -2.962  -9.454  10.256  0.00  0.00    +0.005 A 
ATOM     28  C   UNL     1      -5.293  -8.782  10.225  0.00  0.00    +0.002 A 
ATOM     29  C   UNL     1      -4.037  -8.846   9.607  0.00  0.00    +0.000 A 
ENDBRANCH  18  19
ENDBRANCH  16  18
ENDBRANCH  11  16
TORSDOF 5
ENDMDL
MODEL 10
REMARK VINA RESULT:      -6.2     25.445     28.800
REMARK  Name = 26762210
REMARK  5 active torsions:
REMARK  status: ('A' for Active; 'I' for Inactive)
REMARK    1  A    between atoms: N_7  and  C_12
REMARK    2  A    between atoms: N_9  and  C_27
REMARK    3  A    between atoms: C_11  and  C_16
REMARK    4  A    between atoms: C_16  and  C_18
REMARK    5  A    between atoms: C_18  and  C_19
REMARK                            x       y       z     vdW  Elec       q    Type
REMARK                         _______ _______ _______ _____ _____    ______ ____
ROOT
ATOM      2  O   UNL     1     -10.931 -11.720  14.581  0.00  0.00    -0.274 OA
ATOM      5  N   UNL     1      -9.778  -9.389  16.828  0.00  0.00    -0.285 NA
ATOM      6  N   UNL     1      -9.088 -11.852  15.969  0.00  0.00    -0.313 N 
ATOM     10  C   UNL     1     -10.863 -10.336  16.572  0.00  0.00    +0.145 C 
ATOM     11  C   UNL     1      -8.650  -9.975  17.557  0.00  0.00    +0.075 C 
ATOM     12  C   UNL     1     -11.660  -8.044  16.607  0.00  0.00    +0.090 C 
ATOM     13  C   UNL     1     -11.986  -9.441  16.058  0.00  0.00    +0.052 C 
ATOM     14  C   UNL     1     -10.405  -8.233  17.460  0.00  0.00    +0.107 C 
ATOM     15  C   UNL     1      -8.495 -11.481  17.243  0.00  0.00    +0.123 C 
ATOM     17  C   UNL     1     -10.325 -11.353  15.583  0.00  0.00    +0.230 C 
ATOM     35  H   UNL     1      -8.641 -12.564  15.401  0.00  0.00    +0.149 HD
ENDROOT
BRANCH  12   7
ATOM      4  O   UNL     1     -13.667  -6.645  15.114  0.00  0.00    -0.253 OA
ATOM      7  N   UNL     1     -11.440  -7.099  15.538  0.00  0.00    -0.295 N 
ATOM      9  N   UNL     1     -11.967  -5.601  13.878  0.00  0.00    -0.269 N 
ATOM     20  C   UNL     1     -12.481  -6.457  14.857  0.00  0.00    +0.304 C 
ATOM     36  H   UNL     1     -10.487  -6.820  15.329  0.00  0.00    +0.151 HD
ATOM     37  H   UNL     1     -10.954  -5.560  13.794  0.00  0.00    +0.156 HD
BRANCH   9  27
ATOM      1 CL   UNL     1     -12.325  -3.494   9.209  0.00  0.00    -0.083 Cl
ATOM     27  C   UNL     1     -12.686  -4.776  12.981  0.00  0.00    +0.036 A 
ATOM     30  C   UNL     1     -12.207  -4.568  11.688  0.00  0.00    +0.043 A 
ATOM     31  C   UNL     1     -13.875  -4.173  13.391  0.00  0.00    +0.023 A 
ATOM     32  C   UNL     1     -12.917  -3.754  10.805  0.00  0.00    +0.043 A 
ATOM     33  C   UNL     1     -14.585  -3.360  12.507  0.00  0.00    +0.003 A 
ATOM     34  C   UNL     1     -14.106  -3.150  11.214  0.00  0.00    +0.020 A 
ENDBRANCH   9  27
ENDBRANCH  12   7
BRANCH  11  16
ATOM     16  C   UNL     1      -7.375  -9.221  17.170  0.00  0.00    +0.029 C 
BRANCH  16  18
ATOM     18  C   UNL     1      -6.222 -10.157  16.844  0.00  0.00    +0.098 C 
BRANCH  18  19
ATOM      3  O   UNL     1      -6.844  -9.946  14.566  0.00  0.00    -0.275 OA
ATOM      8  N   UNL     1      -4.608 -10.429  15.030  0.00  0.00    -0.271 N 
ATOM     19  C   UNL     1      -5.930 -10.165  15.362  0.00  0.00    +0.220 C 
ATOM     21  C   UNL     1      -3.513 -10.691  15.986  0.00  0.00    +0.118 C 
ATOM     22  C   UNL     1      -4.080 -10.492  13.723  0.00  0.00    +0.039 A 
ATOM     23  C   UNL     1      -2.231 -10.922  15.178  0.00  0.00    +0.056 C 
ATOM     24  C   UNL     1      -2.715 -10.776  13.772  0.00  0.00    -0.024 A 
ATOM     25  C   UNL     1      -4.721 -10.319  12.506  0.00  0.00    +0.024 A 
ATOM     26  C   UNL     1      -1.960 -10.891  12.615  0.00  0.00    +0.005 A 
ATOM     28  C   UNL     1      -3.968 -10.434  11.333  0.00  0.00    +0.002 A 
ATOM     29  C   UNL     1      -2.596 -10.718  11.386  0.00  0.00    +0.000 A 
ENDBRANCH  18  19
ENDBRANCH  16  18
ENDBRANCH  11  16
TORSDOF 5
ENDMDL
