MODEL 1
REMARK VINA RESULT:      -6.9      0.000      0.000
REMARK  Name = 26743108
REMARK  8 active torsions:
REMARK  status: ('A' for Active; 'I' for Inactive)
REMARK    1  A    between atoms: S_1  and  C_24
REMARK    2  A    between atoms: S_1  and  C_25
REMARK    3  A    between atoms: N_6  and  C_22
REMARK    4  A    between atoms: C_8  and  C_12
REMARK    5  A    between atoms: C_9  and  C_14
REMARK    6  A    between atoms: C_12  and  C_15
REMARK    7  A    between atoms: C_14  and  C_16
REMARK    8  A    between atoms: C_23  and  C_24
REMARK                            x       y       z     vdW  Elec       q    Type
REMARK                         _______ _______ _______ _____ _____    ______ ____
ROOT
ATOM      4  N   UNL     1      12.004   7.309  17.321  0.00  0.00    -0.316 NA
ATOM      8  C   UNL     1      13.560   9.056  19.120  0.00  0.00    +0.004 C 
ATOM      9  C   UNL     1      13.714   7.516  19.109  0.00  0.00    +0.012 C 
ATOM     10  C   UNL     1      13.027   9.516  17.753  0.00  0.00    +0.019 C 
ATOM     11  C   UNL     1      12.429   6.819  18.632  0.00  0.00    +0.085 C 
ATOM     13  C   UNL     1      11.773   8.753  17.328  0.00  0.00    +0.081 C 
ATOM     31  H   UNL     1      11.147   6.833  17.043  0.00  0.00    +0.122 HD
ENDROOT
BRANCH   8  12
ATOM     12  C   UNL     1      12.678   9.586  20.257  0.00  0.00    +0.100 C 
BRANCH  12  15
ATOM      2  O   UNL     1      14.668  10.664  20.961  0.00  0.00    -0.276 OA
ATOM      5  N   UNL     1      12.946  10.547  22.516  0.00  0.00    -0.299 N 
ATOM      6  N   UNL     1      11.600  11.730  24.752  0.00  0.00    -0.302 NA
ATOM     15  C   UNL     1      13.526  10.313  21.270  0.00  0.00    +0.216 C 
ATOM     17  C   UNL     1      13.702  11.250  23.551  0.00  0.00    +0.123 C 
ATOM     18  C   UNL     1      11.648  10.029  22.957  0.00  0.00    +0.123 C 
ATOM     19  C   UNL     1      12.847  12.315  24.237  0.00  0.00    +0.103 C 
ATOM     20  C   UNL     1      10.831  11.114  23.660  0.00  0.00    +0.103 C 
ATOM     22  C   UNL     1      10.801  12.744  25.437  0.00  0.00    +0.105 C 
ENDBRANCH  12  15
ENDBRANCH   8  12
BRANCH   9  14
ATOM     14  C   UNL     1      14.165   6.949  20.456  0.00  0.00    +0.064 C 
BRANCH  14  16
ATOM      3  O   UNL     1      17.717   6.503  20.068  0.00  0.00    -0.359 OA
ATOM      7  N   UNL     1      16.401   6.304  19.667  0.00  0.00    -0.083 NA
ATOM     16  C   UNL     1      15.662   6.948  20.576  0.00  0.00    +0.084 A 
ATOM     21  C   UNL     1      16.448   7.564  21.563  0.00  0.00    +0.071 A 
ATOM     23  C   UNL     1      17.731   7.255  21.199  0.00  0.00    +0.148 A 
BRANCH  23  24
ATOM     24  C   UNL     1      19.051   7.562  21.764  0.00  0.00    +0.151 C 
BRANCH  24   1
ATOM      1  S   UNL     1      20.426   7.225  20.607  0.00  0.00    -0.117 S 
BRANCH   1  25
ATOM     25  C   UNL     1      21.100   5.724  21.305  0.00  0.00    +0.008 A 
ATOM     26  C   UNL     1      21.015   4.526  20.595  0.00  0.00    +0.015 A 
ATOM     27  C   UNL     1      21.711   5.750  22.558  0.00  0.00    +0.015 A 
ATOM     28  C   UNL     1      21.541   3.354  21.139  0.00  0.00    +0.001 A 
ATOM     29  C   UNL     1      22.236   4.579  23.103  0.00  0.00    +0.001 A 
ATOM     30  C   UNL     1      22.151   3.381  22.393  0.00  0.00    +0.000 A 
ENDBRANCH   1  25
ENDBRANCH  24   1
ENDBRANCH  23  24
ENDBRANCH  14  16
ENDBRANCH   9  14
TORSDOF 7
ENDMDL
MODEL 2
REMARK VINA RESULT:      -6.9      3.685     10.512
REMARK  Name = 26743108
REMARK  8 active torsions:
REMARK  status: ('A' for Active; 'I' for Inactive)
REMARK    1  A    between atoms: S_1  and  C_24
REMARK    2  A    between atoms: S_1  and  C_25
REMARK    3  A    between atoms: N_6  and  C_22
REMARK    4  A    between atoms: C_8  and  C_12
REMARK    5  A    between atoms: C_9  and  C_14
REMARK    6  A    between atoms: C_12  and  C_15
REMARK    7  A    between atoms: C_14  and  C_16
REMARK    8  A    between atoms: C_23  and  C_24
REMARK                            x       y       z     vdW  Elec       q    Type
REMARK                         _______ _______ _______ _____ _____    ______ ____
ROOT
ATOM      4  N   UNL     1      20.985   9.345  21.663  0.00  0.00    -0.316 NA
ATOM      8  C   UNL     1      21.021   6.546  20.727  0.00  0.00    +0.004 C 
ATOM      9  C   UNL     1      19.709   7.327  20.982  0.00  0.00    +0.012 C 
ATOM     10  C   UNL     1      22.151   7.547  20.433  0.00  0.00    +0.019 C 
ATOM     11  C   UNL     1      19.901   8.434  22.032  0.00  0.00    +0.085 C 
ATOM     13  C   UNL     1      22.255   8.639  21.498  0.00  0.00    +0.081 C 
ATOM     31  H   UNL     1      21.088  10.058  22.385  0.00  0.00    +0.122 HD
ENDROOT
BRANCH   8  12
ATOM     12  C   UNL     1      21.414   5.599  21.868  0.00  0.00    +0.100 C 
BRANCH  12  15
ATOM      2  O   UNL     1      20.862   3.538  20.835  0.00  0.00    -0.276 OA
ATOM      5  N   UNL     1      23.098   3.862  21.374  0.00  0.00    -0.299 N 
ATOM      6  N   UNL     1      25.849   3.350  20.760  0.00  0.00    -0.302 NA
ATOM     15  C   UNL     1      21.758   4.240  21.313  0.00  0.00    +0.216 C 
ATOM     17  C   UNL     1      23.513   2.561  20.853  0.00  0.00    +0.123 C 
ATOM     18  C   UNL     1      24.160   4.612  22.051  0.00  0.00    +0.123 C 
ATOM     19  C   UNL     1      24.779   2.680  20.006  0.00  0.00    +0.103 C 
ATOM     20  C   UNL     1      25.418   4.690  21.185  0.00  0.00    +0.103 C 
ATOM     22  C   UNL     1      27.069   3.432  19.958  0.00  0.00    +0.105 C 
ENDBRANCH  12  15
ENDBRANCH   8  12
BRANCH   9  14
ATOM     14  C   UNL     1      18.538   6.421  21.364  0.00  0.00    +0.064 C 
BRANCH  14  16
ATOM      3  O   UNL     1      16.422   5.940  18.491  0.00  0.00    -0.359 OA
ATOM      7  N   UNL     1      17.566   5.675  19.234  0.00  0.00    -0.083 NA
ATOM     16  C   UNL     1      17.461   6.449  20.318  0.00  0.00    +0.084 A 
ATOM     21  C   UNL     1      16.284   7.216  20.313  0.00  0.00    +0.071 A 
ATOM     23  C   UNL     1      15.666   6.859  19.144  0.00  0.00    +0.148 A 
BRANCH  23  24
ATOM     24  C   UNL     1      14.412   7.257  18.494  0.00  0.00    +0.151 C 
BRANCH  24   1
ATOM      1  S   UNL     1      13.755   8.849  19.107  0.00  0.00    -0.117 S 
BRANCH   1  25
ATOM     25  C   UNL     1      12.508   8.285  20.255  0.00  0.00    +0.008 A 
ATOM     26  C   UNL     1      11.730   9.211  20.950  0.00  0.00    +0.015 A 
ATOM     27  C   UNL     1      12.313   6.919  20.458  0.00  0.00    +0.015 A 
ATOM     28  C   UNL     1      10.756   8.772  21.847  0.00  0.00    +0.001 A 
ATOM     29  C   UNL     1      11.340   6.479  21.355  0.00  0.00    +0.001 A 
ATOM     30  C   UNL     1      10.562   7.405  22.049  0.00  0.00    +0.000 A 
ENDBRANCH   1  25
ENDBRANCH  24   1
ENDBRANCH  23  24
ENDBRANCH  14  16
ENDBRANCH   9  14
TORSDOF 7
ENDMDL
MODEL 3
REMARK VINA RESULT:      -6.7      5.236      6.342
REMARK  Name = 26743108
REMARK  8 active torsions:
REMARK  status: ('A' for Active; 'I' for Inactive)
REMARK    1  A    between atoms: S_1  and  C_24
REMARK    2  A    between atoms: S_1  and  C_25
REMARK    3  A    between atoms: N_6  and  C_22
REMARK    4  A    between atoms: C_8  and  C_12
REMARK    5  A    between atoms: C_9  and  C_14
REMARK    6  A    between atoms: C_12  and  C_15
REMARK    7  A    between atoms: C_14  and  C_16
REMARK    8  A    between atoms: C_23  and  C_24
REMARK                            x       y       z     vdW  Elec       q    Type
REMARK                         _______ _______ _______ _____ _____    ______ ____
ROOT
ATOM      4  N   UNL     1      11.711   6.326  20.214  0.00  0.00    -0.316 NA
ATOM      8  C   UNL     1      12.268   9.011  19.124  0.00  0.00    +0.004 C 
ATOM      9  C   UNL     1      12.733   7.711  18.424  0.00  0.00    +0.012 C 
ATOM     10  C   UNL     1      11.050   8.697  20.007  0.00  0.00    +0.019 C 
ATOM     11  C   UNL     1      12.923   6.562  19.428  0.00  0.00    +0.085 C 
ATOM     13  C   UNL     1      11.299   7.520  20.950  0.00  0.00    +0.081 C 
ATOM     31  H   UNL     1      11.877   5.566  20.872  0.00  0.00    +0.122 HD
ENDROOT
BRANCH   8  12
ATOM     12  C   UNL     1      13.367   9.708  19.936  0.00  0.00    +0.100 C 
BRANCH  12  15
ATOM      2  O   UNL     1      13.123  11.863  18.980  0.00  0.00    -0.276 OA
ATOM      5  N   UNL     1      12.804  11.705  21.276  0.00  0.00    -0.299 N 
ATOM      6  N   UNL     1      11.475  12.675  23.621  0.00  0.00    -0.302 NA
ATOM     15  C   UNL     1      13.090  11.188  20.013  0.00  0.00    +0.216 C 
ATOM     17  C   UNL     1      12.520  13.130  21.432  0.00  0.00    +0.123 C 
ATOM     18  C   UNL     1      12.886  10.959  22.535  0.00  0.00    +0.123 C 
ATOM     19  C   UNL     1      11.305  13.359  22.331  0.00  0.00    +0.103 C 
ATOM     20  C   UNL     1      11.667  11.231  23.417  0.00  0.00    +0.103 C 
ATOM     22  C   UNL     1      10.326  12.924  24.490  0.00  0.00    +0.105 C 
ENDBRANCH  12  15
ENDBRANCH   8  12
BRANCH   9  14
ATOM     14  C   UNL     1      13.994   7.902  17.581  0.00  0.00    +0.064 C 
BRANCH  14  16
ATOM      3  O   UNL     1      12.942   9.974  14.831  0.00  0.00    -0.359 OA
ATOM      7  N   UNL     1      12.849   8.830  15.615  0.00  0.00    -0.083 NA
ATOM     16  C   UNL     1      13.802   8.969  16.542  0.00  0.00    +0.084 A 
ATOM     21  C   UNL     1      14.520  10.167  16.394  0.00  0.00    +0.071 A 
ATOM     23  C   UNL     1      13.940  10.762  15.305  0.00  0.00    +0.148 A 
BRANCH  23  24
ATOM     24  C   UNL     1      14.177  12.021  14.588  0.00  0.00    +0.151 C 
BRANCH  24   1
ATOM      1  S   UNL     1      14.921  13.320  15.637  0.00  0.00    -0.117 S 
BRANCH   1  25
ATOM     25  C   UNL     1      16.654  12.894  15.531  0.00  0.00    +0.008 A 
ATOM     26  C   UNL     1      17.147  12.261  14.390  0.00  0.00    +0.015 A 
ATOM     27  C   UNL     1      17.512  13.194  16.588  0.00  0.00    +0.015 A 
ATOM     28  C   UNL     1      18.499  11.928  14.306  0.00  0.00    +0.001 A 
ATOM     29  C   UNL     1      18.864  12.862  16.506  0.00  0.00    +0.001 A 
ATOM     30  C   UNL     1      19.357  12.229  15.365  0.00  0.00    +0.000 A 
ENDBRANCH   1  25
ENDBRANCH  24   1
ENDBRANCH  23  24
ENDBRANCH  14  16
ENDBRANCH   9  14
TORSDOF 7
ENDMDL
MODEL 4
REMARK VINA RESULT:      -6.7      2.176      2.512
REMARK  Name = 26743108
REMARK  8 active torsions:
REMARK  status: ('A' for Active; 'I' for Inactive)
REMARK    1  A    between atoms: S_1  and  C_24
REMARK    2  A    between atoms: S_1  and  C_25
REMARK    3  A    between atoms: N_6  and  C_22
REMARK    4  A    between atoms: C_8  and  C_12
REMARK    5  A    between atoms: C_9  and  C_14
REMARK    6  A    between atoms: C_12  and  C_15
REMARK    7  A    between atoms: C_14  and  C_16
REMARK    8  A    between atoms: C_23  and  C_24
REMARK                            x       y       z     vdW  Elec       q    Type
REMARK                         _______ _______ _______ _____ _____    ______ ____
ROOT
ATOM      4  N   UNL     1      12.096   6.135  21.297  0.00  0.00    -0.316 NA
ATOM      8  C   UNL     1      12.310   8.853  20.166  0.00  0.00    +0.004 C 
ATOM      9  C   UNL     1      13.436   7.800  20.032  0.00  0.00    +0.012 C 
ATOM     10  C   UNL     1      10.969   8.130  20.371  0.00  0.00    +0.019 C 
ATOM     11  C   UNL     1      13.403   6.783  21.185  0.00  0.00    +0.085 C 
ATOM     13  C   UNL     1      11.024   7.108  21.507  0.00  0.00    +0.081 C 
ATOM     31  H   UNL     1      12.110   5.477  22.075  0.00  0.00    +0.122 HD
ENDROOT
BRANCH   8  12
ATOM     12  C   UNL     1      12.550   9.884  21.276  0.00  0.00    +0.100 C 
BRANCH  12  15
ATOM      2  O   UNL     1      12.797  11.452  19.515  0.00  0.00    -0.276 OA
ATOM      5  N   UNL     1      12.124  12.298  21.571  0.00  0.00    -0.299 N 
ATOM      6  N   UNL     1      10.639  14.272  23.023  0.00  0.00    -0.302 NA
ATOM     15  C   UNL     1      12.505  11.277  20.701  0.00  0.00    +0.216 C 
ATOM     17  C   UNL     1      12.052  13.677  21.089  0.00  0.00    +0.123 C 
ATOM     18  C   UNL     1      11.900  12.145  23.011  0.00  0.00    +0.123 C 
ATOM     19  C   UNL     1      10.771  14.363  21.561  0.00  0.00    +0.103 C 
ATOM     20  C   UNL     1      10.625  12.865  23.451  0.00  0.00    +0.103 C 
ATOM     22  C   UNL     1       9.430  14.959  23.473  0.00  0.00    +0.105 C 
ENDBRANCH  12  15
ENDBRANCH   8  12
BRANCH   9  14
ATOM     14  C   UNL     1      14.826   8.422  19.904  0.00  0.00    +0.064 C 
BRANCH  14  16
ATOM      3  O   UNL     1      16.801   5.623  18.794  0.00  0.00    -0.359 OA
ATOM      7  N   UNL     1      15.649   6.402  18.773  0.00  0.00    -0.083 NA
ATOM     16  C   UNL     1      15.875   7.375  19.661  0.00  0.00    +0.084 A 
ATOM     21  C   UNL     1      17.137   7.263  20.267  0.00  0.00    +0.071 A 
ATOM     23  C   UNL     1      17.679   6.147  19.687  0.00  0.00    +0.148 A 
BRANCH  23  24
ATOM     24  C   UNL     1      18.959   5.442  19.836  0.00  0.00    +0.151 C 
BRANCH  24   1
ATOM      1  S   UNL     1      20.085   6.240  21.036  0.00  0.00    -0.117 S 
BRANCH   1  25
ATOM     25  C   UNL     1      21.514   5.172  20.924  0.00  0.00    +0.008 A 
ATOM     26  C   UNL     1      22.736   5.687  20.491  0.00  0.00    +0.015 A 
ATOM     27  C   UNL     1      21.407   3.826  21.271  0.00  0.00    +0.015 A 
ATOM     28  C   UNL     1      23.852   4.854  20.403  0.00  0.00    +0.001 A 
ATOM     29  C   UNL     1      22.522   2.992  21.183  0.00  0.00    +0.001 A 
ATOM     30  C   UNL     1      23.744   3.507  20.750  0.00  0.00    +0.000 A 
ENDBRANCH   1  25
ENDBRANCH  24   1
ENDBRANCH  23  24
ENDBRANCH  14  16
ENDBRANCH   9  14
TORSDOF 7
ENDMDL
MODEL 5
REMARK VINA RESULT:      -6.7     27.403     31.383
REMARK  Name = 26743108
REMARK  8 active torsions:
REMARK  status: ('A' for Active; 'I' for Inactive)
REMARK    1  A    between atoms: S_1  and  C_24
REMARK    2  A    between atoms: S_1  and  C_25
REMARK    3  A    between atoms: N_6  and  C_22
REMARK    4  A    between atoms: C_8  and  C_12
REMARK    5  A    between atoms: C_9  and  C_14
REMARK    6  A    between atoms: C_12  and  C_15
REMARK    7  A    between atoms: C_14  and  C_16
REMARK    8  A    between atoms: C_23  and  C_24
REMARK                            x       y       z     vdW  Elec       q    Type
REMARK                         _______ _______ _______ _____ _____    ______ ____
ROOT
ATOM      4  N   UNL     1      -9.164 -11.898  19.213  0.00  0.00    -0.316 NA
ATOM      8  C   UNL     1      -6.512 -10.798  18.531  0.00  0.00    +0.004 C 
ATOM      9  C   UNL     1      -7.835 -10.135  18.076  0.00  0.00    +0.012 C 
ATOM     10  C   UNL     1      -6.777 -11.633  19.794  0.00  0.00    +0.019 C 
ATOM     11  C   UNL     1      -8.974 -11.161  17.963  0.00  0.00    +0.085 C 
ATOM     13  C   UNL     1      -7.947 -12.601  19.619  0.00  0.00    +0.081 C 
ATOM     31  H   UNL     1      -9.919 -12.572  19.097  0.00  0.00    +0.122 HD
ENDROOT
BRANCH   8  12
ATOM     12  C   UNL     1      -5.836 -11.647  17.447  0.00  0.00    +0.100 C 
BRANCH  12  15
ATOM      2  O   UNL     1      -3.698 -11.613  18.470  0.00  0.00    -0.276 OA
ATOM      5  N   UNL     1      -3.800 -10.915  16.256  0.00  0.00    -0.299 N 
ATOM      6  N   UNL     1      -2.504 -10.697  13.711  0.00  0.00    -0.302 NA
ATOM     15  C   UNL     1      -4.350 -11.392  17.446  0.00  0.00    +0.216 C 
ATOM     17  C   UNL     1      -2.365 -10.646  16.174  0.00  0.00    +0.123 C 
ATOM     18  C   UNL     1      -4.562 -10.517  15.070  0.00  0.00    +0.123 C 
ATOM     19  C   UNL     1      -1.770 -11.202  14.880  0.00  0.00    +0.103 C 
ATOM     20  C   UNL     1      -3.924 -11.070  13.795  0.00  0.00    +0.103 C 
ATOM     22  C   UNL     1      -1.911 -11.204  12.474  0.00  0.00    +0.105 C 
ENDBRANCH  12  15
ENDBRANCH   8  12
BRANCH   9  14
ATOM     14  C   UNL     1      -7.693  -9.344  16.776  0.00  0.00    +0.064 C 
BRANCH  14  16
ATOM      3  O   UNL     1     -10.737  -7.428  16.627  0.00  0.00    -0.359 OA
ATOM      7  N   UNL     1      -9.601  -7.883  17.286  0.00  0.00    -0.083 NA
ATOM     16  C   UNL     1      -8.981  -8.670  16.402  0.00  0.00    +0.084 A 
ATOM     21  C   UNL     1      -9.672  -8.749  15.181  0.00  0.00    +0.071 A 
ATOM     23  C   UNL     1     -10.768  -7.951  15.375  0.00  0.00    +0.148 A 
BRANCH  23  24
ATOM     24  C   UNL     1     -11.910  -7.570  14.535  0.00  0.00    +0.151 C 
BRANCH  24   1
ATOM      1  S   UNL     1     -12.994  -6.321  15.314  0.00  0.00    -0.117 S 
BRANCH   1  25
ATOM     25  C   UNL     1     -13.247  -5.191  13.953  0.00  0.00    +0.008 A 
ATOM     26  C   UNL     1     -14.541  -4.897  13.522  0.00  0.00    +0.015 A 
ATOM     27  C   UNL     1     -12.151  -4.604  13.321  0.00  0.00    +0.015 A 
ATOM     28  C   UNL     1     -14.739  -4.016  12.459  0.00  0.00    +0.001 A 
ATOM     29  C   UNL     1     -12.348  -3.722  12.258  0.00  0.00    +0.001 A 
ATOM     30  C   UNL     1     -13.642  -3.428  11.828  0.00  0.00    +0.000 A 
ENDBRANCH   1  25
ENDBRANCH  24   1
ENDBRANCH  23  24
ENDBRANCH  14  16
ENDBRANCH   9  14
TORSDOF 7
ENDMDL
MODEL 6
REMARK VINA RESULT:      -6.5      2.224      4.932
REMARK  Name = 26743108
REMARK  8 active torsions:
REMARK  status: ('A' for Active; 'I' for Inactive)
REMARK    1  A    between atoms: S_1  and  C_24
REMARK    2  A    between atoms: S_1  and  C_25
REMARK    3  A    between atoms: N_6  and  C_22
REMARK    4  A    between atoms: C_8  and  C_12
REMARK    5  A    between atoms: C_9  and  C_14
REMARK    6  A    between atoms: C_12  and  C_15
REMARK    7  A    between atoms: C_14  and  C_16
REMARK    8  A    between atoms: C_23  and  C_24
REMARK                            x       y       z     vdW  Elec       q    Type
REMARK                         _______ _______ _______ _____ _____    ______ ____
ROOT
ATOM      4  N   UNL     1      11.265   9.211  23.341  0.00  0.00    -0.316 NA
ATOM      8  C   UNL     1      12.690   8.216  20.956  0.00  0.00    +0.004 C 
ATOM      9  C   UNL     1      13.349   9.158  21.992  0.00  0.00    +0.012 C 
ATOM     10  C   UNL     1      11.546   7.446  21.635  0.00  0.00    +0.019 C 
ATOM     11  C   UNL     1      12.306  10.027  22.715  0.00  0.00    +0.085 C 
ATOM     13  C   UNL     1      10.571   8.371  22.365  0.00  0.00    +0.081 C 
ATOM     31  H   UNL     1      10.589   9.820  23.801  0.00  0.00    +0.122 HD
ENDROOT
BRANCH   8  12
ATOM     12  C   UNL     1      12.195   8.929  19.692  0.00  0.00    +0.100 C 
BRANCH  12  15
ATOM      2  O   UNL     1      12.183   7.080  18.210  0.00  0.00    -0.276 OA
ATOM      5  N   UNL     1      13.627   8.822  17.684  0.00  0.00    -0.299 N 
ATOM      6  N   UNL     1      14.975  10.341  15.662  0.00  0.00    -0.302 NA
ATOM     15  C   UNL     1      12.663   8.188  18.466  0.00  0.00    +0.216 C 
ATOM     17  C   UNL     1      14.130   8.169  16.476  0.00  0.00    +0.123 C 
ATOM     18  C   UNL     1      14.311  10.071  18.029  0.00  0.00    +0.123 C 
ATOM     19  C   UNL     1      14.195   9.147  15.303  0.00  0.00    +0.103 C 
ATOM     20  C   UNL     1      14.379  11.013  16.827  0.00  0.00    +0.103 C 
ATOM     22  C   UNL     1      15.064  11.258  14.527  0.00  0.00    +0.105 C 
ENDBRANCH  12  15
ENDBRANCH   8  12
BRANCH   9  14
ATOM     14  C   UNL     1      14.452  10.031  21.393  0.00  0.00    +0.064 C 
BRANCH  14  16
ATOM      3  O   UNL     1      17.179   7.682  21.489  0.00  0.00    -0.359 OA
ATOM      7  N   UNL     1      15.825   7.995  21.488  0.00  0.00    -0.083 NA
ATOM     16  C   UNL     1      15.779   9.329  21.417  0.00  0.00    +0.084 A 
ATOM     21  C   UNL     1      17.060   9.905  21.372  0.00  0.00    +0.071 A 
ATOM     23  C   UNL     1      17.904   8.827  21.419  0.00  0.00    +0.148 A 
BRANCH  23  24
ATOM     24  C   UNL     1      19.364   8.678  21.410  0.00  0.00    +0.151 C 
BRANCH  24   1
ATOM      1  S   UNL     1      20.015   7.856  22.908  0.00  0.00    -0.117 S 
BRANCH   1  25
ATOM     25  C   UNL     1      20.645   6.334  22.215  0.00  0.00    +0.008 A 
ATOM     26  C   UNL     1      20.161   5.872  20.991  0.00  0.00    +0.015 A 
ATOM     27  C   UNL     1      21.619   5.607  22.900  0.00  0.00    +0.015 A 
ATOM     28  C   UNL     1      20.652   4.683  20.451  0.00  0.00    +0.001 A 
ATOM     29  C   UNL     1      22.111   4.419  22.360  0.00  0.00    +0.001 A 
ATOM     30  C   UNL     1      21.627   3.957  21.136  0.00  0.00    +0.000 A 
ENDBRANCH   1  25
ENDBRANCH  24   1
ENDBRANCH  23  24
ENDBRANCH  14  16
ENDBRANCH   9  14
TORSDOF 7
ENDMDL
MODEL 7
REMARK VINA RESULT:      -6.3     28.106     31.676
REMARK  Name = 26743108
REMARK  8 active torsions:
REMARK  status: ('A' for Active; 'I' for Inactive)
REMARK    1  A    between atoms: S_1  and  C_24
REMARK    2  A    between atoms: S_1  and  C_25
REMARK    3  A    between atoms: N_6  and  C_22
REMARK    4  A    between atoms: C_8  and  C_12
REMARK    5  A    between atoms: C_9  and  C_14
REMARK    6  A    between atoms: C_12  and  C_15
REMARK    7  A    between atoms: C_14  and  C_16
REMARK    8  A    between atoms: C_23  and  C_24
REMARK                            x       y       z     vdW  Elec       q    Type
REMARK                         _______ _______ _______ _____ _____    ______ ____
ROOT
ATOM      4  N   UNL     1     -18.454   5.573  22.436  0.00  0.00    -0.316 NA
ATOM      8  C   UNL     1     -15.603   5.191  21.777  0.00  0.00    +0.004 C 
ATOM      9  C   UNL     1     -16.265   4.560  23.026  0.00  0.00    +0.012 C 
ATOM     10  C   UNL     1     -16.684   5.457  20.717  0.00  0.00    +0.019 C 
ATOM     11  C   UNL     1     -17.473   5.382  23.505  0.00  0.00    +0.085 C 
ATOM     13  C   UNL     1     -17.870   6.244  21.276  0.00  0.00    +0.081 C 
ATOM     31  H   UNL     1     -19.234   6.128  22.788  0.00  0.00    +0.122 HD
ENDROOT
BRANCH   8  12
ATOM     12  C   UNL     1     -14.803   6.466  22.074  0.00  0.00    +0.100 C 
BRANCH  12  15
ATOM      2  O   UNL     1     -12.694   5.384  22.024  0.00  0.00    -0.276 OA
ATOM      5  N   UNL     1     -12.942   7.239  20.646  0.00  0.00    -0.299 N 
ATOM      6  N   UNL     1     -12.231   8.577  18.215  0.00  0.00    -0.302 NA
ATOM     15  C   UNL     1     -13.386   6.308  21.586  0.00  0.00    +0.216 C 
ATOM     17  C   UNL     1     -11.580   7.151  20.121  0.00  0.00    +0.123 C 
ATOM     18  C   UNL     1     -13.689   8.420  20.207  0.00  0.00    +0.123 C 
ATOM     19  C   UNL     1     -11.559   7.329  18.603  0.00  0.00    +0.103 C 
ATOM     20  C   UNL     1     -13.624   8.579  18.687  0.00  0.00    +0.103 C 
ATOM     22  C   UNL     1     -12.179   8.760  16.766  0.00  0.00    +0.105 C 
ENDBRANCH  12  15
ENDBRANCH   8  12
BRANCH   9  14
ATOM     14  C   UNL     1     -15.282   4.330  24.174  0.00  0.00    +0.064 C 
BRANCH  14  16
ATOM      3  O   UNL     1     -16.545   1.432  25.898  0.00  0.00    -0.359 OA
ATOM      7  N   UNL     1     -16.080   2.081  24.760  0.00  0.00    -0.083 NA
ATOM     16  C   UNL     1     -15.815   3.329  25.158  0.00  0.00    +0.084 A 
ATOM     21  C   UNL     1     -16.090   3.524  26.522  0.00  0.00    +0.071 A 
ATOM     23  C   UNL     1     -16.546   2.302  26.941  0.00  0.00    +0.148 A 
BRANCH  23  24
ATOM     24  C   UNL     1     -17.012   1.778  28.230  0.00  0.00    +0.151 C 
BRANCH  24   1
ATOM      1  S   UNL     1     -15.710   0.893  29.161  0.00  0.00    -0.117 S 
BRANCH   1  25
ATOM     25  C   UNL     1     -15.107   2.194  30.227  0.00  0.00    +0.008 A 
ATOM     26  C   UNL     1     -13.775   2.195  30.641  0.00  0.00    +0.015 A 
ATOM     27  C   UNL     1     -15.969   3.207  30.646  0.00  0.00    +0.015 A 
ATOM     28  C   UNL     1     -13.304   3.210  31.473  0.00  0.00    +0.001 A 
ATOM     29  C   UNL     1     -15.499   4.223  31.479  0.00  0.00    +0.001 A 
ATOM     30  C   UNL     1     -14.167   4.224  31.892  0.00  0.00    +0.000 A 
ENDBRANCH   1  25
ENDBRANCH  24   1
ENDBRANCH  23  24
ENDBRANCH  14  16
ENDBRANCH   9  14
TORSDOF 7
ENDMDL
MODEL 8
REMARK VINA RESULT:      -6.2     28.105     30.155
REMARK  Name = 26743108
REMARK  8 active torsions:
REMARK  status: ('A' for Active; 'I' for Inactive)
REMARK    1  A    between atoms: S_1  and  C_24
REMARK    2  A    between atoms: S_1  and  C_25
REMARK    3  A    between atoms: N_6  and  C_22
REMARK    4  A    between atoms: C_8  and  C_12
REMARK    5  A    between atoms: C_9  and  C_14
REMARK    6  A    between atoms: C_12  and  C_15
REMARK    7  A    between atoms: C_14  and  C_16
REMARK    8  A    between atoms: C_23  and  C_24
REMARK                            x       y       z     vdW  Elec       q    Type
REMARK                         _______ _______ _______ _____ _____    ______ ____
ROOT
ATOM      4  N   UNL     1      -7.293  -9.470  14.350  0.00  0.00    -0.316 NA
ATOM      8  C   UNL     1      -7.056  -9.742  17.279  0.00  0.00    +0.004 C 
ATOM      9  C   UNL     1      -5.830  -9.549  16.355  0.00  0.00    +0.012 C 
ATOM     10  C   UNL     1      -8.302  -9.170  16.585  0.00  0.00    +0.019 C 
ATOM     11  C   UNL     1      -6.098 -10.078  14.936  0.00  0.00    +0.085 C 
ATOM     13  C   UNL     1      -8.482  -9.711  15.167  0.00  0.00    +0.081 C 
ATOM     31  H   UNL     1      -7.443  -9.850  13.417  0.00  0.00    +0.122 HD
ENDROOT
BRANCH   8  12
ATOM     12  C   UNL     1      -7.289 -11.197  17.708  0.00  0.00    +0.100 C 
BRANCH  12  15
ATOM      2  O   UNL     1      -7.467 -10.884  20.051  0.00  0.00    -0.276 OA
ATOM      5  N   UNL     1      -9.364 -11.667  18.961  0.00  0.00    -0.299 N 
ATOM      6  N   UNL     1     -12.224 -11.782  18.832  0.00  0.00    -0.302 NA
ATOM     15  C   UNL     1      -8.040 -11.233  19.015  0.00  0.00    +0.216 C 
ATOM     17  C   UNL     1     -10.161 -11.726  20.186  0.00  0.00    +0.123 C 
ATOM     18  C   UNL     1     -10.030 -12.211  17.775  0.00  0.00    +0.123 C 
ATOM     19  C   UNL     1     -11.554 -11.136  19.970  0.00  0.00    +0.103 C 
ATOM     20  C   UNL     1     -11.429 -11.617  17.607  0.00  0.00    +0.103 C 
ATOM     22  C   UNL     1     -13.569 -11.238  18.651  0.00  0.00    +0.105 C 
ENDBRANCH  12  15
ENDBRANCH   8  12
BRANCH   9  14
ATOM     14  C   UNL     1      -4.549 -10.160  16.923  0.00  0.00    +0.064 C 
BRANCH  14  16
ATOM      3  O   UNL     1      -3.569 -13.075  15.050  0.00  0.00    -0.359 OA
ATOM      7  N   UNL     1      -4.291 -12.445  16.057  0.00  0.00    -0.083 NA
ATOM     16  C   UNL     1      -3.949 -11.156  15.973  0.00  0.00    +0.084 A 
ATOM     21  C   UNL     1      -3.025 -10.916  14.942  0.00  0.00    +0.071 A 
ATOM     23  C   UNL     1      -2.819 -12.153  14.393  0.00  0.00    +0.148 A 
BRANCH  23  24
ATOM     24  C   UNL     1      -1.989 -12.651  13.290  0.00  0.00    +0.151 C 
BRANCH  24   1
ATOM      1  S   UNL     1      -2.964 -13.186  11.838  0.00  0.00    -0.117 S 
BRANCH   1  25
ATOM     25  C   UNL     1      -3.207 -11.628  10.997  0.00  0.00    +0.008 A 
ATOM     26  C   UNL     1      -4.224 -11.498  10.051  0.00  0.00    +0.015 A 
ATOM     27  C   UNL     1      -2.380 -10.543  11.286  0.00  0.00    +0.015 A 
ATOM     28  C   UNL     1      -4.413 -10.282   9.394  0.00  0.00    +0.001 A 
ATOM     29  C   UNL     1      -2.569  -9.327  10.629  0.00  0.00    +0.001 A 
ATOM     30  C   UNL     1      -3.586  -9.197   9.683  0.00  0.00    +0.000 A 
ENDBRANCH   1  25
ENDBRANCH  24   1
ENDBRANCH  23  24
ENDBRANCH  14  16
ENDBRANCH   9  14
TORSDOF 7
ENDMDL
MODEL 9
REMARK VINA RESULT:      -6.2     17.749     22.294
REMARK  Name = 26743108
REMARK  8 active torsions:
REMARK  status: ('A' for Active; 'I' for Inactive)
REMARK    1  A    between atoms: S_1  and  C_24
REMARK    2  A    between atoms: S_1  and  C_25
REMARK    3  A    between atoms: N_6  and  C_22
REMARK    4  A    between atoms: C_8  and  C_12
REMARK    5  A    between atoms: C_9  and  C_14
REMARK    6  A    between atoms: C_12  and  C_15
REMARK    7  A    between atoms: C_14  and  C_16
REMARK    8  A    between atoms: C_23  and  C_24
REMARK                            x       y       z     vdW  Elec       q    Type
REMARK                         _______ _______ _______ _____ _____    ______ ____
ROOT
ATOM      4  N   UNL     1      16.126   4.199   0.569  0.00  0.00    -0.316 NA
ATOM      8  C   UNL     1      13.351   4.509  -0.385  0.00  0.00    +0.004 C 
ATOM      9  C   UNL     1      13.711   4.380   1.115  0.00  0.00    +0.012 C 
ATOM     10  C   UNL     1      14.569   5.054  -1.148  0.00  0.00    +0.019 C 
ATOM     11  C   UNL     1      15.021   3.602   1.320  0.00  0.00    +0.085 C 
ATOM     13  C   UNL     1      15.841   4.256  -0.864  0.00  0.00    +0.081 C 
ATOM     31  H   UNL     1      16.973   3.653   0.722  0.00  0.00    +0.122 HD
ENDROOT
BRANCH   8  12
ATOM     12  C   UNL     1      12.847   3.206  -1.019  0.00  0.00    +0.100 C 
BRANCH  12  15
ATOM      2  O   UNL     1      10.569   3.861  -0.986  0.00  0.00    -0.276 OA
ATOM      5  N   UNL     1      11.414   3.146  -3.029  0.00  0.00    -0.299 N 
ATOM      6  N   UNL     1      11.349   3.327  -5.887  0.00  0.00    -0.302 NA
ATOM     15  C   UNL     1      11.506   3.435  -1.668  0.00  0.00    +0.216 C 
ATOM     17  C   UNL     1      10.147   3.345  -3.731  0.00  0.00    +0.123 C 
ATOM     18  C   UNL     1      12.464   2.517  -3.834  0.00  0.00    +0.123 C 
ATOM     19  C   UNL     1      10.361   4.049  -5.071  0.00  0.00    +0.103 C 
ATOM     20  C   UNL     1      12.632   3.231  -5.175  0.00  0.00    +0.103 C 
ATOM     22  C   UNL     1      11.525   3.984  -7.181  0.00  0.00    +0.105 C 
ENDBRANCH  12  15
ENDBRANCH   8  12
BRANCH   9  14
ATOM     14  C   UNL     1      12.586   3.768   1.951  0.00  0.00    +0.064 C 
BRANCH  14  16
ATOM      3  O   UNL     1      10.012   5.694   3.572  0.00  0.00    -0.359 OA
ATOM      7  N   UNL     1      10.543   4.498   3.104  0.00  0.00    -0.083 NA
ATOM     16  C   UNL     1      11.719   4.830   2.563  0.00  0.00    +0.084 A 
ATOM     21  C   UNL     1      11.980   6.207   2.659  0.00  0.00    +0.071 A 
ATOM     23  C   UNL     1      10.878   6.704   3.301  0.00  0.00    +0.148 A 
BRANCH  23  24
ATOM     24  C   UNL     1      10.470   8.048   3.730  0.00  0.00    +0.151 C 
BRANCH  24   1
ATOM      1  S   UNL     1      11.373   8.637   5.207  0.00  0.00    -0.117 S 
BRANCH   1  25
ATOM     25  C   UNL     1      10.626   7.637   6.485  0.00  0.00    +0.008 A 
ATOM     26  C   UNL     1       9.392   8.002   7.025  0.00  0.00    +0.015 A 
ATOM     27  C   UNL     1      11.276   6.492   6.944  0.00  0.00    +0.015 A 
ATOM     28  C   UNL     1       8.808   7.221   8.023  0.00  0.00    +0.001 A 
ATOM     29  C   UNL     1      10.693   5.711   7.942  0.00  0.00    +0.001 A 
ATOM     30  C   UNL     1       9.460   6.076   8.482  0.00  0.00    +0.000 A 
ENDBRANCH   1  25
ENDBRANCH  24   1
ENDBRANCH  23  24
ENDBRANCH  14  16
ENDBRANCH   9  14
TORSDOF 7
ENDMDL
MODEL 10
REMARK VINA RESULT:      -6.2     27.159     30.853
REMARK  Name = 26743108
REMARK  8 active torsions:
REMARK  status: ('A' for Active; 'I' for Inactive)
REMARK    1  A    between atoms: S_1  and  C_24
REMARK    2  A    between atoms: S_1  and  C_25
REMARK    3  A    between atoms: N_6  and  C_22
REMARK    4  A    between atoms: C_8  and  C_12
REMARK    5  A    between atoms: C_9  and  C_14
REMARK    6  A    between atoms: C_12  and  C_15
REMARK    7  A    between atoms: C_14  and  C_16
REMARK    8  A    between atoms: C_23  and  C_24
REMARK                            x       y       z     vdW  Elec       q    Type
REMARK                         _______ _______ _______ _____ _____    ______ ____
ROOT
ATOM      4  N   UNL     1     -16.081   8.517  21.870  0.00  0.00    -0.316 NA
ATOM      8  C   UNL     1     -13.980   6.874  20.607  0.00  0.00    +0.004 C 
ATOM      9  C   UNL     1     -14.918   6.329  21.711  0.00  0.00    +0.012 C 
ATOM     10  C   UNL     1     -14.672   8.047  19.895  0.00  0.00    +0.019 C 
ATOM     11  C   UNL     1     -15.426   7.452  22.630  0.00  0.00    +0.085 C 
ATOM     13  C   UNL     1     -15.185   9.104  20.874  0.00  0.00    +0.081 C 
ATOM     31  H   UNL     1     -16.395   9.245  22.510  0.00  0.00    +0.122 HD
ENDROOT
BRANCH   8  12
ATOM     12  C   UNL     1     -12.592   7.284  21.115  0.00  0.00    +0.100 C 
BRANCH  12  15
ATOM      2  O   UNL     1     -11.340   6.709  19.187  0.00  0.00    -0.276 OA
ATOM      5  N   UNL     1     -11.317   8.947  19.809  0.00  0.00    -0.299 N 
ATOM      6  N   UNL     1     -11.146  11.694  19.013  0.00  0.00    -0.302 NA
ATOM     15  C   UNL     1     -11.694   7.612  19.950  0.00  0.00    +0.216 C 
ATOM     17  C   UNL     1     -10.450   9.346  18.702  0.00  0.00    +0.123 C 
ATOM     18  C   UNL     1     -11.610  10.016  20.769  0.00  0.00    +0.123 C 
ATOM     19  C   UNL     1     -10.963  10.619  18.027  0.00  0.00    +0.103 C 
ATOM     20  C   UNL     1     -12.095  11.278  20.056  0.00  0.00    +0.103 C 
ATOM     22  C   UNL     1     -11.604  12.918  18.358  0.00  0.00    +0.105 C 
ENDBRANCH  12  15
ENDBRANCH   8  12
BRANCH   9  14
ATOM     14  C   UNL     1     -14.286   5.205  22.533  0.00  0.00    +0.064 C 
BRANCH  14  16
ATOM      3  O   UNL     1     -16.954   2.981  23.482  0.00  0.00    -0.359 OA
ATOM      7  N   UNL     1     -16.122   3.573  22.538  0.00  0.00    -0.083 NA
ATOM     16  C   UNL     1     -15.331   4.390  23.239  0.00  0.00    +0.084 A 
ATOM     21  C   UNL     1     -15.614   4.356  24.615  0.00  0.00    +0.071 A 
ATOM     23  C   UNL     1     -16.641   3.456  24.715  0.00  0.00    +0.148 A 
BRANCH  23  24
ATOM     24  C   UNL     1     -17.428   2.932  25.838  0.00  0.00    +0.151 C 
BRANCH  24   1
ATOM      1  S   UNL     1     -16.788   1.349  26.490  0.00  0.00    -0.117 S 
BRANCH   1  25
ATOM     25  C   UNL     1     -16.112   1.874  28.059  0.00  0.00    +0.008 A 
ATOM     26  C   UNL     1     -15.899   0.941  29.074  0.00  0.00    +0.015 A 
ATOM     27  C   UNL     1     -15.798   3.217  28.268  0.00  0.00    +0.015 A 
ATOM     28  C   UNL     1     -15.372   1.351  30.299  0.00  0.00    +0.001 A 
ATOM     29  C   UNL     1     -15.270   3.627  29.492  0.00  0.00    +0.001 A 
ATOM     30  C   UNL     1     -15.058   2.694  30.508  0.00  0.00    +0.000 A 
ENDBRANCH   1  25
ENDBRANCH  24   1
ENDBRANCH  23  24
ENDBRANCH  14  16
ENDBRANCH   9  14
TORSDOF 7
ENDMDL
