MODEL 1
REMARK VINA RESULT:      -6.9      0.000      0.000
REMARK  Name = 45360868
REMARK  6 active torsions:
REMARK  status: ('A' for Active; 'I' for Inactive)
REMARK    1  A    between atoms: N_4  and  C_17
REMARK    2  A    between atoms: N_5  and  C_16
REMARK    3  A    between atoms: C_11  and  C_15
REMARK    4  A    between atoms: C_15  and  C_18
REMARK    5  A    between atoms: C_16  and  C_19
REMARK    6  A    between atoms: C_18  and  C_20
REMARK                            x       y       z     vdW  Elec       q    Type
REMARK                         _______ _______ _______ _____ _____    ______ ____
ROOT
ATOM      2  O   UNL     1     -14.029   4.729  23.395  0.00  0.00    -0.274 OA
ATOM      4  N   UNL     1     -17.683   3.451  23.452  0.00  0.00    -0.296 NA
ATOM      5  N   UNL     1     -15.681   5.896  21.606  0.00  0.00    -0.286 NA
ATOM      6  N   UNL     1     -15.590   4.610  25.064  0.00  0.00    -0.312 N 
ATOM      8  C   UNL     1     -17.506   4.681  22.647  0.00  0.00    +0.084 C 
ATOM      9  C   UNL     1     -16.262   5.575  22.923  0.00  0.00    +0.161 C 
ATOM     10  C   UNL     1     -17.387   4.424  21.134  0.00  0.00    +0.036 C 
ATOM     11  C   UNL     1     -17.886   3.693  24.908  0.00  0.00    +0.074 C 
ATOM     12  C   UNL     1     -16.729   5.684  20.613  0.00  0.00    +0.087 C 
ATOM     13  C   UNL     1     -16.957   4.757  25.525  0.00  0.00    +0.123 C 
ATOM     14  C   UNL     1     -15.180   4.928  23.783  0.00  0.00    +0.232 C 
ATOM     17  C   UNL     1     -18.779   2.627  22.915  0.00  0.00    +0.105 C 
ATOM     30  H   UNL     1     -14.897   4.249  25.711  0.00  0.00    +0.149 HD
ENDROOT
BRANCH  11  15
ATOM     15  C   UNL     1     -17.686   2.385  25.704  0.00  0.00    +0.029 C 
BRANCH  15  18
ATOM     18  C   UNL     1     -17.729   2.620  27.201  0.00  0.00    +0.097 C 
BRANCH  18  20
ATOM      3  O   UNL     1     -17.663   0.332  27.861  0.00  0.00    -0.276 OA
ATOM      7  N   UNL     1     -16.044   1.730  28.735  0.00  0.00    -0.301 N 
ATOM     20  C   UNL     1     -17.151   1.450  27.955  0.00  0.00    +0.216 C 
ATOM     21  C   UNL     1     -15.374   0.710  29.529  0.00  0.00    +0.108 C 
ATOM     22  C   UNL     1     -15.388   3.026  28.885  0.00  0.00    +0.108 C 
ATOM     23  C   UNL     1     -14.061   1.355  29.946  0.00  0.00    +0.020 C 
ATOM     24  C   UNL     1     -14.425   2.830  30.048  0.00  0.00    +0.020 C 
ENDBRANCH  18  20
ENDBRANCH  15  18
ENDBRANCH  11  15
BRANCH   5  16
ATOM     16  C   UNL     1     -15.121   7.239  21.534  0.00  0.00    +0.120 C 
BRANCH  16  19
ATOM      1 CL   UNL     1     -12.948   8.371  16.935  0.00  0.00    -0.084 Cl
ATOM     19  C   UNL     1     -13.891   7.288  20.668  0.00  0.00    -0.032 A 
ATOM     25  C   UNL     1     -13.979   7.753  19.356  0.00  0.00    +0.025 A 
ATOM     26  C   UNL     1     -12.661   6.869  21.179  0.00  0.00    +0.005 A 
ATOM     27  C   UNL     1     -12.838   7.800  18.554  0.00  0.00    +0.041 A 
ATOM     28  C   UNL     1     -11.521   6.916  20.376  0.00  0.00    +0.002 A 
ATOM     29  C   UNL     1     -11.609   7.382  19.064  0.00  0.00    +0.020 A 
ENDBRANCH  16  19
ENDBRANCH   5  16
TORSDOF 5
ENDMDL
MODEL 2
REMARK VINA RESULT:      -6.9     17.913     19.204
REMARK  Name = 45360868
REMARK  6 active torsions:
REMARK  status: ('A' for Active; 'I' for Inactive)
REMARK    1  A    between atoms: N_4  and  C_17
REMARK    2  A    between atoms: N_5  and  C_16
REMARK    3  A    between atoms: C_11  and  C_15
REMARK    4  A    between atoms: C_15  and  C_18
REMARK    5  A    between atoms: C_16  and  C_19
REMARK    6  A    between atoms: C_18  and  C_20
REMARK                            x       y       z     vdW  Elec       q    Type
REMARK                         _______ _______ _______ _____ _____    ______ ____
ROOT
ATOM      2  O   UNL     1      -5.636  -9.285  16.145  0.00  0.00    -0.274 OA
ATOM      4  N   UNL     1      -8.528 -10.666  18.317  0.00  0.00    -0.296 NA
ATOM      5  N   UNL     1      -5.373 -11.863  16.902  0.00  0.00    -0.286 NA
ATOM      6  N   UNL     1      -7.896  -9.406  15.801  0.00  0.00    -0.312 N 
ATOM      8  C   UNL     1      -7.615 -11.720  17.822  0.00  0.00    +0.084 C 
ATOM      9  C   UNL     1      -6.738 -11.413  16.572  0.00  0.00    +0.161 C 
ATOM     10  C   UNL     1      -6.561 -12.167  18.851  0.00  0.00    +0.036 C 
ATOM     11  C   UNL     1      -9.606 -10.286  17.361  0.00  0.00    +0.074 C 
ATOM     12  C   UNL     1      -5.491 -12.818  18.000  0.00  0.00    +0.087 C 
ATOM     13  C   UNL     1      -9.149 -10.127  15.898  0.00  0.00    +0.123 C 
ATOM     14  C   UNL     1      -6.677  -9.942  16.172  0.00  0.00    +0.232 C 
ATOM     17  C   UNL     1      -9.109 -11.046  19.616  0.00  0.00    +0.105 C 
ATOM     30  H   UNL     1      -7.910  -8.454  15.449  0.00  0.00    +0.149 HD
ENDROOT
BRANCH  11  15
ATOM     15  C   UNL     1     -10.261  -8.955  17.790  0.00  0.00    +0.029 C 
BRANCH  15  18
ATOM     18  C   UNL     1     -11.460  -8.610  16.928  0.00  0.00    +0.097 C 
BRANCH  18  20
ATOM      3  O   UNL     1     -10.073  -6.882  16.054  0.00  0.00    -0.276 OA
ATOM      7  N   UNL     1     -12.300  -6.860  15.440  0.00  0.00    -0.301 N 
ATOM     20  C   UNL     1     -11.201  -7.375  16.103  0.00  0.00    +0.216 C 
ATOM     21  C   UNL     1     -12.217  -5.668  14.608  0.00  0.00    +0.108 C 
ATOM     22  C   UNL     1     -13.658  -7.396  15.453  0.00  0.00    +0.108 C 
ATOM     23  C   UNL     1     -13.526  -5.653  13.833  0.00  0.00    +0.020 C 
ATOM     24  C   UNL     1     -14.501  -6.308  14.803  0.00  0.00    +0.020 C 
ENDBRANCH  18  20
ENDBRANCH  15  18
ENDBRANCH  11  15
BRANCH   5  16
ATOM     16  C   UNL     1      -4.658 -12.424  15.763  0.00  0.00    +0.120 C 
BRANCH  16  19
ATOM      1 CL   UNL     1      -1.836 -10.179  12.002  0.00  0.00    -0.084 Cl
ATOM     19  C   UNL     1      -3.477 -11.578  15.370  0.00  0.00    -0.032 A 
ATOM     25  C   UNL     1      -3.232 -11.302  14.025  0.00  0.00    +0.025 A 
ATOM     26  C   UNL     1      -2.627 -11.068  16.352  0.00  0.00    +0.005 A 
ATOM     27  C   UNL     1      -2.138 -10.517  13.661  0.00  0.00    +0.041 A 
ATOM     28  C   UNL     1      -1.533 -10.283  15.988  0.00  0.00    +0.002 A 
ATOM     29  C   UNL     1      -1.288 -10.007  14.643  0.00  0.00    +0.020 A 
ENDBRANCH  16  19
ENDBRANCH   5  16
TORSDOF 5
ENDMDL
MODEL 3
REMARK VINA RESULT:      -6.8     31.548     35.175
REMARK  Name = 45360868
REMARK  6 active torsions:
REMARK  status: ('A' for Active; 'I' for Inactive)
REMARK    1  A    between atoms: N_4  and  C_17
REMARK    2  A    between atoms: N_5  and  C_16
REMARK    3  A    between atoms: C_11  and  C_15
REMARK    4  A    between atoms: C_15  and  C_18
REMARK    5  A    between atoms: C_16  and  C_19
REMARK    6  A    between atoms: C_18  and  C_20
REMARK                            x       y       z     vdW  Elec       q    Type
REMARK                         _______ _______ _______ _____ _____    ______ ____
ROOT
ATOM      2  O   UNL     1      20.137   6.404  23.797  0.00  0.00    -0.274 OA
ATOM      4  N   UNL     1      17.807   6.870  20.740  0.00  0.00    -0.296 NA
ATOM      5  N   UNL     1      21.089   5.424  21.468  0.00  0.00    -0.286 NA
ATOM      6  N   UNL     1      19.183   8.261  22.860  0.00  0.00    -0.312 N 
ATOM      8  C   UNL     1      19.174   6.435  20.373  0.00  0.00    +0.084 C 
ATOM      9  C   UNL     1      20.328   6.685  21.387  0.00  0.00    +0.161 C 
ATOM     10  C   UNL     1      19.298   4.923  20.111  0.00  0.00    +0.036 C 
ATOM     11  C   UNL     1      17.655   8.341  20.913  0.00  0.00    +0.074 C 
ATOM     12  C   UNL     1      20.782   4.660  20.264  0.00  0.00    +0.087 C 
ATOM     13  C   UNL     1      18.796   9.026  21.691  0.00  0.00    +0.123 C 
ATOM     14  C   UNL     1      19.880   7.069  22.795  0.00  0.00    +0.232 C 
ATOM     17  C   UNL     1      16.820   6.364  19.772  0.00  0.00    +0.105 C 
ATOM     30  H   UNL     1      18.925   8.612  23.777  0.00  0.00    +0.149 HD
ENDROOT
BRANCH  11  15
ATOM     15  C   UNL     1      16.335   8.664  21.645  0.00  0.00    +0.029 C 
BRANCH  15  18
ATOM     18  C   UNL     1      15.623   9.855  21.033  0.00  0.00    +0.097 C 
BRANCH  18  20
ATOM      3  O   UNL     1      15.003   9.196  18.830  0.00  0.00    -0.276 OA
ATOM      7  N   UNL     1      13.322   9.303  20.412  0.00  0.00    -0.301 N 
ATOM     20  C   UNL     1      14.632   9.419  19.984  0.00  0.00    +0.216 C 
ATOM     21  C   UNL     1      12.246   8.899  19.519  0.00  0.00    +0.108 C 
ATOM     22  C   UNL     1      12.820   9.547  21.761  0.00  0.00    +0.108 C 
ATOM     23  C   UNL     1      11.080   8.589  20.445  0.00  0.00    +0.020 C 
ATOM     24  C   UNL     1      11.305   9.547  21.607  0.00  0.00    +0.020 C 
ENDBRANCH  18  20
ENDBRANCH  15  18
ENDBRANCH  11  15
BRANCH   5  16
ATOM     16  C   UNL     1      22.522   5.624  21.639  0.00  0.00    +0.120 C 
BRANCH  16  19
ATOM      1 CL   UNL     1      23.882   0.929  23.446  0.00  0.00    -0.084 Cl
ATOM     19  C   UNL     1      23.294   4.346  21.451  0.00  0.00    -0.032 A 
ATOM     25  C   UNL     1      23.237   3.346  22.422  0.00  0.00    +0.025 A 
ATOM     26  C   UNL     1      24.066   4.159  20.303  0.00  0.00    +0.005 A 
ATOM     27  C   UNL     1      23.951   2.161  22.247  0.00  0.00    +0.041 A 
ATOM     28  C   UNL     1      24.780   2.974  20.128  0.00  0.00    +0.002 A 
ATOM     29  C   UNL     1      24.723   1.974  21.100  0.00  0.00    +0.020 A 
ENDBRANCH  16  19
ENDBRANCH   5  16
TORSDOF 5
ENDMDL
MODEL 4
REMARK VINA RESULT:      -6.7     20.360     21.286
REMARK  Name = 45360868
REMARK  6 active torsions:
REMARK  status: ('A' for Active; 'I' for Inactive)
REMARK    1  A    between atoms: N_4  and  C_17
REMARK    2  A    between atoms: N_5  and  C_16
REMARK    3  A    between atoms: C_11  and  C_15
REMARK    4  A    between atoms: C_15  and  C_18
REMARK    5  A    between atoms: C_16  and  C_19
REMARK    6  A    between atoms: C_18  and  C_20
REMARK                            x       y       z     vdW  Elec       q    Type
REMARK                         _______ _______ _______ _____ _____    ______ ____
ROOT
ATOM      2  O   UNL     1      -1.149 -10.929  15.531  0.00  0.00    -0.274 OA
ATOM      4  N   UNL     1      -4.422 -12.841  16.318  0.00  0.00    -0.296 NA
ATOM      5  N   UNL     1      -2.207 -12.296  13.457  0.00  0.00    -0.286 NA
ATOM      6  N   UNL     1      -3.165 -10.246  16.372  0.00  0.00    -0.312 N 
ATOM      8  C   UNL     1      -4.123 -12.765  14.871  0.00  0.00    +0.084 C 
ATOM      9  C   UNL     1      -3.165 -11.645  14.370  0.00  0.00    +0.161 C 
ATOM     10  C   UNL     1      -3.460 -14.033  14.303  0.00  0.00    +0.036 C 
ATOM     11  C   UNL     1      -5.142 -11.655  16.862  0.00  0.00    +0.074 C 
ATOM     12  C   UNL     1      -2.815 -13.549  13.021  0.00  0.00    +0.087 C 
ATOM     13  C   UNL     1      -4.614 -10.294  16.369  0.00  0.00    +0.123 C 
ATOM     14  C   UNL     1      -2.378 -10.931  15.466  0.00  0.00    +0.232 C 
ATOM     17  C   UNL     1      -5.161 -14.075  16.636  0.00  0.00    +0.105 C 
ATOM     30  H   UNL     1      -2.700  -9.685  17.079  0.00  0.00    +0.149 HD
ENDROOT
BRANCH  11  15
ATOM     15  C   UNL     1      -5.077 -11.647  18.405  0.00  0.00    +0.029 C 
BRANCH  15  18
ATOM     18  C   UNL     1      -5.852 -10.486  18.998  0.00  0.00    +0.097 C 
BRANCH  18  20
ATOM      3  O   UNL     1      -7.576 -11.716  20.089  0.00  0.00    -0.276 OA
ATOM      7  N   UNL     1      -8.224 -10.194  18.476  0.00  0.00    -0.301 N 
ATOM     20  C   UNL     1      -7.291 -10.861  19.248  0.00  0.00    +0.216 C 
ATOM     21  C   UNL     1      -9.653 -10.447  18.592  0.00  0.00    +0.108 C 
ATOM     22  C   UNL     1      -7.954  -9.172  17.469  0.00  0.00    +0.108 C 
ATOM     23  C   UNL     1     -10.305  -9.303  17.832  0.00  0.00    +0.020 C 
ATOM     24  C   UNL     1      -9.282  -8.989  16.748  0.00  0.00    +0.020 C 
ENDBRANCH  18  20
ENDBRANCH  15  18
ENDBRANCH  11  15
BRANCH   5  16
ATOM     16  C   UNL     1      -1.817 -11.456  12.333  0.00  0.00    +0.120 C 
BRANCH  16  19
ATOM      1 CL   UNL     1      -5.213  -8.047  10.332  0.00  0.00    -0.084 Cl
ATOM     19  C   UNL     1      -2.974 -11.181  11.410  0.00  0.00    -0.032 A 
ATOM     25  C   UNL     1      -3.496  -9.892  11.310  0.00  0.00    +0.025 A 
ATOM     26  C   UNL     1      -3.524 -12.217  10.653  0.00  0.00    +0.005 A 
ATOM     27  C   UNL     1      -4.568  -9.637  10.453  0.00  0.00    +0.041 A 
ATOM     28  C   UNL     1      -4.595 -11.962   9.797  0.00  0.00    +0.002 A 
ATOM     29  C   UNL     1      -5.117 -10.672   9.697  0.00  0.00    +0.020 A 
ENDBRANCH  16  19
ENDBRANCH   5  16
TORSDOF 5
ENDMDL
MODEL 5
REMARK VINA RESULT:      -6.5     20.204     22.135
REMARK  Name = 45360868
REMARK  6 active torsions:
REMARK  status: ('A' for Active; 'I' for Inactive)
REMARK    1  A    between atoms: N_4  and  C_17
REMARK    2  A    between atoms: N_5  and  C_16
REMARK    3  A    between atoms: C_11  and  C_15
REMARK    4  A    between atoms: C_15  and  C_18
REMARK    5  A    between atoms: C_16  and  C_19
REMARK    6  A    between atoms: C_18  and  C_20
REMARK                            x       y       z     vdW  Elec       q    Type
REMARK                         _______ _______ _______ _____ _____    ______ ____
ROOT
ATOM      2  O   UNL     1      -5.575  -9.774  15.164  0.00  0.00    -0.274 OA
ATOM      4  N   UNL     1      -3.730 -13.152  14.746  0.00  0.00    -0.296 NA
ATOM      5  N   UNL     1      -6.192 -11.654  17.002  0.00  0.00    -0.286 NA
ATOM      6  N   UNL     1      -3.352 -10.310  15.065  0.00  0.00    -0.312 N 
ATOM      8  C   UNL     1      -4.437 -13.029  16.041  0.00  0.00    +0.084 C 
ATOM      9  C   UNL     1      -4.785 -11.604  16.562  0.00  0.00    +0.161 C 
ATOM     10  C   UNL     1      -5.810 -13.725  16.071  0.00  0.00    +0.036 C 
ATOM     11  C   UNL     1      -2.365 -12.557  14.732  0.00  0.00    +0.074 C 
ATOM     12  C   UNL     1      -6.518 -13.058  17.231  0.00  0.00    +0.087 C 
ATOM     13  C   UNL     1      -2.249 -11.181  15.418  0.00  0.00    +0.123 C 
ATOM     14  C   UNL     1      -4.641 -10.486  15.532  0.00  0.00    +0.232 C 
ATOM     17  C   UNL     1      -3.678 -14.558  14.311  0.00  0.00    +0.105 C 
ATOM     30  H   UNL     1      -3.175  -9.533  14.437  0.00  0.00    +0.149 HD
ENDROOT
BRANCH  11  15
ATOM     15  C   UNL     1      -1.863 -12.395  13.280  0.00  0.00    +0.029 C 
BRANCH  15  18
ATOM     18  C   UNL     1      -2.977 -11.987  12.337  0.00  0.00    +0.097 C 
BRANCH  18  20
ATOM      3  O   UNL     1      -1.552 -10.155  11.800  0.00  0.00    -0.276 OA
ATOM      7  N   UNL     1      -3.586 -10.265  10.709  0.00  0.00    -0.301 N 
ATOM     20  C   UNL     1      -2.628 -10.721  11.596  0.00  0.00    +0.216 C 
ATOM     21  C   UNL     1      -3.404  -9.054   9.922  0.00  0.00    +0.108 C 
ATOM     22  C   UNL     1      -4.874 -10.889  10.419  0.00  0.00    +0.108 C 
ATOM     23  C   UNL     1      -4.508  -9.109   8.877  0.00  0.00    +0.020 C 
ATOM     24  C   UNL     1      -5.626  -9.846   9.605  0.00  0.00    +0.020 C 
ENDBRANCH  18  20
ENDBRANCH  15  18
ENDBRANCH  11  15
BRANCH   5  16
ATOM     16  C   UNL     1      -6.461 -10.831  18.173  0.00  0.00    +0.120 C 
BRANCH  16  19
ATOM      1 CL   UNL     1      -9.938  -7.403  16.351  0.00  0.00    -0.084 Cl
ATOM     19  C   UNL     1      -7.869 -10.301  18.175  0.00  0.00    -0.032 A 
ATOM     25  C   UNL     1      -8.211  -9.223  17.357  0.00  0.00    +0.025 A 
ATOM     26  C   UNL     1      -8.834 -10.888  18.994  0.00  0.00    +0.005 A 
ATOM     27  C   UNL     1      -9.517  -8.733  17.358  0.00  0.00    +0.041 A 
ATOM     28  C   UNL     1     -10.140 -10.397  18.995  0.00  0.00    +0.002 A 
ATOM     29  C   UNL     1     -10.482  -9.320  18.177  0.00  0.00    +0.020 A 
ENDBRANCH  16  19
ENDBRANCH   5  16
TORSDOF 5
ENDMDL
MODEL 6
REMARK VINA RESULT:      -6.4     30.551     35.854
REMARK  Name = 45360868
REMARK  6 active torsions:
REMARK  status: ('A' for Active; 'I' for Inactive)
REMARK    1  A    between atoms: N_4  and  C_17
REMARK    2  A    between atoms: N_5  and  C_16
REMARK    3  A    between atoms: C_11  and  C_15
REMARK    4  A    between atoms: C_15  and  C_18
REMARK    5  A    between atoms: C_16  and  C_19
REMARK    6  A    between atoms: C_18  and  C_20
REMARK                            x       y       z     vdW  Elec       q    Type
REMARK                         _______ _______ _______ _____ _____    ______ ____
ROOT
ATOM      2  O   UNL     1      13.357   6.581   7.106  0.00  0.00    -0.274 OA
ATOM      4  N   UNL     1      14.714  10.188   6.735  0.00  0.00    -0.296 NA
ATOM      5  N   UNL     1      11.473   8.491   6.800  0.00  0.00    -0.286 NA
ATOM      6  N   UNL     1      14.839   7.523   5.638  0.00  0.00    -0.312 N 
ATOM      8  C   UNL     1      13.275  10.068   6.409  0.00  0.00    +0.084 C 
ATOM      9  C   UNL     1      12.716   8.666   6.027  0.00  0.00    +0.161 C 
ATOM     10  C   UNL     1      12.338  10.485   7.557  0.00  0.00    +0.036 C 
ATOM     11  C   UNL     1      15.630   9.869   5.604  0.00  0.00    +0.074 C 
ATOM     12  C   UNL     1      11.026   9.821   7.200  0.00  0.00    +0.087 C 
ATOM     13  C   UNL     1      15.241   8.623   4.785  0.00  0.00    +0.123 C 
ATOM     14  C   UNL     1      13.645   7.495   6.334  0.00  0.00    +0.232 C 
ATOM     17  C   UNL     1      15.018  11.522   7.278  0.00  0.00    +0.105 C 
ATOM     30  H   UNL     1      15.467   6.732   5.738  0.00  0.00    +0.149 HD
ENDROOT
BRANCH  11  15
ATOM     15  C   UNL     1      17.070   9.654   6.121  0.00  0.00    +0.029 C 
BRANCH  15  18
ATOM     18  C   UNL     1      17.940   8.949   5.099  0.00  0.00    +0.097 C 
BRANCH  18  20
ATOM      3  O   UNL     1      19.273   8.336   6.975  0.00  0.00    -0.276 OA
ATOM      7  N   UNL     1      20.073   7.772   4.882  0.00  0.00    -0.301 N 
ATOM     20  C   UNL     1      19.149   8.326   5.748  0.00  0.00    +0.216 C 
ATOM     21  C   UNL     1      21.296   7.138   5.351  0.00  0.00    +0.108 C 
ATOM     22  C   UNL     1      19.983   7.723   3.425  0.00  0.00    +0.108 C 
ATOM     23  C   UNL     1      21.832   6.398   4.135  0.00  0.00    +0.020 C 
ATOM     24  C   UNL     1      21.365   7.269   2.976  0.00  0.00    +0.020 C 
ENDBRANCH  18  20
ENDBRANCH  15  18
ENDBRANCH  11  15
BRANCH   5  16
ATOM     16  C   UNL     1      10.441   7.760   6.076  0.00  0.00    +0.120 C 
BRANCH  16  19
ATOM      1 CL   UNL     1       9.520   4.886  10.324  0.00  0.00    -0.084 Cl
ATOM     19  C   UNL     1      10.178   6.409   6.685  0.00  0.00    -0.032 A 
ATOM     25  C   UNL     1       9.992   6.287   8.062  0.00  0.00    +0.025 A 
ATOM     26  C   UNL     1      10.119   5.277   5.871  0.00  0.00    +0.005 A 
ATOM     27  C   UNL     1       9.747   5.035   8.626  0.00  0.00    +0.041 A 
ATOM     28  C   UNL     1       9.875   4.025   6.435  0.00  0.00    +0.002 A 
ATOM     29  C   UNL     1       9.688   3.903   7.812  0.00  0.00    +0.020 A 
ENDBRANCH  16  19
ENDBRANCH   5  16
TORSDOF 5
ENDMDL
MODEL 7
REMARK VINA RESULT:      -6.3     28.228     32.167
REMARK  Name = 45360868
REMARK  6 active torsions:
REMARK  status: ('A' for Active; 'I' for Inactive)
REMARK    1  A    between atoms: N_4  and  C_17
REMARK    2  A    between atoms: N_5  and  C_16
REMARK    3  A    between atoms: C_11  and  C_15
REMARK    4  A    between atoms: C_15  and  C_18
REMARK    5  A    between atoms: C_16  and  C_19
REMARK    6  A    between atoms: C_18  and  C_20
REMARK                            x       y       z     vdW  Elec       q    Type
REMARK                         _______ _______ _______ _____ _____    ______ ____
ROOT
ATOM      2  O   UNL     1      15.423   6.813  18.748  0.00  0.00    -0.274 OA
ATOM      4  N   UNL     1      13.164   9.073  20.935  0.00  0.00    -0.296 NA
ATOM      5  N   UNL     1      16.598   7.809  20.966  0.00  0.00    -0.286 NA
ATOM      6  N   UNL     1      13.391   6.457  19.739  0.00  0.00    -0.312 N 
ATOM      8  C   UNL     1      14.427   8.687  21.603  0.00  0.00    +0.084 C 
ATOM      9  C   UNL     1      15.180   7.424  21.092  0.00  0.00    +0.161 C 
ATOM     10  C   UNL     1      15.524   9.764  21.534  0.00  0.00    +0.036 C 
ATOM     11  C   UNL     1      12.067   8.074  21.068  0.00  0.00    +0.074 C 
ATOM     12  C   UNL     1      16.797   8.989  21.801  0.00  0.00    +0.087 C 
ATOM     13  C   UNL     1      12.496   6.607  20.870  0.00  0.00    +0.123 C 
ATOM     14  C   UNL     1      14.704   6.889  19.744  0.00  0.00    +0.232 C 
ATOM     17  C   UNL     1      12.710  10.394  21.398  0.00  0.00    +0.105 C 
ATOM     30  H   UNL     1      13.037   6.018  18.895  0.00  0.00    +0.149 HD
ENDROOT
BRANCH  11  15
ATOM     15  C   UNL     1      10.942   8.370  20.052  0.00  0.00    +0.029 C 
BRANCH  15  18
ATOM     18  C   UNL     1      11.381   9.363  18.995  0.00  0.00    +0.097 C 
BRANCH  18  20
ATOM      3  O   UNL     1      11.599   7.559  17.456  0.00  0.00    -0.276 OA
ATOM      7  N   UNL     1      13.045   9.342  17.202  0.00  0.00    -0.301 N 
ATOM     20  C   UNL     1      12.008   8.665  17.815  0.00  0.00    +0.216 C 
ATOM     21  C   UNL     1      13.759   8.799  16.056  0.00  0.00    +0.108 C 
ATOM     22  C   UNL     1      13.573  10.652  17.575  0.00  0.00    +0.108 C 
ATOM     23  C   UNL     1      14.561   9.973  15.515  0.00  0.00    +0.020 C 
ATOM     24  C   UNL     1      14.857  10.786  16.769  0.00  0.00    +0.020 C 
ENDBRANCH  18  20
ENDBRANCH  15  18
ENDBRANCH  11  15
BRANCH   5  16
ATOM     16  C   UNL     1      17.521   6.735  21.307  0.00  0.00    +0.120 C 
BRANCH  16  19
ATOM      1 CL   UNL     1      22.431   5.410  20.167  0.00  0.00    -0.084 Cl
ATOM     19  C   UNL     1      18.957   7.148  21.121  0.00  0.00    -0.032 A 
ATOM     25  C   UNL     1      19.917   6.198  20.770  0.00  0.00    +0.025 A 
ATOM     26  C   UNL     1      19.327   8.481  21.298  0.00  0.00    +0.005 A 
ATOM     27  C   UNL     1      21.247   6.581  20.597  0.00  0.00    +0.041 A 
ATOM     28  C   UNL     1      20.657   8.864  21.125  0.00  0.00    +0.002 A 
ATOM     29  C   UNL     1      21.618   7.915  20.775  0.00  0.00    +0.020 A 
ENDBRANCH  16  19
ENDBRANCH   5  16
TORSDOF 5
ENDMDL
MODEL 8
REMARK VINA RESULT:      -6.2     30.581     35.462
REMARK  Name = 45360868
REMARK  6 active torsions:
REMARK  status: ('A' for Active; 'I' for Inactive)
REMARK    1  A    between atoms: N_4  and  C_17
REMARK    2  A    between atoms: N_5  and  C_16
REMARK    3  A    between atoms: C_11  and  C_15
REMARK    4  A    between atoms: C_15  and  C_18
REMARK    5  A    between atoms: C_16  and  C_19
REMARK    6  A    between atoms: C_18  and  C_20
REMARK                            x       y       z     vdW  Elec       q    Type
REMARK                         _______ _______ _______ _____ _____    ______ ____
ROOT
ATOM      2  O   UNL     1      10.184   4.848  -1.048  0.00  0.00    -0.274 OA
ATOM      4  N   UNL     1      12.656   5.820   1.769  0.00  0.00    -0.296 NA
ATOM      5  N   UNL     1      12.633   3.727  -1.233  0.00  0.00    -0.286 NA
ATOM      6  N   UNL     1      10.059   4.685   1.231  0.00  0.00    -0.312 N 
ATOM      8  C   UNL     1      13.130   4.690   0.939  0.00  0.00    +0.084 C 
ATOM      9  C   UNL     1      12.081   3.876   0.126  0.00  0.00    +0.161 C 
ATOM     10  C   UNL     1      14.136   5.097  -0.153  0.00  0.00    +0.036 C 
ATOM     11  C   UNL     1      11.748   5.427   2.883  0.00  0.00    +0.074 C 
ATOM     12  C   UNL     1      14.073   3.947  -1.137  0.00  0.00    +0.087 C 
ATOM     13  C   UNL     1      10.674   4.387   2.509  0.00  0.00    +0.123 C 
ATOM     14  C   UNL     1      10.703   4.523   0.019  0.00  0.00    +0.232 C 
ATOM     17  C   UNL     1      13.791   6.602   2.287  0.00  0.00    +0.105 C 
ATOM     30  H   UNL     1       9.107   5.037   1.221  0.00  0.00    +0.149 HD
ENDROOT
BRANCH  11  15
ATOM     15  C   UNL     1      11.019   6.666   3.446  0.00  0.00    +0.029 C 
BRANCH  15  18
ATOM     18  C   UNL     1       9.807   6.284   4.272  0.00  0.00    +0.097 C 
BRANCH  18  20
ATOM      3  O   UNL     1       9.864   8.220   5.658  0.00  0.00    -0.276 OA
ATOM      7  N   UNL     1       9.754   6.168   6.715  0.00  0.00    -0.301 N 
ATOM     20  C   UNL     1       9.809   6.989   5.604  0.00  0.00    +0.216 C 
ATOM     21  C   UNL     1       9.756   6.695   8.072  0.00  0.00    +0.108 C 
ATOM     22  C   UNL     1       9.683   4.710   6.720  0.00  0.00    +0.108 C 
ATOM     23  C   UNL     1       9.360   5.511   8.941  0.00  0.00    +0.020 C 
ATOM     24  C   UNL     1       9.925   4.323   8.172  0.00  0.00    +0.020 C 
ENDBRANCH  18  20
ENDBRANCH  15  18
ENDBRANCH  11  15
BRANCH   5  16
ATOM     16  C   UNL     1      12.315   2.446  -1.849  0.00  0.00    +0.120 C 
BRANCH  16  19
ATOM      1 CL   UNL     1      12.594   3.726  -6.893  0.00  0.00    -0.084 Cl
ATOM     19  C   UNL     1      11.623   2.617  -3.174  0.00  0.00    -0.032 A 
ATOM     25  C   UNL     1      12.345   3.042  -4.290  0.00  0.00    +0.025 A 
ATOM     26  C   UNL     1      10.258   2.348  -3.288  0.00  0.00    +0.005 A 
ATOM     27  C   UNL     1      11.704   3.199  -5.518  0.00  0.00    +0.041 A 
ATOM     28  C   UNL     1       9.617   2.505  -4.517  0.00  0.00    +0.002 A 
ATOM     29  C   UNL     1      10.339   2.930  -5.632  0.00  0.00    +0.020 A 
ENDBRANCH  16  19
ENDBRANCH   5  16
TORSDOF 5
ENDMDL
MODEL 9
REMARK VINA RESULT:      -6.2     18.708     19.801
REMARK  Name = 45360868
REMARK  6 active torsions:
REMARK  status: ('A' for Active; 'I' for Inactive)
REMARK    1  A    between atoms: N_4  and  C_17
REMARK    2  A    between atoms: N_5  and  C_16
REMARK    3  A    between atoms: C_11  and  C_15
REMARK    4  A    between atoms: C_15  and  C_18
REMARK    5  A    between atoms: C_16  and  C_19
REMARK    6  A    between atoms: C_18  and  C_20
REMARK                            x       y       z     vdW  Elec       q    Type
REMARK                         _______ _______ _______ _____ _____    ______ ____
ROOT
ATOM      2  O   UNL     1      -6.710  -9.952  13.978  0.00  0.00    -0.274 OA
ATOM      4  N   UNL     1      -6.535 -10.799  17.752  0.00  0.00    -0.296 NA
ATOM      5  N   UNL     1      -4.399 -11.085  14.794  0.00  0.00    -0.286 NA
ATOM      6  N   UNL     1      -8.047 -11.222  15.333  0.00  0.00    -0.312 N 
ATOM      8  C   UNL     1      -5.436 -11.403  16.966  0.00  0.00    +0.084 C 
ATOM      9  C   UNL     1      -5.633 -11.581  15.432  0.00  0.00    +0.161 C 
ATOM     10  C   UNL     1      -4.115 -10.614  17.030  0.00  0.00    +0.036 C 
ATOM     11  C   UNL     1      -7.792 -11.597  17.767  0.00  0.00    +0.074 C 
ATOM     12  C   UNL     1      -3.355 -11.100  15.814  0.00  0.00    +0.087 C 
ATOM     13  C   UNL     1      -8.204 -12.186  16.404  0.00  0.00    +0.123 C 
ATOM     14  C   UNL     1      -6.819 -10.823  14.841  0.00  0.00    +0.232 C 
ATOM     17  C   UNL     1      -6.096 -10.511  19.128  0.00  0.00    +0.105 C 
ATOM     30  H   UNL     1      -8.881 -10.812  14.923  0.00  0.00    +0.149 HD
ENDROOT
BRANCH  11  15
ATOM     15  C   UNL     1      -8.970 -10.738  18.276  0.00  0.00    +0.029 C 
BRANCH  15  18
ATOM     18  C   UNL     1      -9.216  -9.532  17.392  0.00  0.00    +0.097 C 
BRANCH  18  20
ATOM      3  O   UNL     1     -11.440 -10.362  17.196  0.00  0.00    -0.276 OA
ATOM      7  N   UNL     1     -11.057  -8.195  16.493  0.00  0.00    -0.301 N 
ATOM     20  C   UNL     1     -10.673  -9.412  17.025  0.00  0.00    +0.216 C 
ATOM     21  C   UNL     1     -12.426  -7.923  16.082  0.00  0.00    +0.108 C 
ATOM     22  C   UNL     1     -10.202  -7.033  16.269  0.00  0.00    +0.108 C 
ATOM     23  C   UNL     1     -12.471  -6.416  15.879  0.00  0.00    +0.020 C 
ATOM     24  C   UNL     1     -11.053  -6.094  15.425  0.00  0.00    +0.020 C 
ENDBRANCH  18  20
ENDBRANCH  15  18
ENDBRANCH  11  15
BRANCH   5  16
ATOM     16  C   UNL     1      -4.018 -11.841  13.609  0.00  0.00    +0.120 C 
BRANCH  16  19
ATOM      1 CL   UNL     1      -0.462  -8.946  11.133  0.00  0.00    -0.084 Cl
ATOM     19  C   UNL     1      -3.668 -10.938  12.456  0.00  0.00    -0.032 A 
ATOM     25  C   UNL     1      -2.377 -10.421  12.342  0.00  0.00    +0.025 A 
ATOM     26  C   UNL     1      -4.634 -10.620  11.501  0.00  0.00    +0.005 A 
ATOM     27  C   UNL     1      -2.052  -9.585  11.273  0.00  0.00    +0.041 A 
ATOM     28  C   UNL     1      -4.309  -9.785  10.432  0.00  0.00    +0.002 A 
ATOM     29  C   UNL     1      -3.018  -9.267  10.318  0.00  0.00    +0.020 A 
ENDBRANCH  16  19
ENDBRANCH   5  16
TORSDOF 5
ENDMDL
MODEL 10
REMARK VINA RESULT:      -6.2     20.888     23.342
REMARK  Name = 45360868
REMARK  6 active torsions:
REMARK  status: ('A' for Active; 'I' for Inactive)
REMARK    1  A    between atoms: N_4  and  C_17
REMARK    2  A    between atoms: N_5  and  C_16
REMARK    3  A    between atoms: C_11  and  C_15
REMARK    4  A    between atoms: C_15  and  C_18
REMARK    5  A    between atoms: C_16  and  C_19
REMARK    6  A    between atoms: C_18  and  C_20
REMARK                            x       y       z     vdW  Elec       q    Type
REMARK                         _______ _______ _______ _____ _____    ______ ____
ROOT
ATOM      2  O   UNL     1      -5.911  -9.049  12.465  0.00  0.00    -0.274 OA
ATOM      4  N   UNL     1      -5.007 -11.563   9.662  0.00  0.00    -0.296 NA
ATOM      5  N   UNL     1      -4.430 -11.164  13.254  0.00  0.00    -0.286 NA
ATOM      6  N   UNL     1      -4.845  -8.795  10.455  0.00  0.00    -0.312 N 
ATOM      8  C   UNL     1      -4.251 -11.787  10.915  0.00  0.00    +0.084 C 
ATOM      9  C   UNL     1      -4.122 -10.608  11.923  0.00  0.00    +0.161 C 
ATOM     10  C   UNL     1      -4.828 -12.905  11.802  0.00  0.00    +0.036 C 
ATOM     11  C   UNL     1      -4.410 -10.543   8.756  0.00  0.00    +0.074 C 
ATOM     12  C   UNL     1      -4.245 -12.609  13.167  0.00  0.00    +0.087 C 
ATOM     13  C   UNL     1      -3.905  -9.267   9.459  0.00  0.00    +0.123 C 
ATOM     14  C   UNL     1      -5.058  -9.430  11.664  0.00  0.00    +0.232 C 
ATOM     17  C   UNL     1      -5.210 -12.831   8.941  0.00  0.00    +0.105 C 
ATOM     30  H   UNL     1      -5.382  -7.956  10.257  0.00  0.00    +0.149 HD
ENDROOT
BRANCH  11  15
ATOM     15  C   UNL     1      -5.433 -10.109   7.684  0.00  0.00    +0.029 C 
BRANCH  15  18
ATOM     18  C   UNL     1      -6.823  -9.938   8.264  0.00  0.00    +0.097 C 
BRANCH  18  20
ATOM      3  O   UNL     1      -7.071  -7.629   8.791  0.00  0.00    -0.276 OA
ATOM      7  N   UNL     1      -8.150  -8.401   6.900  0.00  0.00    -0.301 N 
ATOM     20  C   UNL     1      -7.351  -8.548   8.018  0.00  0.00    +0.216 C 
ATOM     21  C   UNL     1      -8.742  -7.124   6.529  0.00  0.00    +0.108 C 
ATOM     22  C   UNL     1      -8.515  -9.444   5.945  0.00  0.00    +0.108 C 
ATOM     23  C   UNL     1      -9.245  -7.336   5.109  0.00  0.00    +0.020 C 
ATOM     24  C   UNL     1      -9.610  -8.815   5.096  0.00  0.00    +0.020 C 
ENDBRANCH  18  20
ENDBRANCH  15  18
ENDBRANCH  11  15
BRANCH   5  16
ATOM     16  C   UNL     1      -3.637 -10.573  14.324  0.00  0.00    +0.120 C 
BRANCH  16  19
ATOM      1 CL   UNL     1      -3.758 -12.075  19.313  0.00  0.00    -0.084 Cl
ATOM     19  C   UNL     1      -4.363 -10.605  15.643  0.00  0.00    -0.032 A 
ATOM     25  C   UNL     1      -3.791 -11.249  16.740  0.00  0.00    +0.025 A 
ATOM     26  C   UNL     1      -5.608  -9.987  15.769  0.00  0.00    +0.005 A 
ATOM     27  C   UNL     1      -4.463 -11.277  17.962  0.00  0.00    +0.041 A 
ATOM     28  C   UNL     1      -6.279 -10.015  16.991  0.00  0.00    +0.002 A 
ATOM     29  C   UNL     1      -5.707 -10.660  18.088  0.00  0.00    +0.020 A 
ENDBRANCH  16  19
ENDBRANCH   5  16
TORSDOF 5
ENDMDL
