MODEL 1
REMARK VINA RESULT:      -7.2      0.000      0.000
REMARK  Name = 23786270
REMARK  9 active torsions:
REMARK  status: ('A' for Active; 'I' for Inactive)
REMARK    1  A    between atoms: S_3  and  C_27
REMARK    2  A    between atoms: S_3  and  C_32
REMARK    3  A    between atoms: O_4  and  C_13
REMARK    4  A    between atoms: C_11  and  C_19
REMARK    5  A    between atoms: C_14  and  C_20
REMARK    6  A    between atoms: C_16  and  C_23
REMARK    7  A    between atoms: C_20  and  C_24
REMARK    8  A    between atoms: C_20  and  C_25
REMARK    9  A    between atoms: C_26  and  C_27
REMARK                            x       y       z     vdW  Elec       q    Type
REMARK                         _______ _______ _______ _____ _____    ______ ____
ROOT
ATOM      2  S   UNL     1      -6.340  -9.550   6.643  0.00  0.00    -0.075 S 
ATOM      9  N   UNL     1      -7.522  -8.206   8.509  0.00  0.00    -0.247 NA
ATOM     11  C   UNL     1      -4.211 -10.372  10.065  0.00  0.00    -0.022 C 
ATOM     12  C   UNL     1      -5.423 -10.181  11.059  0.00  0.00    +0.033 C 
ATOM     13  C   UNL     1      -4.934 -10.059  12.531  0.00  0.00    +0.123 C 
ATOM     14  C   UNL     1      -3.991 -11.209  12.945  0.00  0.00    +0.029 C 
ATOM     15  C   UNL     1      -3.331 -11.554  10.535  0.00  0.00    +0.008 C 
ATOM     16  C   UNL     1      -6.376  -8.998  10.611  0.00  0.00    +0.042 C 
ATOM     17  C   UNL     1      -2.832 -11.395  11.965  0.00  0.00    +0.007 C 
ATOM     18  C   UNL     1      -4.747 -10.727   8.642  0.00  0.00    +0.051 C 
ATOM     19  C   UNL     1      -3.333  -9.098   9.966  0.00  0.00    +0.012 C 
ATOM     21  C   UNL     1      -6.587  -9.024   9.117  0.00  0.00    +0.055 A 
ATOM     22  C   UNL     1      -5.841  -9.798   8.251  0.00  0.00    +0.014 A 
ATOM     23  C   UNL     1      -7.733  -9.007  11.332  0.00  0.00    +0.014 C 
ATOM     26  C   UNL     1      -7.489  -8.406   7.209  0.00  0.00    +0.100 A 
ENDROOT
BRANCH  13   4
ATOM      4  O   UNL     1      -6.059 -10.098  13.408  0.00  0.00    -0.391 OA
ATOM     38  H   UNL     1      -6.431  -9.202  13.462  0.00  0.00    +0.210 HD
ENDBRANCH  13   4
BRANCH  14  20
ATOM     20  C   UNL     1      -3.438 -11.011  14.361  0.00  0.00    +0.078 C 
ATOM     24  C   UNL     1      -1.943 -10.748  14.334  0.00  0.00    +0.017 C 
BRANCH  20  25
ATOM      5  O   UNL     1      -3.206 -13.319  14.853  0.00  0.00    -0.275 OA
ATOM      6  O   UNL     1      -5.568 -11.703  18.886  0.00  0.00    -0.377 OA
ATOM     10  N   UNL     1      -4.549 -12.081  16.286  0.00  0.00    -0.297 N 
ATOM     25  C   UNL     1      -3.716 -12.245  15.181  0.00  0.00    +0.219 C 
ATOM     28  C   UNL     1      -4.867 -13.227  17.139  0.00  0.00    +0.136 C 
ATOM     29  C   UNL     1      -5.272 -10.854  16.633  0.00  0.00    +0.136 C 
ATOM     30  C   UNL     1      -4.751 -12.843  18.608  0.00  0.00    +0.179 C 
ATOM     31  C   UNL     1      -5.144 -10.569  18.125  0.00  0.00    +0.179 C 
ENDBRANCH  20  25
ENDBRANCH  14  20
BRANCH  26  27
ATOM     27  C   UNL     1      -8.358  -7.717   6.233  0.00  0.00    +0.234 C 
BRANCH  27   3
ATOM      3  S   UNL     1     -10.031  -8.209   6.531  0.00  0.00    +0.003 S 
ATOM      7  O   UNL     1     -10.026  -9.544   7.100  0.00  0.00    -0.169 OA
ATOM      8  O   UNL     1     -10.794  -7.926   5.329  0.00  0.00    -0.169 OA
BRANCH   3  32
ATOM      1 CL   UNL     1     -11.967  -4.307  11.021  0.00  0.00    -0.084 Cl
ATOM     32  C   UNL     1     -10.578  -7.108   7.799  0.00  0.00    +0.089 A 
ATOM     33  C   UNL     1     -10.125  -5.799   7.799  0.00  0.00    +0.028 A 
ATOM     34  C   UNL     1     -11.449  -7.572   8.769  0.00  0.00    +0.028 A 
ATOM     35  C   UNL     1     -10.558  -4.928   8.801  0.00  0.00    +0.022 A 
ATOM     36  C   UNL     1     -11.882  -6.701   9.770  0.00  0.00    +0.022 A 
ATOM     37  C   UNL     1     -11.436  -5.379   9.786  0.00  0.00    +0.041 A 
ENDBRANCH   3  32
ENDBRANCH  27   3
ENDBRANCH  26  27
TORSDOF 6
ENDMDL
MODEL 2
REMARK VINA RESULT:      -7.0     29.536     33.084
REMARK  Name = 23786270
REMARK  9 active torsions:
REMARK  status: ('A' for Active; 'I' for Inactive)
REMARK    1  A    between atoms: S_3  and  C_27
REMARK    2  A    between atoms: S_3  and  C_32
REMARK    3  A    between atoms: O_4  and  C_13
REMARK    4  A    between atoms: C_11  and  C_19
REMARK    5  A    between atoms: C_14  and  C_20
REMARK    6  A    between atoms: C_16  and  C_23
REMARK    7  A    between atoms: C_20  and  C_24
REMARK    8  A    between atoms: C_20  and  C_25
REMARK    9  A    between atoms: C_26  and  C_27
REMARK                            x       y       z     vdW  Elec       q    Type
REMARK                         _______ _______ _______ _____ _____    ______ ____
ROOT
ATOM      2  S   UNL     1      20.468   5.920  20.501  0.00  0.00    -0.075 S 
ATOM      9  N   UNL     1      20.236   8.112  21.854  0.00  0.00    -0.247 NA
ATOM     11  C   UNL     1      16.496   6.945  20.205  0.00  0.00    -0.022 C 
ATOM     12  C   UNL     1      16.719   8.502  20.340  0.00  0.00    +0.033 C 
ATOM     13  C   UNL     1      15.384   9.243  20.636  0.00  0.00    +0.123 C 
ATOM     14  C   UNL     1      14.265   8.881  19.636  0.00  0.00    +0.029 C 
ATOM     15  C   UNL     1      15.380   6.666  19.171  0.00  0.00    +0.008 C 
ATOM     16  C   UNL     1      17.873   8.848  21.369  0.00  0.00    +0.042 C 
ATOM     17  C   UNL     1      14.070   7.370  19.500  0.00  0.00    +0.007 C 
ATOM     18  C   UNL     1      17.800   6.268  19.677  0.00  0.00    +0.051 C 
ATOM     19  C   UNL     1      16.104   6.293  21.557  0.00  0.00    +0.012 C 
ATOM     21  C   UNL     1      19.037   7.902  21.197  0.00  0.00    +0.055 A 
ATOM     22  C   UNL     1      18.982   6.747  20.443  0.00  0.00    +0.014 A 
ATOM     23  C   UNL     1      18.361  10.301  21.268  0.00  0.00    +0.014 C 
ATOM     26  C   UNL     1      21.068   7.138  21.552  0.00  0.00    +0.100 A 
ENDROOT
BRANCH  13   4
ATOM      4  O   UNL     1      15.594  10.652  20.543  0.00  0.00    -0.391 OA
ATOM     38  H   UNL     1      15.788  10.987  21.435  0.00  0.00    +0.210 HD
ENDBRANCH  13   4
BRANCH  14  20
ATOM     20  C   UNL     1      12.931   9.538  20.010  0.00  0.00    +0.078 C 
ATOM     24  C   UNL     1      11.765   8.828  19.347  0.00  0.00    +0.017 C 
BRANCH  20  25
ATOM      5  O   UNL     1      13.291  11.267  18.428  0.00  0.00    -0.275 OA
ATOM      6  O   UNL     1      11.125  13.760  22.108  0.00  0.00    -0.377 OA
ATOM     10  N   UNL     1      12.568  11.921  20.534  0.00  0.00    -0.297 N 
ATOM     25  C   UNL     1      12.951  10.982  19.579  0.00  0.00    +0.219 C 
ATOM     28  C   UNL     1      12.554  13.345  20.197  0.00  0.00    +0.136 C 
ATOM     29  C   UNL     1      12.281  11.633  21.943  0.00  0.00    +0.136 C 
ATOM     30  C   UNL     1      11.276  13.998  20.707  0.00  0.00    +0.179 C 
ATOM     31  C   UNL     1      11.016  12.361  22.383  0.00  0.00    +0.179 C 
ENDBRANCH  20  25
ENDBRANCH  14  20
BRANCH  26  27
ATOM     27  C   UNL     1      22.453   7.032  22.059  0.00  0.00    +0.234 C 
BRANCH  27   3
ATOM      3  S   UNL     1      22.434   6.050  23.530  0.00  0.00    +0.003 S 
ATOM      7  O   UNL     1      21.054   5.826  23.919  0.00  0.00    -0.169 OA
ATOM      8  O   UNL     1      23.374   6.640  24.466  0.00  0.00    -0.169 OA
BRANCH   3  32
ATOM      1 CL   UNL     1      24.739   0.535  21.683  0.00  0.00    -0.084 Cl
ATOM     32  C   UNL     1      23.085   4.493  23.008  0.00  0.00    +0.089 A 
ATOM     33  C   UNL     1      22.783   3.355  23.738  0.00  0.00    +0.028 A 
ATOM     34  C   UNL     1      23.884   4.437  21.880  0.00  0.00    +0.028 A 
ATOM     35  C   UNL     1      23.297   2.125  23.325  0.00  0.00    +0.022 A 
ATOM     36  C   UNL     1      24.398   3.207  21.467  0.00  0.00    +0.022 A 
ATOM     37  C   UNL     1      24.104   2.051  22.190  0.00  0.00    +0.041 A 
ENDBRANCH   3  32
ENDBRANCH  27   3
ENDBRANCH  26  27
TORSDOF 6
ENDMDL
MODEL 3
REMARK VINA RESULT:      -6.7      5.487      7.602
REMARK  Name = 23786270
REMARK  9 active torsions:
REMARK  status: ('A' for Active; 'I' for Inactive)
REMARK    1  A    between atoms: S_3  and  C_27
REMARK    2  A    between atoms: S_3  and  C_32
REMARK    3  A    between atoms: O_4  and  C_13
REMARK    4  A    between atoms: C_11  and  C_19
REMARK    5  A    between atoms: C_14  and  C_20
REMARK    6  A    between atoms: C_16  and  C_23
REMARK    7  A    between atoms: C_20  and  C_24
REMARK    8  A    between atoms: C_20  and  C_25
REMARK    9  A    between atoms: C_26  and  C_27
REMARK                            x       y       z     vdW  Elec       q    Type
REMARK                         _______ _______ _______ _____ _____    ______ ____
ROOT
ATOM      2  S   UNL     1     -15.443  -6.546  15.071  0.00  0.00    -0.075 S 
ATOM      9  N   UNL     1     -13.091  -5.951  14.178  0.00  0.00    -0.247 NA
ATOM     11  C   UNL     1     -12.996  -9.569  16.409  0.00  0.00    -0.022 C 
ATOM     12  C   UNL     1     -11.683  -8.694  16.481  0.00  0.00    +0.033 C 
ATOM     13  C   UNL     1     -10.415  -9.586  16.615  0.00  0.00    +0.123 C 
ATOM     14  C   UNL     1     -10.522 -10.608  17.768  0.00  0.00    +0.029 C 
ATOM     15  C   UNL     1     -13.039 -10.547  17.607  0.00  0.00    +0.008 C 
ATOM     16  C   UNL     1     -11.599  -7.653  15.291  0.00  0.00    +0.042 C 
ATOM     17  C   UNL     1     -11.806 -11.436  17.696  0.00  0.00    +0.007 C 
ATOM     18  C   UNL     1     -14.252  -8.646  16.515  0.00  0.00    +0.051 C 
ATOM     19  C   UNL     1     -13.082 -10.382  15.091  0.00  0.00    +0.012 C 
ATOM     21  C   UNL     1     -12.947  -7.021  15.043  0.00  0.00    +0.055 A 
ATOM     22  C   UNL     1     -14.124  -7.486  15.593  0.00  0.00    +0.014 A 
ATOM     23  C   UNL     1     -10.542  -6.560  15.515  0.00  0.00    +0.014 C 
ATOM     26  C   UNL     1     -14.360  -5.609  14.124  0.00  0.00    +0.100 A 
ENDROOT
BRANCH  13   4
ATOM      4  O   UNL     1      -9.283  -8.760  16.886  0.00  0.00    -0.391 OA
ATOM     38  H   UNL     1      -9.081  -8.828  17.834  0.00  0.00    +0.210 HD
ENDBRANCH  13   4
BRANCH  14  20
ATOM     20  C   UNL     1      -9.310 -11.545  17.812  0.00  0.00    +0.078 C 
ATOM     24  C   UNL     1      -9.740 -12.992  17.974  0.00  0.00    +0.017 C 
BRANCH  20  25
ATOM      5  O   UNL     1      -8.911 -11.012  20.088  0.00  0.00    -0.275 OA
ATOM      6  O   UNL     1      -4.294 -11.339  18.349  0.00  0.00    -0.377 OA
ATOM     10  N   UNL     1      -7.070 -10.978  18.676  0.00  0.00    -0.297 N 
ATOM     25  C   UNL     1      -8.421 -11.154  18.965  0.00  0.00    +0.219 C 
ATOM     28  C   UNL     1      -6.136 -10.603  19.739  0.00  0.00    +0.136 C 
ATOM     29  C   UNL     1      -6.474 -11.013  17.337  0.00  0.00    +0.136 C 
ATOM     30  C   UNL     1      -4.870 -11.444  19.654  0.00  0.00    +0.179 C 
ATOM     31  C   UNL     1      -5.189 -11.834  17.351  0.00  0.00    +0.179 C 
ENDBRANCH  20  25
ENDBRANCH  14  20
BRANCH  26  27
ATOM     27  C   UNL     1     -14.894  -4.496  13.311  0.00  0.00    +0.234 C 
BRANCH  27   3
ATOM      3  S   UNL     1     -15.171  -5.090  11.668  0.00  0.00    +0.003 S 
ATOM      7  O   UNL     1     -16.115  -4.205  11.009  0.00  0.00    -0.169 OA
ATOM      8  O   UNL     1     -15.438  -6.514  11.755  0.00  0.00    -0.169 OA
BRANCH   3  32
ATOM      1 CL   UNL     1      -9.645  -4.318   8.839  0.00  0.00    -0.084 Cl
ATOM     32  C   UNL     1     -13.611  -4.872  10.869  0.00  0.00    +0.089 A 
ATOM     33  C   UNL     1     -12.884  -3.718  11.108  0.00  0.00    +0.028 A 
ATOM     34  C   UNL     1     -13.143  -5.859  10.019  0.00  0.00    +0.028 A 
ATOM     35  C   UNL     1     -11.651  -3.547  10.477  0.00  0.00    +0.022 A 
ATOM     36  C   UNL     1     -11.910  -5.687   9.388  0.00  0.00    +0.022 A 
ATOM     37  C   UNL     1     -11.164  -4.531   9.618  0.00  0.00    +0.041 A 
ENDBRANCH   3  32
ENDBRANCH  27   3
ENDBRANCH  26  27
TORSDOF 6
ENDMDL
MODEL 4
REMARK VINA RESULT:      -6.7      2.434      2.905
REMARK  Name = 23786270
REMARK  9 active torsions:
REMARK  status: ('A' for Active; 'I' for Inactive)
REMARK    1  A    between atoms: S_3  and  C_27
REMARK    2  A    between atoms: S_3  and  C_32
REMARK    3  A    between atoms: O_4  and  C_13
REMARK    4  A    between atoms: C_11  and  C_19
REMARK    5  A    between atoms: C_14  and  C_20
REMARK    6  A    between atoms: C_16  and  C_23
REMARK    7  A    between atoms: C_20  and  C_24
REMARK    8  A    between atoms: C_20  and  C_25
REMARK    9  A    between atoms: C_26  and  C_27
REMARK                            x       y       z     vdW  Elec       q    Type
REMARK                         _______ _______ _______ _____ _____    ______ ____
ROOT
ATOM      2  S   UNL     1      -6.004  -9.820   6.313  0.00  0.00    -0.075 S 
ATOM      9  N   UNL     1      -7.365  -8.422   8.010  0.00  0.00    -0.247 NA
ATOM     11  C   UNL     1      -4.163 -10.448   9.938  0.00  0.00    -0.022 C 
ATOM     12  C   UNL     1      -5.459 -10.240  10.816  0.00  0.00    +0.033 C 
ATOM     13  C   UNL     1      -5.101 -10.044  12.317  0.00  0.00    +0.123 C 
ATOM     14  C   UNL     1      -4.177 -11.155  12.861  0.00  0.00    +0.029 C 
ATOM     15  C   UNL     1      -3.307 -11.589  10.534  0.00  0.00    +0.008 C 
ATOM     16  C   UNL     1      -6.391  -9.098  10.236  0.00  0.00    +0.042 C 
ATOM     17  C   UNL     1      -2.935 -11.359  11.993  0.00  0.00    +0.007 C 
ATOM     18  C   UNL     1      -4.568 -10.875   8.491  0.00  0.00    +0.051 C 
ATOM     19  C   UNL     1      -3.302  -9.160   9.857  0.00  0.00    +0.012 C 
ATOM     21  C   UNL     1      -6.472  -9.193   8.731  0.00  0.00    +0.055 A 
ATOM     22  C   UNL     1      -5.641  -9.987   7.968  0.00  0.00    +0.014 A 
ATOM     23  C   UNL     1      -7.805  -9.105  10.837  0.00  0.00    +0.014 C 
ATOM     26  C   UNL     1      -7.217  -8.677   6.728  0.00  0.00    +0.100 A 
ENDROOT
BRANCH  13   4
ATOM      4  O   UNL     1      -6.297 -10.070  13.095  0.00  0.00    -0.391 OA
ATOM     38  H   UNL     1      -7.033  -9.787  12.527  0.00  0.00    +0.210 HD
ENDBRANCH  13   4
BRANCH  14  20
ATOM     20  C   UNL     1      -3.752 -10.884  14.309  0.00  0.00    +0.078 C 
ATOM     24  C   UNL     1      -2.290 -10.481  14.384  0.00  0.00    +0.017 C 
BRANCH  20  25
ATOM      5  O   UNL     1      -3.479 -13.195  14.765  0.00  0.00    -0.275 OA
ATOM      6  O   UNL     1      -5.601 -11.627  18.947  0.00  0.00    -0.377 OA
ATOM     10  N   UNL     1      -4.739 -11.978  16.287  0.00  0.00    -0.297 N 
ATOM     25  C   UNL     1      -3.974 -12.127  15.133  0.00  0.00    +0.219 C 
ATOM     28  C   UNL     1      -4.999 -13.132  17.148  0.00  0.00    +0.136 C 
ATOM     29  C   UNL     1      -5.446 -10.757  16.688  0.00  0.00    +0.136 C 
ATOM     30  C   UNL     1      -4.797 -12.760  18.610  0.00  0.00    +0.179 C 
ATOM     31  C   UNL     1      -5.230 -10.485  18.172  0.00  0.00    +0.179 C 
ENDBRANCH  20  25
ENDBRANCH  14  20
BRANCH  26  27
ATOM     27  C   UNL     1      -8.011  -8.049   5.651  0.00  0.00    +0.234 C 
BRANCH  27   3
ATOM      3  S   UNL     1      -9.668  -7.837   6.232  0.00  0.00    +0.003 S 
ATOM      7  O   UNL     1      -9.692  -6.726   7.166  0.00  0.00    -0.169 OA
ATOM      8  O   UNL     1     -10.165  -9.141   6.631  0.00  0.00    -0.169 OA
BRANCH   3  32
ATOM      1 CL   UNL     1     -12.827  -6.029   1.144  0.00  0.00    -0.084 Cl
ATOM     32  C   UNL     1     -10.559  -7.326   4.795  0.00  0.00    +0.089 A 
ATOM     33  C   UNL     1     -11.942  -7.402   4.795  0.00  0.00    +0.028 A 
ATOM     34  C   UNL     1      -9.861  -6.859   3.696  0.00  0.00    +0.028 A 
ATOM     35  C   UNL     1     -12.647  -6.998   3.660  0.00  0.00    +0.022 A 
ATOM     36  C   UNL     1     -10.565  -6.455   2.561  0.00  0.00    +0.022 A 
ATOM     37  C   UNL     1     -11.958  -6.525   2.544  0.00  0.00    +0.041 A 
ENDBRANCH   3  32
ENDBRANCH  27   3
ENDBRANCH  26  27
TORSDOF 6
ENDMDL
MODEL 5
REMARK VINA RESULT:      -6.6     29.289     32.965
REMARK  Name = 23786270
REMARK  9 active torsions:
REMARK  status: ('A' for Active; 'I' for Inactive)
REMARK    1  A    between atoms: S_3  and  C_27
REMARK    2  A    between atoms: S_3  and  C_32
REMARK    3  A    between atoms: O_4  and  C_13
REMARK    4  A    between atoms: C_11  and  C_19
REMARK    5  A    between atoms: C_14  and  C_20
REMARK    6  A    between atoms: C_16  and  C_23
REMARK    7  A    between atoms: C_20  and  C_24
REMARK    8  A    between atoms: C_20  and  C_25
REMARK    9  A    between atoms: C_26  and  C_27
REMARK                            x       y       z     vdW  Elec       q    Type
REMARK                         _______ _______ _______ _____ _____    ______ ____
ROOT
ATOM      2  S   UNL     1      20.727   6.250  21.150  0.00  0.00    -0.075 S 
ATOM      9  N   UNL     1      20.182   8.493  22.316  0.00  0.00    -0.247 NA
ATOM     11  C   UNL     1      16.767   6.965  20.297  0.00  0.00    -0.022 C 
ATOM     12  C   UNL     1      16.870   8.540  20.357  0.00  0.00    +0.033 C 
ATOM     13  C   UNL     1      15.463   9.197  20.435  0.00  0.00    +0.123 C 
ATOM     14  C   UNL     1      14.507   8.698  19.330  0.00  0.00    +0.029 C 
ATOM     15  C   UNL     1      15.813   6.547  19.153  0.00  0.00    +0.008 C 
ATOM     16  C   UNL     1      17.858   9.026  21.495  0.00  0.00    +0.042 C 
ATOM     17  C   UNL     1      14.429   7.172  19.271  0.00  0.00    +0.007 C 
ATOM     18  C   UNL     1      18.169   6.355  19.981  0.00  0.00    +0.051 C 
ATOM     19  C   UNL     1      16.249   6.365  21.630  0.00  0.00    +0.012 C 
ATOM     21  C   UNL     1      19.093   8.159  21.532  0.00  0.00    +0.055 A 
ATOM     22  C   UNL     1      19.209   6.962  20.854  0.00  0.00    +0.014 A 
ATOM     23  C   UNL     1      18.259  10.503  21.360  0.00  0.00    +0.014 C 
ATOM     26  C   UNL     1      21.107   7.566  22.185  0.00  0.00    +0.100 A 
ENDROOT
BRANCH  13   4
ATOM      4  O   UNL     1      15.591  10.609  20.276  0.00  0.00    -0.391 OA
ATOM     38  H   UNL     1      16.397  10.893  20.741  0.00  0.00    +0.210 HD
ENDBRANCH  13   4
BRANCH  14  20
ATOM     20  C   UNL     1      13.096   9.277  19.492  0.00  0.00    +0.078 C 
ATOM     24  C   UNL     1      12.411   8.713  20.724  0.00  0.00    +0.017 C 
BRANCH  20  25
ATOM      5  O   UNL     1      11.219   8.332  18.394  0.00  0.00    -0.275 OA
ATOM      6  O   UNL     1      13.350  10.825  14.693  0.00  0.00    -0.377 OA
ATOM     10  N   UNL     1      12.793   9.377  17.046  0.00  0.00    -0.297 N 
ATOM     25  C   UNL     1      12.280   8.948  18.268  0.00  0.00    +0.219 C 
ATOM     28  C   UNL     1      12.062   9.104  15.808  0.00  0.00    +0.136 C 
ATOM     29  C   UNL     1      14.107   9.996  16.844  0.00  0.00    +0.136 C 
ATOM     30  C   UNL     1      12.024  10.346  14.929  0.00  0.00    +0.179 C 
ATOM     31  C   UNL     1      13.986  11.200  15.917  0.00  0.00    +0.179 C 
ENDBRANCH  20  25
ENDBRANCH  14  20
BRANCH  26  27
ATOM     27  C   UNL     1      22.419   7.591  22.865  0.00  0.00    +0.234 C 
BRANCH  27   3
ATOM      3  S   UNL     1      22.383   6.414  24.186  0.00  0.00    +0.003 S 
ATOM      7  O   UNL     1      21.001   6.063  24.456  0.00  0.00    -0.169 OA
ATOM      8  O   UNL     1      23.234   6.919  25.248  0.00  0.00    -0.169 OA
BRANCH   3  32
ATOM      1 CL   UNL     1      25.123   1.342  21.754  0.00  0.00    -0.084 Cl
ATOM     32  C   UNL     1      23.156   4.982  23.499  0.00  0.00    +0.089 A 
ATOM     33  C   UNL     1      24.532   4.966  23.340  0.00  0.00    +0.028 A 
ATOM     34  C   UNL     1      22.374   3.900  23.133  0.00  0.00    +0.028 A 
ATOM     35  C   UNL     1      25.143   3.834  22.798  0.00  0.00    +0.022 A 
ATOM     36  C   UNL     1      22.985   2.768  22.591  0.00  0.00    +0.022 A 
ATOM     37  C   UNL     1      24.370   2.736  22.424  0.00  0.00    +0.041 A 
ENDBRANCH   3  32
ENDBRANCH  27   3
ENDBRANCH  26  27
TORSDOF 6
ENDMDL
MODEL 6
REMARK VINA RESULT:      -6.6     29.303     32.822
REMARK  Name = 23786270
REMARK  9 active torsions:
REMARK  status: ('A' for Active; 'I' for Inactive)
REMARK    1  A    between atoms: S_3  and  C_27
REMARK    2  A    between atoms: S_3  and  C_32
REMARK    3  A    between atoms: O_4  and  C_13
REMARK    4  A    between atoms: C_11  and  C_19
REMARK    5  A    between atoms: C_14  and  C_20
REMARK    6  A    between atoms: C_16  and  C_23
REMARK    7  A    between atoms: C_20  and  C_24
REMARK    8  A    between atoms: C_20  and  C_25
REMARK    9  A    between atoms: C_26  and  C_27
REMARK                            x       y       z     vdW  Elec       q    Type
REMARK                         _______ _______ _______ _____ _____    ______ ____
ROOT
ATOM      2  S   UNL     1      20.294   5.828  21.672  0.00  0.00    -0.075 S 
ATOM      9  N   UNL     1      19.864   8.179  22.659  0.00  0.00    -0.247 NA
ATOM     11  C   UNL     1      16.615   6.946  20.210  0.00  0.00    -0.022 C 
ATOM     12  C   UNL     1      16.900   8.499  20.225  0.00  0.00    +0.033 C 
ATOM     13  C   UNL     1      15.587   9.317  20.067  0.00  0.00    +0.123 C 
ATOM     14  C   UNL     1      14.746   8.871  18.851  0.00  0.00    +0.029 C 
ATOM     15  C   UNL     1      15.793   6.578  18.952  0.00  0.00    +0.008 C 
ATOM     16  C   UNL     1      17.765   8.930  21.479  0.00  0.00    +0.042 C 
ATOM     17  C   UNL     1      14.493   7.363  18.838  0.00  0.00    +0.007 C 
ATOM     18  C   UNL     1      17.964   6.162  20.130  0.00  0.00    +0.051 C 
ATOM     19  C   UNL     1      15.841   6.484  21.472  0.00  0.00    +0.012 C 
ATOM     21  C   UNL     1      18.867   7.930  21.733  0.00  0.00    +0.055 A 
ATOM     22  C   UNL     1      18.933   6.693  21.126  0.00  0.00    +0.014 A 
ATOM     23  C   UNL     1      18.359  10.342  21.351  0.00  0.00    +0.014 C 
ATOM     26  C   UNL     1      20.678   7.147  22.703  0.00  0.00    +0.100 A 
ENDROOT
BRANCH  13   4
ATOM      4  O   UNL     1      15.908  10.695  19.876  0.00  0.00    -0.391 OA
ATOM     38  H   UNL     1      16.732  10.881  20.357  0.00  0.00    +0.210 HD
ENDBRANCH  13   4
BRANCH  14  20
ATOM     20  C   UNL     1      13.409   9.617  18.778  0.00  0.00    +0.078 C 
ATOM     24  C   UNL     1      13.449  10.714  17.730  0.00  0.00    +0.017 C 
BRANCH  20  25
ATOM      5  O   UNL     1      13.418  11.389  20.353  0.00  0.00    -0.275 OA
ATOM      6  O   UNL     1      10.543   8.078  22.639  0.00  0.00    -0.377 OA
ATOM     10  N   UNL     1      12.459   9.391  21.043  0.00  0.00    -0.297 N 
ATOM     25  C   UNL     1      13.101  10.219  20.125  0.00  0.00    +0.219 C 
ATOM     28  C   UNL     1      12.119   9.898  22.373  0.00  0.00    +0.136 C 
ATOM     29  C   UNL     1      12.182   7.964  20.854  0.00  0.00    +0.136 C 
ATOM     30  C   UNL     1      10.699   9.495  22.747  0.00  0.00    +0.179 C 
ATOM     31  C   UNL     1      10.760   7.639  21.296  0.00  0.00    +0.179 C 
ENDBRANCH  20  25
ENDBRANCH  14  20
BRANCH  26  27
ATOM     27  C   UNL     1      21.872   7.058  23.570  0.00  0.00    +0.234 C 
BRANCH  27   3
ATOM      3  S   UNL     1      23.311   7.108  22.543  0.00  0.00    +0.003 S 
ATOM      7  O   UNL     1      24.430   7.582  23.337  0.00  0.00    -0.169 OA
ATOM      8  O   UNL     1      22.948   7.782  21.309  0.00  0.00    -0.169 OA
BRANCH   3  32
ATOM      1 CL   UNL     1      24.418   1.096  21.214  0.00  0.00    -0.084 Cl
ATOM     32  C   UNL     1      23.624   5.411  22.167  0.00  0.00    +0.089 A 
ATOM     33  C   UNL     1      23.516   4.464  23.173  0.00  0.00    +0.028 A 
ATOM     34  C   UNL     1      23.969   5.056  20.875  0.00  0.00    +0.028 A 
ATOM     35  C   UNL     1      23.763   3.123  22.876  0.00  0.00    +0.022 A 
ATOM     36  C   UNL     1      24.216   3.715  20.578  0.00  0.00    +0.022 A 
ATOM     37  C   UNL     1      24.112   2.749  21.579  0.00  0.00    +0.041 A 
ENDBRANCH   3  32
ENDBRANCH  27   3
ENDBRANCH  26  27
TORSDOF 6
ENDMDL
MODEL 7
REMARK VINA RESULT:      -6.6      2.831      3.342
REMARK  Name = 23786270
REMARK  9 active torsions:
REMARK  status: ('A' for Active; 'I' for Inactive)
REMARK    1  A    between atoms: S_3  and  C_27
REMARK    2  A    between atoms: S_3  and  C_32
REMARK    3  A    between atoms: O_4  and  C_13
REMARK    4  A    between atoms: C_11  and  C_19
REMARK    5  A    between atoms: C_14  and  C_20
REMARK    6  A    between atoms: C_16  and  C_23
REMARK    7  A    between atoms: C_20  and  C_24
REMARK    8  A    between atoms: C_20  and  C_25
REMARK    9  A    between atoms: C_26  and  C_27
REMARK                            x       y       z     vdW  Elec       q    Type
REMARK                         _______ _______ _______ _____ _____    ______ ____
ROOT
ATOM      2  S   UNL     1      -5.237 -10.657   6.764  0.00  0.00    -0.075 S 
ATOM      9  N   UNL     1      -6.638  -8.929   8.082  0.00  0.00    -0.247 NA
ATOM     11  C   UNL     1      -3.969 -11.000  10.662  0.00  0.00    -0.022 C 
ATOM     12  C   UNL     1      -5.335 -10.556  11.317  0.00  0.00    +0.033 C 
ATOM     13  C   UNL     1      -5.156 -10.209  12.822  0.00  0.00    +0.123 C 
ATOM     14  C   UNL     1      -4.444 -11.328  13.614  0.00  0.00    +0.029 C 
ATOM     15  C   UNL     1      -3.334 -12.136  11.498  0.00  0.00    +0.008 C 
ATOM     16  C   UNL     1      -6.046  -9.411  10.485  0.00  0.00    +0.042 C 
ATOM     17  C   UNL     1      -3.131 -11.761  12.960  0.00  0.00    +0.007 C 
ATOM     18  C   UNL     1      -4.228 -11.565   9.229  0.00  0.00    +0.051 C 
ATOM     19  C   UNL     1      -2.962  -9.824  10.562  0.00  0.00    +0.012 C 
ATOM     21  C   UNL     1      -5.941  -9.687   9.005  0.00  0.00    +0.055 A 
ATOM     22  C   UNL     1      -5.114 -10.649   8.462  0.00  0.00    +0.014 A 
ATOM     23  C   UNL     1      -7.517  -9.202  10.875  0.00  0.00    +0.014 C 
ATOM     26  C   UNL     1      -6.354  -9.357   6.871  0.00  0.00    +0.100 A 
ENDROOT
BRANCH  13   4
ATOM      4  O   UNL     1      -6.438 -10.018  13.419  0.00  0.00    -0.391 OA
ATOM     38  H   UNL     1      -6.387  -9.240  14.000  0.00  0.00    +0.210 HD
ENDBRANCH  13   4
BRANCH  14  20
ATOM     20  C   UNL     1      -4.183 -10.919  15.068  0.00  0.00    +0.078 C 
ATOM     24  C   UNL     1      -2.705 -10.672  15.310  0.00  0.00    +0.017 C 
BRANCH  20  25
ATOM      5  O   UNL     1      -4.102 -13.109  15.973  0.00  0.00    -0.275 OA
ATOM      6  O   UNL     1      -7.365 -10.937  18.987  0.00  0.00    -0.377 OA
ATOM     10  N   UNL     1      -5.743 -11.699  16.812  0.00  0.00    -0.297 N 
ATOM     25  C   UNL     1      -4.666 -12.013  15.986  0.00  0.00    +0.219 C 
ATOM     28  C   UNL     1      -6.273 -12.700  17.738  0.00  0.00    +0.136 C 
ATOM     29  C   UNL     1      -6.517 -10.454  16.766  0.00  0.00    +0.136 C 
ATOM     30  C   UNL     1      -6.517 -12.081  19.107  0.00  0.00    +0.179 C 
ATOM     31  C   UNL     1      -6.756  -9.928  18.177  0.00  0.00    +0.179 C 
ENDBRANCH  20  25
ENDBRANCH  14  20
BRANCH  26  27
ATOM     27  C   UNL     1      -6.923  -8.795   5.628  0.00  0.00    +0.234 C 
BRANCH  27   3
ATOM      3  S   UNL     1      -8.537  -8.166   5.989  0.00  0.00    +0.003 S 
ATOM      7  O   UNL     1      -8.395  -6.932   6.740  0.00  0.00    -0.169 OA
ATOM      8  O   UNL     1      -9.327  -9.262   6.521  0.00  0.00    -0.169 OA
BRANCH   3  32
ATOM      1 CL   UNL     1     -10.850  -6.650   0.378  0.00  0.00    -0.084 Cl
ATOM     32  C   UNL     1      -9.190  -7.738   4.405  0.00  0.00    +0.089 A 
ATOM     33  C   UNL     1      -8.573  -8.224   3.265  0.00  0.00    +0.028 A 
ATOM     34  C   UNL     1     -10.308  -6.925   4.332  0.00  0.00    +0.028 A 
ATOM     35  C   UNL     1      -9.090  -7.886   2.013  0.00  0.00    +0.022 A 
ATOM     36  C   UNL     1     -10.825  -6.587   3.080  0.00  0.00    +0.022 A 
ATOM     37  C   UNL     1     -10.215  -7.068   1.921  0.00  0.00    +0.041 A 
ENDBRANCH   3  32
ENDBRANCH  27   3
ENDBRANCH  26  27
TORSDOF 6
ENDMDL
MODEL 8
REMARK VINA RESULT:      -6.5      1.946      2.757
REMARK  Name = 23786270
REMARK  9 active torsions:
REMARK  status: ('A' for Active; 'I' for Inactive)
REMARK    1  A    between atoms: S_3  and  C_27
REMARK    2  A    between atoms: S_3  and  C_32
REMARK    3  A    between atoms: O_4  and  C_13
REMARK    4  A    between atoms: C_11  and  C_19
REMARK    5  A    between atoms: C_14  and  C_20
REMARK    6  A    between atoms: C_16  and  C_23
REMARK    7  A    between atoms: C_20  and  C_24
REMARK    8  A    between atoms: C_20  and  C_25
REMARK    9  A    between atoms: C_26  and  C_27
REMARK                            x       y       z     vdW  Elec       q    Type
REMARK                         _______ _______ _______ _____ _____    ______ ____
ROOT
ATOM      2  S   UNL     1      -4.654 -11.919   7.648  0.00  0.00    -0.075 S 
ATOM      9  N   UNL     1      -5.739  -9.705   8.427  0.00  0.00    -0.247 NA
ATOM     11  C   UNL     1      -3.851 -11.694  11.676  0.00  0.00    -0.022 C 
ATOM     12  C   UNL     1      -5.135 -10.854  12.050  0.00  0.00    +0.033 C 
ATOM     13  C   UNL     1      -5.017 -10.244  13.476  0.00  0.00    +0.123 C 
ATOM     14  C   UNL     1      -4.651 -11.295  14.548  0.00  0.00    +0.029 C 
ATOM     15  C   UNL     1      -3.568 -12.736  12.784  0.00  0.00    +0.008 C 
ATOM     16  C   UNL     1      -5.490  -9.786  10.935  0.00  0.00    +0.042 C 
ATOM     17  C   UNL     1      -3.418 -12.114  14.165  0.00  0.00    +0.007 C 
ATOM     18  C   UNL     1      -4.103 -12.480  10.350  0.00  0.00    +0.051 C 
ATOM     19  C   UNL     1      -2.599 -10.796  11.496  0.00  0.00    +0.012 C 
ATOM     21  C   UNL     1      -5.317 -10.380   9.558  0.00  0.00    +0.055 A 
ATOM     22  C   UNL     1      -4.686 -11.583   9.316  0.00  0.00    +0.014 A 
ATOM     23  C   UNL     1      -6.904  -9.204  11.081  0.00  0.00    +0.014 C 
ATOM     26  C   UNL     1      -5.453 -10.426   7.364  0.00  0.00    +0.100 A 
ENDROOT
BRANCH  13   4
ATOM      4  O   UNL     1      -6.270  -9.675  13.853  0.00  0.00    -0.391 OA
ATOM     38  H   UNL     1      -6.422  -9.876  14.792  0.00  0.00    +0.210 HD
ENDBRANCH  13   4
BRANCH  14  20
ATOM     20  C   UNL     1      -4.435 -10.654  15.923  0.00  0.00    +0.078 C 
ATOM     24  C   UNL     1      -2.958 -10.457  16.210  0.00  0.00    +0.017 C 
BRANCH  20  25
ATOM      5  O   UNL     1      -4.360 -12.439  17.483  0.00  0.00    -0.275 OA
ATOM      6  O   UNL     1      -8.687 -10.338  18.627  0.00  0.00    -0.377 OA
ATOM     10  N   UNL     1      -6.358 -11.268  17.341  0.00  0.00    -0.297 N 
ATOM     25  C   UNL     1      -5.040 -11.539  16.984  0.00  0.00    +0.219 C 
ATOM     28  C   UNL     1      -7.020 -12.075  18.366  0.00  0.00    +0.136 C 
ATOM     29  C   UNL     1      -7.235 -10.293  16.684  0.00  0.00    +0.136 C 
ATOM     30  C   UNL     1      -7.778 -11.181  19.338  0.00  0.00    +0.179 C 
ATOM     31  C   UNL     1      -7.989  -9.475  17.726  0.00  0.00    +0.179 C 
ENDBRANCH  20  25
ENDBRANCH  14  20
BRANCH  26  27
ATOM     27  C   UNL     1      -5.766 -10.031   5.975  0.00  0.00    +0.234 C 
BRANCH  27   3
ATOM      3  S   UNL     1      -7.492 -10.301   5.695  0.00  0.00    +0.003 S 
ATOM      7  O   UNL     1      -7.867 -11.564   6.305  0.00  0.00    -0.169 OA
ATOM      8  O   UNL     1      -7.752 -10.060   4.287  0.00  0.00    -0.169 OA
BRANCH   3  32
ATOM      1 CL   UNL     1     -10.277  -5.771   8.990  0.00  0.00    -0.084 Cl
ATOM     32  C   UNL     1      -8.278  -9.022   6.625  0.00  0.00    +0.089 A 
ATOM     33  C   UNL     1      -9.192  -9.364   7.608  0.00  0.00    +0.028 A 
ATOM     34  C   UNL     1      -7.966  -7.701   6.356  0.00  0.00    +0.028 A 
ATOM     35  C   UNL     1      -9.812  -8.353   8.343  0.00  0.00    +0.022 A 
ATOM     36  C   UNL     1      -8.587  -6.690   7.091  0.00  0.00    +0.022 A 
ATOM     37  C   UNL     1      -9.510  -7.017   8.085  0.00  0.00    +0.041 A 
ENDBRANCH   3  32
ENDBRANCH  27   3
ENDBRANCH  26  27
TORSDOF 6
ENDMDL
MODEL 9
REMARK VINA RESULT:      -6.4      3.627      5.761
REMARK  Name = 23786270
REMARK  9 active torsions:
REMARK  status: ('A' for Active; 'I' for Inactive)
REMARK    1  A    between atoms: S_3  and  C_27
REMARK    2  A    between atoms: S_3  and  C_32
REMARK    3  A    between atoms: O_4  and  C_13
REMARK    4  A    between atoms: C_11  and  C_19
REMARK    5  A    between atoms: C_14  and  C_20
REMARK    6  A    between atoms: C_16  and  C_23
REMARK    7  A    between atoms: C_20  and  C_24
REMARK    8  A    between atoms: C_20  and  C_25
REMARK    9  A    between atoms: C_26  and  C_27
REMARK                            x       y       z     vdW  Elec       q    Type
REMARK                         _______ _______ _______ _____ _____    ______ ____
ROOT
ATOM      2  S   UNL     1      -3.394 -11.818  11.514  0.00  0.00    -0.075 S 
ATOM      9  N   UNL     1      -5.199  -9.967  11.528  0.00  0.00    -0.247 NA
ATOM     11  C   UNL     1      -4.631 -11.560  15.428  0.00  0.00    -0.022 C 
ATOM     12  C   UNL     1      -6.098 -11.073  15.102  0.00  0.00    +0.033 C 
ATOM     13  C   UNL     1      -6.801 -10.509  16.370  0.00  0.00    +0.123 C 
ATOM     14  C   UNL     1      -6.742 -11.479  17.569  0.00  0.00    +0.029 C 
ATOM     15  C   UNL     1      -4.661 -12.544  16.621  0.00  0.00    +0.008 C 
ATOM     16  C   UNL     1      -6.132 -10.082  13.868  0.00  0.00    +0.042 C 
ATOM     17  C   UNL     1      -5.319 -11.958  17.863  0.00  0.00    +0.007 C 
ATOM     18  C   UNL     1      -4.047 -12.332  14.202  0.00  0.00    +0.051 C 
ATOM     19  C   UNL     1      -3.688 -10.378  15.772  0.00  0.00    +0.012 C 
ATOM     21  C   UNL     1      -5.207 -10.562  12.776  0.00  0.00    +0.055 A 
ATOM     22  C   UNL     1      -4.274 -11.564  12.948  0.00  0.00    +0.014 A 
ATOM     23  C   UNL     1      -7.544  -9.868  13.301  0.00  0.00    +0.014 C 
ATOM     26  C   UNL     1      -4.292 -10.554  10.777  0.00  0.00    +0.100 A 
ENDROOT
BRANCH  13   4
ATOM      4  O   UNL     1      -8.180 -10.277  16.082  0.00  0.00    -0.391 OA
ATOM     38  H   UNL     1      -8.587 -11.129  15.851  0.00  0.00    +0.210 HD
ENDBRANCH  13   4
BRANCH  14  20
ATOM     20  C   UNL     1      -7.346 -10.859  18.835  0.00  0.00    +0.078 C 
ATOM     24  C   UNL     1      -6.262 -10.449  19.815  0.00  0.00    +0.017 C 
BRANCH  20  25
ATOM      5  O   UNL     1      -7.779 -12.804  20.121  0.00  0.00    -0.275 OA
ATOM      6  O   UNL     1     -12.317 -10.882  19.714  0.00  0.00    -0.377 OA
ATOM     10  N   UNL     1      -9.630 -11.643  19.337  0.00  0.00    -0.297 N 
ATOM     25  C   UNL     1      -8.263 -11.861  19.490  0.00  0.00    +0.219 C 
ATOM     28  C   UNL     1     -10.591 -12.564  19.945  0.00  0.00    +0.136 C 
ATOM     29  C   UNL     1     -10.239 -10.610  18.492  0.00  0.00    +0.136 C 
ATOM     30  C   UNL     1     -11.706 -11.790  20.634  0.00  0.00    +0.179 C 
ATOM     31  C   UNL     1     -11.373  -9.919  19.239  0.00  0.00    +0.179 C 
ENDBRANCH  20  25
ENDBRANCH  14  20
BRANCH  26  27
ATOM     27  C   UNL     1      -4.007 -10.193   9.372  0.00  0.00    +0.234 C 
BRANCH  27   3
ATOM      3  S   UNL     1      -4.999 -11.215   8.322  0.00  0.00    +0.003 S 
ATOM      7  O   UNL     1      -5.817 -12.077   9.155  0.00  0.00    -0.169 OA
ATOM      8  O   UNL     1      -4.128 -11.783   7.309  0.00  0.00    -0.169 OA
BRANCH   3  32
ATOM      1 CL   UNL     1      -8.863  -7.174   5.514  0.00  0.00    -0.084 Cl
ATOM     32  C   UNL     1      -6.090 -10.074   7.529  0.00  0.00    +0.089 A 
ATOM     33  C   UNL     1      -6.903  -9.264   8.305  0.00  0.00    +0.028 A 
ATOM     34  C   UNL     1      -6.113 -10.009   6.147  0.00  0.00    +0.028 A 
ATOM     35  C   UNL     1      -7.764  -8.363   7.678  0.00  0.00    +0.022 A 
ATOM     36  C   UNL     1      -6.974  -9.107   5.520  0.00  0.00    +0.022 A 
ATOM     37  C   UNL     1      -7.800  -8.285   6.287  0.00  0.00    +0.041 A 
ENDBRANCH   3  32
ENDBRANCH  27   3
ENDBRANCH  26  27
TORSDOF 6
ENDMDL
MODEL 10
REMARK VINA RESULT:      -6.4      4.714      6.943
REMARK  Name = 23786270
REMARK  9 active torsions:
REMARK  status: ('A' for Active; 'I' for Inactive)
REMARK    1  A    between atoms: S_3  and  C_27
REMARK    2  A    between atoms: S_3  and  C_32
REMARK    3  A    between atoms: O_4  and  C_13
REMARK    4  A    between atoms: C_11  and  C_19
REMARK    5  A    between atoms: C_14  and  C_20
REMARK    6  A    between atoms: C_16  and  C_23
REMARK    7  A    between atoms: C_20  and  C_24
REMARK    8  A    between atoms: C_20  and  C_25
REMARK    9  A    between atoms: C_26  and  C_27
REMARK                            x       y       z     vdW  Elec       q    Type
REMARK                         _______ _______ _______ _____ _____    ______ ____
ROOT
ATOM      2  S   UNL     1     -14.233  -5.280  14.162  0.00  0.00    -0.075 S 
ATOM      9  N   UNL     1     -13.918  -7.271  12.543  0.00  0.00    -0.247 NA
ATOM     11  C   UNL     1     -11.511  -7.745  16.015  0.00  0.00    -0.022 C 
ATOM     12  C   UNL     1     -10.909  -8.349  14.686  0.00  0.00    +0.033 C 
ATOM     13  C   UNL     1     -10.062  -9.621  14.975  0.00  0.00    +0.123 C 
ATOM     14  C   UNL     1      -8.998  -9.396  16.070  0.00  0.00    +0.029 C 
ATOM     15  C   UNL     1     -10.381  -7.527  17.048  0.00  0.00    +0.008 C 
ATOM     16  C   UNL     1     -12.019  -8.568  13.579  0.00  0.00    +0.042 C 
ATOM     17  C   UNL     1      -9.590  -8.794  17.345  0.00  0.00    +0.007 C 
ATOM     18  C   UNL     1     -12.148  -6.350  15.720  0.00  0.00    +0.051 C 
ATOM     19  C   UNL     1     -12.592  -8.668  16.637  0.00  0.00    +0.012 C 
ATOM     21  C   UNL     1     -12.973  -7.398  13.545  0.00  0.00    +0.055 A 
ATOM     22  C   UNL     1     -13.021  -6.420  14.517  0.00  0.00    +0.014 A 
ATOM     23  C   UNL     1     -11.439  -8.811  12.177  0.00  0.00    +0.014 C 
ATOM     26  C   UNL     1     -14.630  -6.186  12.759  0.00  0.00    +0.100 A 
ENDROOT
BRANCH  13   4
ATOM      4  O   UNL     1      -9.372 -10.010  13.788  0.00  0.00    -0.391 OA
ATOM     38  H   UNL     1      -8.423  -9.845  13.923  0.00  0.00    +0.210 HD
ENDBRANCH  13   4
BRANCH  14  20
ATOM     20  C   UNL     1      -8.250 -10.689  16.413  0.00  0.00    +0.078 C 
ATOM     24  C   UNL     1      -9.056 -11.552  17.367  0.00  0.00    +0.017 C 
BRANCH  20  25
ATOM      5  O   UNL     1      -6.856 -10.198  18.268  0.00  0.00    -0.275 OA
ATOM      6  O   UNL     1      -3.519 -10.680  14.652  0.00  0.00    -0.377 OA
ATOM     10  N   UNL     1      -5.839 -10.218  16.182  0.00  0.00    -0.297 N 
ATOM     25  C   UNL     1      -6.925 -10.345  17.045  0.00  0.00    +0.219 C 
ATOM     28  C   UNL     1      -4.516  -9.890  16.713  0.00  0.00    +0.136 C 
ATOM     29  C   UNL     1      -5.907 -10.260  14.718  0.00  0.00    +0.136 C 
ATOM     30  C   UNL     1      -3.455 -10.778  16.077  0.00  0.00    +0.179 C 
ATOM     31  C   UNL     1      -4.784 -11.128  14.162  0.00  0.00    +0.179 C 
ENDBRANCH  20  25
ENDBRANCH  14  20
BRANCH  26  27
ATOM     27  C   UNL     1     -15.728  -5.717  11.887  0.00  0.00    +0.234 C 
BRANCH  27   3
ATOM      3  S   UNL     1     -15.318  -4.101  11.296  0.00  0.00    +0.003 S 
ATOM      7  O   UNL     1     -15.113  -3.229  12.438  0.00  0.00    -0.169 OA
ATOM      8  O   UNL     1     -16.281  -3.750  10.268  0.00  0.00    -0.169 OA
BRANCH   3  32
ATOM      1 CL   UNL     1      -9.749  -4.873   8.552  0.00  0.00    -0.084 Cl
ATOM     32  C   UNL     1     -13.746  -4.319  10.521  0.00  0.00    +0.089 A 
ATOM     33  C   UNL     1     -12.671  -3.555  10.944  0.00  0.00    +0.028 A 
ATOM     34  C   UNL     1     -13.615  -5.250   9.506  0.00  0.00    +0.028 A 
ATOM     35  C   UNL     1     -11.429  -3.728  10.332  0.00  0.00    +0.022 A 
ATOM     36  C   UNL     1     -12.373  -5.423   8.894  0.00  0.00    +0.022 A 
ATOM     37  C   UNL     1     -11.280  -4.661   9.308  0.00  0.00    +0.041 A 
ENDBRANCH   3  32
ENDBRANCH  27   3
ENDBRANCH  26  27
TORSDOF 6
ENDMDL
