MODEL 1
REMARK VINA RESULT:      -5.9      0.000      0.000
REMARK  Name = 45783903
REMARK  13 active torsions:
REMARK  status: ('A' for Active; 'I' for Inactive)
REMARK    1  A    between atoms: O_2  and  C_25
REMARK    2  A    between atoms: O_2  and  C_28
REMARK    3  A    between atoms: N_3  and  C_12
REMARK    4  A    between atoms: N_4  and  C_24
REMARK    5  A    between atoms: C_7  and  C_11
REMARK    6  A    between atoms: C_8  and  C_12
REMARK    7  A    between atoms: C_10  and  C_15
REMARK    8  A    between atoms: C_11  and  C_18
REMARK    9  A    between atoms: C_11  and  C_19
REMARK   10  A    between atoms: C_14  and  C_22
REMARK   11  A    between atoms: C_15  and  C_23
REMARK   12  A    between atoms: C_24  and  C_25
REMARK   13  A    between atoms: C_26  and  C_27
REMARK                            x       y       z     vdW  Elec       q    Type
REMARK                         _______ _______ _______ _____ _____    ______ ____
ROOT
ATOM      7  C   UNL     1       8.594   7.699   3.896  0.00  0.00    +0.000 C 
ATOM      8  C   UNL     1      10.033   7.274   3.523  0.00  0.00    +0.029 C 
ATOM      9  C   UNL     1       8.445   7.819   5.419  0.00  0.00    +0.012 C 
ATOM     10  C   UNL     1       9.453   8.799   6.057  0.00  0.00    +0.024 C 
ATOM     13  C   UNL     1      11.080   8.021   4.309  0.00  0.00    -0.023 C 
ATOM     14  C   UNL     1      10.838   8.717   5.436  0.00  0.00    -0.073 C 
ATOM     22  C   UNL     1      11.942   9.500   6.094  0.00  0.00    +0.039 C 
ENDROOT
BRANCH   7  11
ATOM     11  C   UNL     1       8.197   9.006   3.196  0.00  0.00    -0.013 C 
ATOM     18  C   UNL     1       6.791   9.427   3.611  0.00  0.00    +0.007 C 
ATOM     19  C   UNL     1       8.290   8.848   1.681  0.00  0.00    +0.007 C 
ENDBRANCH   7  11
BRANCH   8  12
ATOM     12  C   UNL     1      10.243   5.767   3.707  0.00  0.00    +0.092 C 
BRANCH  12   3
ATOM      3  N   UNL     1      11.267   5.273   2.789  0.00  0.00    -0.299 NA
ATOM      4  N   UNL     1      12.139   3.802   0.458  0.00  0.00    -0.298 NA
ATOM     16  C   UNL     1      11.043   5.790   1.433  0.00  0.00    +0.100 C 
ATOM     17  C   UNL     1      11.293   3.804   2.779  0.00  0.00    +0.100 C 
ATOM     20  C   UNL     1      12.114   5.270   0.468  0.00  0.00    +0.100 C 
ATOM     21  C   UNL     1      12.363   3.285   1.814  0.00  0.00    +0.100 C 
BRANCH   4  24
ATOM     24  C   UNL     1      13.161   3.306  -0.462  0.00  0.00    +0.112 C 
BRANCH  24  25
ATOM     25  C   UNL     1      14.208   4.375  -0.731  0.00  0.00    +0.174 C 
BRANCH  25   2
ATOM      2  O   UNL     1      15.449   3.947  -0.187  0.00  0.00    -0.382 OA
ATOM     28  C   UNL     1      16.542   4.352  -1.000  0.00  0.00    +0.194 C 
ENDBRANCH  25   2
ENDBRANCH  24  25
ENDBRANCH   4  24
ENDBRANCH  12   3
ENDBRANCH   8  12
BRANCH  10  15
ATOM     15  C   UNL     1       9.464   8.573   7.573  0.00  0.00    +0.105 C 
BRANCH  15  23
ATOM      1  O   UNL     1       9.038   6.530   8.839  0.00  0.00    -0.425 OA
ATOM      5  N   UNL     1      10.786   6.399   7.448  0.00  0.00    -0.112 NA
ATOM      6  N   UNL     1      10.662   5.183   8.096  0.00  0.00    -0.113 NA
ATOM     23  C   UNL     1       9.817   7.153   7.913  0.00  0.00    +0.218 A 
ATOM     26  C   UNL     1       9.630   5.305   8.896  0.00  0.00    +0.214 A 
ATOM     27  C   UNL     1       9.043   4.328   9.823  0.00  0.00    +0.111 C 
ENDBRANCH  15  23
ENDBRANCH  10  15
TORSDOF 8
ENDMDL
MODEL 2
REMARK VINA RESULT:      -5.8      2.307      3.011
REMARK  Name = 45783903
REMARK  13 active torsions:
REMARK  status: ('A' for Active; 'I' for Inactive)
REMARK    1  A    between atoms: O_2  and  C_25
REMARK    2  A    between atoms: O_2  and  C_28
REMARK    3  A    between atoms: N_3  and  C_12
REMARK    4  A    between atoms: N_4  and  C_24
REMARK    5  A    between atoms: C_7  and  C_11
REMARK    6  A    between atoms: C_8  and  C_12
REMARK    7  A    between atoms: C_10  and  C_15
REMARK    8  A    between atoms: C_11  and  C_18
REMARK    9  A    between atoms: C_11  and  C_19
REMARK   10  A    between atoms: C_14  and  C_22
REMARK   11  A    between atoms: C_15  and  C_23
REMARK   12  A    between atoms: C_24  and  C_25
REMARK   13  A    between atoms: C_26  and  C_27
REMARK                            x       y       z     vdW  Elec       q    Type
REMARK                         _______ _______ _______ _____ _____    ______ ____
ROOT
ATOM      7  C   UNL     1      10.019   6.231   3.451  0.00  0.00    +0.000 C 
ATOM      8  C   UNL     1      11.261   5.813   2.631  0.00  0.00    +0.029 C 
ATOM      9  C   UNL     1      10.325   6.182   4.954  0.00  0.00    +0.012 C 
ATOM     10  C   UNL     1      11.528   7.058   5.363  0.00  0.00    +0.024 C 
ATOM     13  C   UNL     1      12.532   6.439   3.145  0.00  0.00    -0.023 C 
ATOM     14  C   UNL     1      12.668   7.010   4.357  0.00  0.00    -0.073 C 
ATOM     22  C   UNL     1      13.958   7.685   4.737  0.00  0.00    +0.039 C 
ENDROOT
BRANCH   7  11
ATOM     11  C   UNL     1       9.513   7.618   3.033  0.00  0.00    -0.013 C 
ATOM     18  C   UNL     1       8.187   7.931   3.720  0.00  0.00    +0.007 C 
ATOM     19  C   UNL     1       9.368   7.697   1.516  0.00  0.00    +0.007 C 
ENDBRANCH   7  11
BRANCH   8  12
ATOM     12  C   UNL     1      11.429   4.290   2.593  0.00  0.00    +0.092 C 
BRANCH  12   3
ATOM      3  N   UNL     1      11.595   3.823   1.219  0.00  0.00    -0.299 NA
ATOM      4  N   UNL     1      12.477   4.134  -1.516  0.00  0.00    -0.298 NA
ATOM     16  C   UNL     1      13.018   3.748   0.863  0.00  0.00    +0.100 C 
ATOM     17  C   UNL     1      10.878   4.696   0.281  0.00  0.00    +0.100 C 
ATOM     20  C   UNL     1      13.194   3.261  -0.579  0.00  0.00    +0.100 C 
ATOM     21  C   UNL     1      11.055   4.209  -1.161  0.00  0.00    +0.100 C 
BRANCH   4  24
ATOM     24  C   UNL     1      12.644   3.669  -2.892  0.00  0.00    +0.112 C 
BRANCH  24  25
ATOM     25  C   UNL     1      11.461   2.815  -3.319  0.00  0.00    +0.174 C 
BRANCH  25   2
ATOM      2  O   UNL     1      11.013   3.259  -4.592  0.00  0.00    -0.382 OA
ATOM     28  C   UNL     1       9.725   2.743  -4.900  0.00  0.00    +0.194 C 
ENDBRANCH  25   2
ENDBRANCH  24  25
ENDBRANCH   4  24
ENDBRANCH  12   3
ENDBRANCH   8  12
BRANCH  10  15
ATOM     15  C   UNL     1      11.965   6.662   6.778  0.00  0.00    +0.105 C 
BRANCH  15  23
ATOM      1  O   UNL     1      10.731   5.295   8.381  0.00  0.00    -0.425 OA
ATOM      5  N   UNL     1       9.761   7.255   7.909  0.00  0.00    -0.112 NA
ATOM      6  N   UNL     1       8.960   6.590   8.819  0.00  0.00    -0.113 NA
ATOM     23  C   UNL     1      10.782   6.462   7.681  0.00  0.00    +0.218 A 
ATOM     26  C   UNL     1       9.565   5.452   9.066  0.00  0.00    +0.214 A 
ATOM     27  C   UNL     1       9.167   4.354   9.956  0.00  0.00    +0.111 C 
ENDBRANCH  15  23
ENDBRANCH  10  15
TORSDOF 8
ENDMDL
MODEL 3
REMARK VINA RESULT:      -5.8     21.830     26.338
REMARK  Name = 45783903
REMARK  13 active torsions:
REMARK  status: ('A' for Active; 'I' for Inactive)
REMARK    1  A    between atoms: O_2  and  C_25
REMARK    2  A    between atoms: O_2  and  C_28
REMARK    3  A    between atoms: N_3  and  C_12
REMARK    4  A    between atoms: N_4  and  C_24
REMARK    5  A    between atoms: C_7  and  C_11
REMARK    6  A    between atoms: C_8  and  C_12
REMARK    7  A    between atoms: C_10  and  C_15
REMARK    8  A    between atoms: C_11  and  C_18
REMARK    9  A    between atoms: C_11  and  C_19
REMARK   10  A    between atoms: C_14  and  C_22
REMARK   11  A    between atoms: C_15  and  C_23
REMARK   12  A    between atoms: C_24  and  C_25
REMARK   13  A    between atoms: C_26  and  C_27
REMARK                            x       y       z     vdW  Elec       q    Type
REMARK                         _______ _______ _______ _____ _____    ______ ____
ROOT
ATOM      7  C   UNL     1      -3.861 -11.822  12.454  0.00  0.00    +0.000 C 
ATOM      8  C   UNL     1      -2.894 -11.234  13.507  0.00  0.00    +0.029 C 
ATOM      9  C   UNL     1      -4.260 -10.749  11.430  0.00  0.00    +0.012 C 
ATOM     10  C   UNL     1      -3.052 -10.106  10.717  0.00  0.00    +0.024 C 
ATOM     13  C   UNL     1      -1.824 -10.369  12.892  0.00  0.00    -0.023 C 
ATOM     14  C   UNL     1      -1.871  -9.865  11.644  0.00  0.00    -0.073 C 
ATOM     22  C   UNL     1      -0.707  -9.084  11.098  0.00  0.00    +0.039 C 
ENDROOT
BRANCH   7  11
ATOM     11  C   UNL     1      -3.255 -13.050  11.761  0.00  0.00    -0.013 C 
ATOM     18  C   UNL     1      -4.284 -13.706  10.844  0.00  0.00    +0.007 C 
ATOM     19  C   UNL     1      -2.740 -14.045  12.797  0.00  0.00    +0.007 C 
ENDBRANCH   7  11
BRANCH   8  12
ATOM     12  C   UNL     1      -3.642 -10.429  14.575  0.00  0.00    +0.092 C 
BRANCH  12   3
ATOM      3  N   UNL     1      -4.603 -11.275  15.280  0.00  0.00    -0.299 NA
ATOM      4  N   UNL     1      -6.337 -11.893  17.508  0.00  0.00    -0.298 NA
ATOM     16  C   UNL     1      -5.874 -10.567  15.476  0.00  0.00    +0.100 C 
ATOM     17  C   UNL     1      -4.058 -11.718  16.570  0.00  0.00    +0.100 C 
ATOM     20  C   UNL     1      -6.881 -11.451  16.219  0.00  0.00    +0.100 C 
ATOM     21  C   UNL     1      -5.066 -12.602  17.312  0.00  0.00    +0.100 C 
BRANCH   4  24
ATOM     24  C   UNL     1      -7.298 -12.738  18.216  0.00  0.00    +0.112 C 
BRANCH  24  25
ATOM     25  C   UNL     1      -7.334 -12.388  19.695  0.00  0.00    +0.174 C 
BRANCH  25   2
ATOM      2  O   UNL     1      -8.022 -11.154  19.856  0.00  0.00    -0.382 OA
ATOM     28  C   UNL     1      -9.415 -11.300  19.616  0.00  0.00    +0.194 C 
ENDBRANCH  25   2
ENDBRANCH  24  25
ENDBRANCH   4  24
ENDBRANCH  12   3
ENDBRANCH   8  12
BRANCH  10  15
ATOM     15  C   UNL     1      -3.524  -8.830  10.008  0.00  0.00    +0.105 C 
BRANCH  15  23
ATOM      1  O   UNL     1      -4.478  -9.902   8.035  0.00  0.00    -0.425 OA
ATOM      5  N   UNL     1      -5.937  -8.678   9.209  0.00  0.00    -0.112 NA
ATOM      6  N   UNL     1      -6.607  -9.220   8.127  0.00  0.00    -0.113 NA
ATOM     23  C   UNL     1      -4.698  -9.102   9.114  0.00  0.00    +0.218 A 
ATOM     26  C   UNL     1      -5.717  -9.927   7.471  0.00  0.00    +0.214 A 
ATOM     27  C   UNL     1      -5.871 -10.719   6.244  0.00  0.00    +0.111 C 
ENDBRANCH  15  23
ENDBRANCH  10  15
TORSDOF 8
ENDMDL
MODEL 4
REMARK VINA RESULT:      -5.7     25.389     29.050
REMARK  Name = 45783903
REMARK  13 active torsions:
REMARK  status: ('A' for Active; 'I' for Inactive)
REMARK    1  A    between atoms: O_2  and  C_25
REMARK    2  A    between atoms: O_2  and  C_28
REMARK    3  A    between atoms: N_3  and  C_12
REMARK    4  A    between atoms: N_4  and  C_24
REMARK    5  A    between atoms: C_7  and  C_11
REMARK    6  A    between atoms: C_8  and  C_12
REMARK    7  A    between atoms: C_10  and  C_15
REMARK    8  A    between atoms: C_11  and  C_18
REMARK    9  A    between atoms: C_11  and  C_19
REMARK   10  A    between atoms: C_14  and  C_22
REMARK   11  A    between atoms: C_15  and  C_23
REMARK   12  A    between atoms: C_24  and  C_25
REMARK   13  A    between atoms: C_26  and  C_27
REMARK                            x       y       z     vdW  Elec       q    Type
REMARK                         _______ _______ _______ _____ _____    ______ ____
ROOT
ATOM      7  C   UNL     1     -13.570  10.328  21.706  0.00  0.00    +0.000 C 
ATOM      8  C   UNL     1     -12.257  10.264  20.892  0.00  0.00    +0.029 C 
ATOM      9  C   UNL     1     -14.523   9.202  21.280  0.00  0.00    +0.012 C 
ATOM     10  C   UNL     1     -13.904   7.795  21.413  0.00  0.00    +0.024 C 
ATOM     13  C   UNL     1     -11.726   8.860  20.759  0.00  0.00    -0.023 C 
ATOM     14  C   UNL     1     -12.442   7.745  20.998  0.00  0.00    -0.073 C 
ATOM     22  C   UNL     1     -11.788   6.393  20.919  0.00  0.00    +0.039 C 
ENDROOT
BRANCH   7  11
ATOM     11  C   UNL     1     -13.296  10.281  23.216  0.00  0.00    -0.013 C 
ATOM     18  C   UNL     1     -14.589  10.491  23.999  0.00  0.00    +0.007 C 
ATOM     19  C   UNL     1     -12.254  11.327  23.600  0.00  0.00    +0.007 C 
ENDBRANCH   7  11
BRANCH   8  12
ATOM     12  C   UNL     1     -12.427  10.874  19.497  0.00  0.00    +0.092 C 
BRANCH  12   3
ATOM      3  N   UNL     1     -11.880   9.984  18.475  0.00  0.00    -0.299 NA
ATOM      4  N   UNL     1     -11.301   9.257  15.737  0.00  0.00    -0.298 NA
ATOM     16  C   UNL     1     -10.815  10.652  17.717  0.00  0.00    +0.100 C 
ATOM     17  C   UNL     1     -12.939   9.518  17.569  0.00  0.00    +0.100 C 
ATOM     20  C   UNL     1     -10.243   9.721  16.643  0.00  0.00    +0.100 C 
ATOM     21  C   UNL     1     -12.366   8.588  16.494  0.00  0.00    +0.100 C 
BRANCH   4  24
ATOM     24  C   UNL     1     -10.755   8.368  14.713  0.00  0.00    +0.112 C 
BRANCH  24  25
ATOM     25  C   UNL     1     -11.618   8.397  13.461  0.00  0.00    +0.174 C 
BRANCH  25   2
ATOM      2  O   UNL     1     -12.237   7.128  13.304  0.00  0.00    -0.382 OA
ATOM     28  C   UNL     1     -13.653   7.243  13.241  0.00  0.00    +0.194 C 
ENDBRANCH  25   2
ENDBRANCH  24  25
ENDBRANCH   4  24
ENDBRANCH  12   3
ENDBRANCH   8  12
BRANCH  10  15
ATOM     15  C   UNL     1     -14.778   6.800  20.638  0.00  0.00    +0.105 C 
BRANCH  15  23
ATOM      1  O   UNL     1     -16.534   5.920  22.086  0.00  0.00    -0.425 OA
ATOM      5  N   UNL     1     -14.754   4.579  21.884  0.00  0.00    -0.112 NA
ATOM      6  N   UNL     1     -15.661   3.962  22.727  0.00  0.00    -0.113 NA
ATOM     23  C   UNL     1     -15.305   5.718  21.535  0.00  0.00    +0.218 A 
ATOM     26  C   UNL     1     -16.683   4.779  22.815  0.00  0.00    +0.214 A 
ATOM     27  C   UNL     1     -17.933   4.637  23.574  0.00  0.00    +0.111 C 
ENDBRANCH  15  23
ENDBRANCH  10  15
TORSDOF 8
ENDMDL
MODEL 5
REMARK VINA RESULT:      -5.7     24.887     28.623
REMARK  Name = 45783903
REMARK  13 active torsions:
REMARK  status: ('A' for Active; 'I' for Inactive)
REMARK    1  A    between atoms: O_2  and  C_25
REMARK    2  A    between atoms: O_2  and  C_28
REMARK    3  A    between atoms: N_3  and  C_12
REMARK    4  A    between atoms: N_4  and  C_24
REMARK    5  A    between atoms: C_7  and  C_11
REMARK    6  A    between atoms: C_8  and  C_12
REMARK    7  A    between atoms: C_10  and  C_15
REMARK    8  A    between atoms: C_11  and  C_18
REMARK    9  A    between atoms: C_11  and  C_19
REMARK   10  A    between atoms: C_14  and  C_22
REMARK   11  A    between atoms: C_15  and  C_23
REMARK   12  A    between atoms: C_24  and  C_25
REMARK   13  A    between atoms: C_26  and  C_27
REMARK                            x       y       z     vdW  Elec       q    Type
REMARK                         _______ _______ _______ _____ _____    ______ ____
ROOT
ATOM      7  C   UNL     1     -13.552  10.533  21.581  0.00  0.00    +0.000 C 
ATOM      8  C   UNL     1     -12.276  10.587  20.709  0.00  0.00    +0.029 C 
ATOM      9  C   UNL     1     -14.486   9.413  21.100  0.00  0.00    +0.012 C 
ATOM     10  C   UNL     1     -13.816   8.023  21.083  0.00  0.00    +0.024 C 
ATOM     13  C   UNL     1     -11.705   9.219  20.432  0.00  0.00    -0.023 C 
ATOM     14  C   UNL     1     -12.373   8.062  20.604  0.00  0.00    -0.073 C 
ATOM     22  C   UNL     1     -11.679   6.747  20.380  0.00  0.00    +0.039 C 
ENDROOT
BRANCH   7  11
ATOM     11  C   UNL     1     -13.208  10.367  23.068  0.00  0.00    -0.013 C 
ATOM     18  C   UNL     1     -14.455  10.552  23.927  0.00  0.00    +0.007 C 
ATOM     19  C   UNL     1     -12.118  11.355  23.475  0.00  0.00    +0.007 C 
ENDBRANCH   7  11
BRANCH   8  12
ATOM     12  C   UNL     1     -12.529  11.307  19.381  0.00  0.00    +0.092 C 
BRANCH  12   3
ATOM      3  N   UNL     1     -11.269  11.741  18.781  0.00  0.00    -0.299 NA
ATOM      4  N   UNL     1      -9.691  12.851  16.628  0.00  0.00    -0.298 NA
ATOM     16  C   UNL     1     -11.308  13.175  18.467  0.00  0.00    +0.100 C 
ATOM     17  C   UNL     1     -10.970  10.960  17.573  0.00  0.00    +0.100 C 
ATOM     20  C   UNL     1      -9.989  13.631  17.835  0.00  0.00    +0.100 C 
ATOM     21  C   UNL     1      -9.651  11.417  16.941  0.00  0.00    +0.100 C 
BRANCH   4  24
ATOM     24  C   UNL     1      -8.432  13.286  16.026  0.00  0.00    +0.112 C 
BRANCH  24  25
ATOM     25  C   UNL     1      -7.624  14.118  17.009  0.00  0.00    +0.174 C 
BRANCH  25   2
ATOM      2  O   UNL     1      -6.241  13.895  16.767  0.00  0.00    -0.382 OA
ATOM     28  C   UNL     1      -6.006  13.484  15.427  0.00  0.00    +0.194 C 
ENDBRANCH  25   2
ENDBRANCH  24  25
ENDBRANCH   4  24
ENDBRANCH  12   3
ENDBRANCH   8  12
BRANCH  10  15
ATOM     15  C   UNL     1     -14.691   7.067  20.263  0.00  0.00    +0.105 C 
BRANCH  15  23
ATOM      1  O   UNL     1     -14.694   5.808  22.353  0.00  0.00    -0.425 OA
ATOM      5  N   UNL     1     -16.178   5.083  20.843  0.00  0.00    -0.112 NA
ATOM      6  N   UNL     1     -16.286   4.284  21.968  0.00  0.00    -0.113 NA
ATOM     23  C   UNL     1     -15.237   5.957  21.113  0.00  0.00    +0.218 A 
ATOM     26  C   UNL     1     -15.403   4.744  22.822  0.00  0.00    +0.214 A 
ATOM     27  C   UNL     1     -15.082   4.280  24.178  0.00  0.00    +0.111 C 
ENDBRANCH  15  23
ENDBRANCH  10  15
TORSDOF 8
ENDMDL
MODEL 6
REMARK VINA RESULT:      -5.7     22.604     27.243
REMARK  Name = 45783903
REMARK  13 active torsions:
REMARK  status: ('A' for Active; 'I' for Inactive)
REMARK    1  A    between atoms: O_2  and  C_25
REMARK    2  A    between atoms: O_2  and  C_28
REMARK    3  A    between atoms: N_3  and  C_12
REMARK    4  A    between atoms: N_4  and  C_24
REMARK    5  A    between atoms: C_7  and  C_11
REMARK    6  A    between atoms: C_8  and  C_12
REMARK    7  A    between atoms: C_10  and  C_15
REMARK    8  A    between atoms: C_11  and  C_18
REMARK    9  A    between atoms: C_11  and  C_19
REMARK   10  A    between atoms: C_14  and  C_22
REMARK   11  A    between atoms: C_15  and  C_23
REMARK   12  A    between atoms: C_24  and  C_25
REMARK   13  A    between atoms: C_26  and  C_27
REMARK                            x       y       z     vdW  Elec       q    Type
REMARK                         _______ _______ _______ _____ _____    ______ ____
ROOT
ATOM      7  C   UNL     1      -4.957 -12.542  15.547  0.00  0.00    +0.000 C 
ATOM      8  C   UNL     1      -4.939 -11.010  15.760  0.00  0.00    +0.029 C 
ATOM      9  C   UNL     1      -3.914 -12.951  14.497  0.00  0.00    +0.012 C 
ATOM     10  C   UNL     1      -2.481 -12.498  14.849  0.00  0.00    +0.024 C 
ATOM     13  C   UNL     1      -3.541 -10.455  15.855  0.00  0.00    -0.023 C 
ATOM     14  C   UNL     1      -2.430 -11.109  15.464  0.00  0.00    -0.073 C 
ATOM     22  C   UNL     1      -1.074 -10.496  15.684  0.00  0.00    +0.039 C 
ENDROOT
BRANCH   7  11
ATOM     11  C   UNL     1      -4.740 -13.294  16.866  0.00  0.00    -0.013 C 
ATOM     18  C   UNL     1      -4.946 -14.793  16.666  0.00  0.00    +0.007 C 
ATOM     19  C   UNL     1      -5.676 -12.758  17.945  0.00  0.00    +0.007 C 
ENDBRANCH   7  11
BRANCH   8  12
ATOM     12  C   UNL     1      -5.700 -10.276  14.652  0.00  0.00    +0.092 C 
BRANCH  12   3
ATOM      3  N   UNL     1      -6.962  -9.741  15.159  0.00  0.00    -0.299 NA
ATOM      4  N   UNL     1      -9.338  -9.873  16.799  0.00  0.00    -0.298 NA
ATOM     16  C   UNL     1      -6.897  -9.544  16.612  0.00  0.00    +0.100 C 
ATOM     17  C   UNL     1      -8.080 -10.628  14.811  0.00  0.00    +0.100 C 
ATOM     20  C   UNL     1      -8.221  -8.986  17.146  0.00  0.00    +0.100 C 
ATOM     21  C   UNL     1      -9.404 -10.070  15.346  0.00  0.00    +0.100 C 
BRANCH   4  24
ATOM     24  C   UNL     1     -10.601  -9.341  17.308  0.00  0.00    +0.112 C 
BRANCH  24  25
ATOM     25  C   UNL     1     -10.574  -7.821  17.331  0.00  0.00    +0.174 C 
BRANCH  25   2
ATOM      2  O   UNL     1     -11.491  -7.333  16.360  0.00  0.00    -0.382 OA
ATOM     28  C   UNL     1     -11.068  -6.086  15.824  0.00  0.00    +0.194 C 
ENDBRANCH  25   2
ENDBRANCH  24  25
ENDBRANCH   4  24
ENDBRANCH  12   3
ENDBRANCH   8  12
BRANCH  10  15
ATOM     15  C   UNL     1      -1.605 -12.630  13.597  0.00  0.00    +0.105 C 
BRANCH  15  23
ATOM      1  O   UNL     1      -2.171 -10.777  12.113  0.00  0.00    -0.425 OA
ATOM      5  N   UNL     1      -3.052 -12.742  11.504  0.00  0.00    -0.112 NA
ATOM      6  N   UNL     1      -3.453 -11.789  10.585  0.00  0.00    -0.113 NA
ATOM     23  C   UNL     1      -2.307 -12.106  12.378  0.00  0.00    +0.218 A 
ATOM     26  C   UNL     1      -2.915 -10.660  10.979  0.00  0.00    +0.214 A 
ATOM     27  C   UNL     1      -3.005  -9.321  10.382  0.00  0.00    +0.111 C 
ENDBRANCH  15  23
ENDBRANCH  10  15
TORSDOF 8
ENDMDL
MODEL 7
REMARK VINA RESULT:      -5.6     35.985     38.214
REMARK  Name = 45783903
REMARK  13 active torsions:
REMARK  status: ('A' for Active; 'I' for Inactive)
REMARK    1  A    between atoms: O_2  and  C_25
REMARK    2  A    between atoms: O_2  and  C_28
REMARK    3  A    between atoms: N_3  and  C_12
REMARK    4  A    between atoms: N_4  and  C_24
REMARK    5  A    between atoms: C_7  and  C_11
REMARK    6  A    between atoms: C_8  and  C_12
REMARK    7  A    between atoms: C_10  and  C_15
REMARK    8  A    between atoms: C_11  and  C_18
REMARK    9  A    between atoms: C_11  and  C_19
REMARK   10  A    between atoms: C_14  and  C_22
REMARK   11  A    between atoms: C_15  and  C_23
REMARK   12  A    between atoms: C_24  and  C_25
REMARK   13  A    between atoms: C_26  and  C_27
REMARK                            x       y       z     vdW  Elec       q    Type
REMARK                         _______ _______ _______ _____ _____    ______ ____
ROOT
ATOM      7  C   UNL     1     -16.446   5.873  32.115  0.00  0.00    +0.000 C 
ATOM      8  C   UNL     1     -15.143   6.362  32.788  0.00  0.00    +0.029 C 
ATOM      9  C   UNL     1     -16.127   5.027  30.874  0.00  0.00    +0.012 C 
ATOM     10  C   UNL     1     -15.220   3.816  31.176  0.00  0.00    +0.024 C 
ATOM     13  C   UNL     1     -14.099   5.279  32.883  0.00  0.00    -0.023 C 
ATOM     14  C   UNL     1     -14.122   4.130  32.180  0.00  0.00    -0.073 C 
ATOM     22  C   UNL     1     -13.074   3.077  32.416  0.00  0.00    +0.039 C 
ENDROOT
BRANCH   7  11
ATOM     11  C   UNL     1     -17.330   5.098  33.102  0.00  0.00    -0.013 C 
ATOM     18  C   UNL     1     -18.639   4.686  32.436  0.00  0.00    +0.007 C 
ATOM     19  C   UNL     1     -17.597   5.936  34.349  0.00  0.00    +0.007 C 
ENDBRANCH   7  11
BRANCH   8  12
ATOM     12  C   UNL     1     -14.549   7.572  32.060  0.00  0.00    +0.092 C 
BRANCH  12   3
ATOM      3  N   UNL     1     -13.240   7.915  32.610  0.00  0.00    -0.299 NA
ATOM      4  N   UNL     1     -11.271   9.790  33.593  0.00  0.00    -0.298 NA
ATOM     16  C   UNL     1     -13.377   8.544  33.930  0.00  0.00    +0.100 C 
ATOM     17  C   UNL     1     -12.505   8.798  31.696  0.00  0.00    +0.100 C 
ATOM     20  C   UNL     1     -12.005   8.906  34.507  0.00  0.00    +0.100 C 
ATOM     21  C   UNL     1     -11.133   9.161  32.273  0.00  0.00    +0.100 C 
BRANCH   4  24
ATOM     24  C   UNL     1      -9.961  10.135  34.143  0.00  0.00    +0.112 C 
BRANCH  24  25
ATOM     25  C   UNL     1      -9.970  10.028  35.659  0.00  0.00    +0.174 C 
BRANCH  25   2
ATOM      2  O   UNL     1     -10.020  11.337  36.209  0.00  0.00    -0.382 OA
ATOM     28  C   UNL     1      -9.530  11.361  37.544  0.00  0.00    +0.194 C 
ENDBRANCH  25   2
ENDBRANCH  24  25
ENDBRANCH   4  24
ENDBRANCH  12   3
ENDBRANCH   8  12
BRANCH  10  15
ATOM     15  C   UNL     1     -14.677   3.268  29.851  0.00  0.00    +0.105 C 
BRANCH  15  23
ATOM      1  O   UNL     1     -13.646   1.070  29.595  0.00  0.00    -0.425 OA
ATOM      5  N   UNL     1     -15.864   1.015  29.884  0.00  0.00    -0.112 NA
ATOM      6  N   UNL     1     -15.417  -0.287  29.752  0.00  0.00    -0.113 NA
ATOM     23  C   UNL     1     -14.797   1.773  29.786  0.00  0.00    +0.218 A 
ATOM     26  C   UNL     1     -14.119  -0.207  29.586  0.00  0.00    +0.214 A 
ATOM     27  C   UNL     1     -13.130  -1.276  29.396  0.00  0.00    +0.111 C 
ENDBRANCH  15  23
ENDBRANCH  10  15
TORSDOF 8
ENDMDL
MODEL 8
REMARK VINA RESULT:      -5.6     34.066     37.997
REMARK  Name = 45783903
REMARK  13 active torsions:
REMARK  status: ('A' for Active; 'I' for Inactive)
REMARK    1  A    between atoms: O_2  and  C_25
REMARK    2  A    between atoms: O_2  and  C_28
REMARK    3  A    between atoms: N_3  and  C_12
REMARK    4  A    between atoms: N_4  and  C_24
REMARK    5  A    between atoms: C_7  and  C_11
REMARK    6  A    between atoms: C_8  and  C_12
REMARK    7  A    between atoms: C_10  and  C_15
REMARK    8  A    between atoms: C_11  and  C_18
REMARK    9  A    between atoms: C_11  and  C_19
REMARK   10  A    between atoms: C_14  and  C_22
REMARK   11  A    between atoms: C_15  and  C_23
REMARK   12  A    between atoms: C_24  and  C_25
REMARK   13  A    between atoms: C_26  and  C_27
REMARK                            x       y       z     vdW  Elec       q    Type
REMARK                         _______ _______ _______ _____ _____    ______ ____
ROOT
ATOM      7  C   UNL     1     -15.815   6.005  32.599  0.00  0.00    +0.000 C 
ATOM      8  C   UNL     1     -15.224   5.784  34.010  0.00  0.00    +0.029 C 
ATOM      9  C   UNL     1     -15.019   5.213  31.551  0.00  0.00    +0.012 C 
ATOM     10  C   UNL     1     -14.951   3.700  31.849  0.00  0.00    +0.024 C 
ATOM     13  C   UNL     1     -14.887   4.339  34.278  0.00  0.00    -0.023 C 
ATOM     14  C   UNL     1     -14.772   3.391  33.327  0.00  0.00    -0.073 C 
ATOM     22  C   UNL     1     -14.518   1.959  33.713  0.00  0.00    +0.039 C 
ENDROOT
BRANCH   7  11
ATOM     11  C   UNL     1     -17.306   5.641  32.553  0.00  0.00    -0.013 C 
ATOM     18  C   UNL     1     -17.929   6.112  31.243  0.00  0.00    +0.007 C 
ATOM     19  C   UNL     1     -18.037   6.243  33.748  0.00  0.00    +0.007 C 
ENDBRANCH   7  11
BRANCH   8  12
ATOM     12  C   UNL     1     -13.977   6.643  34.242  0.00  0.00    +0.092 C 
BRANCH  12   3
ATOM      3  N   UNL     1     -13.955   7.779  33.323  0.00  0.00    -0.299 NA
ATOM      4  N   UNL     1     -12.909  10.300  32.371  0.00  0.00    -0.298 NA
ATOM     16  C   UNL     1     -12.669   7.854  32.618  0.00  0.00    +0.100 C 
ATOM     17  C   UNL     1     -14.221   9.034  34.038  0.00  0.00    +0.100 C 
ATOM     20  C   UNL     1     -12.643   9.046  31.656  0.00  0.00    +0.100 C 
ATOM     21  C   UNL     1     -14.195  10.226  33.075  0.00  0.00    +0.100 C 
BRANCH   4  24
ATOM     24  C   UNL     1     -12.885  11.438  31.453  0.00  0.00    +0.112 C 
BRANCH  24  25
ATOM     25  C   UNL     1     -12.980  10.966  30.010  0.00  0.00    +0.174 C 
BRANCH  25   2
ATOM      2  O   UNL     1     -11.914  11.546  29.270  0.00  0.00    -0.382 OA
ATOM     28  C   UNL     1     -11.309  10.599  28.399  0.00  0.00    +0.194 C 
ENDBRANCH  25   2
ENDBRANCH  24  25
ENDBRANCH   4  24
ENDBRANCH  12   3
ENDBRANCH   8  12
BRANCH  10  15
ATOM     15  C   UNL     1     -13.858   3.076  30.973  0.00  0.00    +0.105 C 
BRANCH  15  23
ATOM      1  O   UNL     1     -13.312   0.865  30.097  0.00  0.00    -0.425 OA
ATOM      5  N   UNL     1     -15.504   1.308  30.165  0.00  0.00    -0.112 NA
ATOM      6  N   UNL     1     -15.341   0.035  29.651  0.00  0.00    -0.113 NA
ATOM     23  C   UNL     1     -14.294   1.754  30.411  0.00  0.00    +0.218 A 
ATOM     26  C   UNL     1     -14.048  -0.182  29.630  0.00  0.00    +0.214 A 
ATOM     27  C   UNL     1     -13.303  -1.366  29.182  0.00  0.00    +0.111 C 
ENDBRANCH  15  23
ENDBRANCH  10  15
TORSDOF 8
ENDMDL
MODEL 9
REMARK VINA RESULT:      -5.5     23.373     28.188
REMARK  Name = 45783903
REMARK  13 active torsions:
REMARK  status: ('A' for Active; 'I' for Inactive)
REMARK    1  A    between atoms: O_2  and  C_25
REMARK    2  A    between atoms: O_2  and  C_28
REMARK    3  A    between atoms: N_3  and  C_12
REMARK    4  A    between atoms: N_4  and  C_24
REMARK    5  A    between atoms: C_7  and  C_11
REMARK    6  A    between atoms: C_8  and  C_12
REMARK    7  A    between atoms: C_10  and  C_15
REMARK    8  A    between atoms: C_11  and  C_18
REMARK    9  A    between atoms: C_11  and  C_19
REMARK   10  A    between atoms: C_14  and  C_22
REMARK   11  A    between atoms: C_15  and  C_23
REMARK   12  A    between atoms: C_24  and  C_25
REMARK   13  A    between atoms: C_26  and  C_27
REMARK                            x       y       z     vdW  Elec       q    Type
REMARK                         _______ _______ _______ _____ _____    ______ ____
ROOT
ATOM      7  C   UNL     1      -4.975 -12.339  15.582  0.00  0.00    +0.000 C 
ATOM      8  C   UNL     1      -4.549 -11.566  16.852  0.00  0.00    +0.029 C 
ATOM      9  C   UNL     1      -4.503 -11.602  14.320  0.00  0.00    +0.012 C 
ATOM     10  C   UNL     1      -2.979 -11.360  14.288  0.00  0.00    +0.024 C 
ATOM     13  C   UNL     1      -3.128 -11.068  16.778  0.00  0.00    -0.023 C 
ATOM     14  C   UNL     1      -2.407 -10.979  15.644  0.00  0.00    -0.073 C 
ATOM     22  C   UNL     1      -0.966 -10.550  15.695  0.00  0.00    +0.039 C 
ENDROOT
BRANCH   7  11
ATOM     11  C   UNL     1      -4.459 -13.784  15.606  0.00  0.00    -0.013 C 
ATOM     18  C   UNL     1      -4.902 -14.528  14.350  0.00  0.00    +0.007 C 
ATOM     19  C   UNL     1      -4.945 -14.502  16.861  0.00  0.00    +0.007 C 
ENDBRANCH   7  11
BRANCH   8  12
ATOM     12  C   UNL     1      -5.483 -10.386  17.137  0.00  0.00    +0.092 C 
BRANCH  12   3
ATOM      3  N   UNL     1      -6.769 -10.857  17.646  0.00  0.00    -0.299 NA
ATOM      4  N   UNL     1      -8.915 -10.887  19.583  0.00  0.00    -0.298 NA
ATOM     16  C   UNL     1      -7.730  -9.750  17.738  0.00  0.00    +0.100 C 
ATOM     17  C   UNL     1      -6.606 -11.503  18.955  0.00  0.00    +0.100 C 
ATOM     20  C   UNL     1      -9.078 -10.242  18.275  0.00  0.00    +0.100 C 
ATOM     21  C   UNL     1      -7.955 -11.994  19.493  0.00  0.00    +0.100 C 
BRANCH   4  24
ATOM     24  C   UNL     1     -10.201 -11.357  20.096  0.00  0.00    +0.112 C 
BRANCH  24  25
ATOM     25  C   UNL     1     -11.164 -10.194  20.279  0.00  0.00    +0.174 C 
BRANCH  25   2
ATOM      2  O   UNL     1     -12.480 -10.641  19.983  0.00  0.00    -0.382 OA
ATOM     28  C   UNL     1     -13.011  -9.980  18.842  0.00  0.00    +0.194 C 
ENDBRANCH  25   2
ENDBRANCH  24  25
ENDBRANCH   4  24
ENDBRANCH  12   3
ENDBRANCH   8  12
BRANCH  10  15
ATOM     15  C   UNL     1      -2.670 -10.325  13.199  0.00  0.00    +0.105 C 
BRANCH  15  23
ATOM      1  O   UNL     1      -3.694  -9.866  11.031  0.00  0.00    -0.425 OA
ATOM      5  N   UNL     1      -3.071 -11.996  11.318  0.00  0.00    -0.112 NA
ATOM      6  N   UNL     1      -3.632 -11.880  10.059  0.00  0.00    -0.113 NA
ATOM     23  C   UNL     1      -3.128 -10.796  11.849  0.00  0.00    +0.218 A 
ATOM     26  C   UNL     1      -3.980 -10.621   9.935  0.00  0.00    +0.214 A 
ATOM     27  C   UNL     1      -4.621  -9.934   8.806  0.00  0.00    +0.111 C 
ENDBRANCH  15  23
ENDBRANCH  10  15
TORSDOF 8
ENDMDL
MODEL 10
REMARK VINA RESULT:      -5.5     36.413     38.178
REMARK  Name = 45783903
REMARK  13 active torsions:
REMARK  status: ('A' for Active; 'I' for Inactive)
REMARK    1  A    between atoms: O_2  and  C_25
REMARK    2  A    between atoms: O_2  and  C_28
REMARK    3  A    between atoms: N_3  and  C_12
REMARK    4  A    between atoms: N_4  and  C_24
REMARK    5  A    between atoms: C_7  and  C_11
REMARK    6  A    between atoms: C_8  and  C_12
REMARK    7  A    between atoms: C_10  and  C_15
REMARK    8  A    between atoms: C_11  and  C_18
REMARK    9  A    between atoms: C_11  and  C_19
REMARK   10  A    between atoms: C_14  and  C_22
REMARK   11  A    between atoms: C_15  and  C_23
REMARK   12  A    between atoms: C_24  and  C_25
REMARK   13  A    between atoms: C_26  and  C_27
REMARK                            x       y       z     vdW  Elec       q    Type
REMARK                         _______ _______ _______ _____ _____    ______ ____
ROOT
ATOM      7  C   UNL     1     -15.207   8.275  32.867  0.00  0.00    +0.000 C 
ATOM      8  C   UNL     1     -14.237   7.128  32.502  0.00  0.00    +0.029 C 
ATOM      9  C   UNL     1     -14.584   9.188  33.933  0.00  0.00    +0.012 C 
ATOM     10  C   UNL     1     -13.223   9.780  33.512  0.00  0.00    +0.024 C 
ATOM     13  C   UNL     1     -12.818   7.603  32.327  0.00  0.00    -0.023 C 
ATOM     14  C   UNL     1     -12.348   8.789  32.761  0.00  0.00    -0.073 C 
ATOM     22  C   UNL     1     -10.934   9.201  32.456  0.00  0.00    +0.039 C 
ENDROOT
BRANCH   7  11
ATOM     11  C   UNL     1     -15.620   9.077  31.625  0.00  0.00    -0.013 C 
ATOM     18  C   UNL     1     -16.618  10.168  32.002  0.00  0.00    +0.007 C 
ATOM     19  C   UNL     1     -16.208   8.150  30.565  0.00  0.00    +0.007 C 
ENDBRANCH   7  11
BRANCH   8  12
ATOM     12  C   UNL     1     -14.269   6.006  33.545  0.00  0.00    +0.092 C 
BRANCH  12   3
ATOM      3  N   UNL     1     -14.119   4.701  32.905  0.00  0.00    -0.299 NA
ATOM      4  N   UNL     1     -15.134   2.160  31.972  0.00  0.00    -0.298 NA
ATOM     16  C   UNL     1     -14.960   4.610  31.705  0.00  0.00    +0.100 C 
ATOM     17  C   UNL     1     -14.446   3.620  33.843  0.00  0.00    +0.100 C 
ATOM     20  C   UNL     1     -14.806   3.241  31.034  0.00  0.00    +0.100 C 
ATOM     21  C   UNL     1     -14.293   2.251  33.172  0.00  0.00    +0.100 C 
BRANCH   4  24
ATOM     24  C   UNL     1     -14.986   0.854  31.332  0.00  0.00    +0.112 C 
BRANCH  24  25
ATOM     25  C   UNL     1     -15.699   0.829  29.990  0.00  0.00    +0.174 C 
BRANCH  25   2
ATOM      2  O   UNL     1     -14.992  -0.038  29.113  0.00  0.00    -0.382 OA
ATOM     28  C   UNL     1     -13.778  -0.492  29.697  0.00  0.00    +0.194 C 
ENDBRANCH  25   2
ENDBRANCH  24  25
ENDBRANCH   4  24
ENDBRANCH  12   3
ENDBRANCH   8  12
BRANCH  10  15
ATOM     15  C   UNL     1     -12.535  10.360  34.754  0.00  0.00    +0.105 C 
BRANCH  15  23
ATOM      1  O   UNL     1     -10.702   9.288  35.957  0.00  0.00    -0.425 OA
ATOM      5  N   UNL     1     -12.684   8.284  36.223  0.00  0.00    -0.112 NA
ATOM      6  N   UNL     1     -11.745   7.577  36.951  0.00  0.00    -0.113 NA
ATOM     23  C   UNL     1     -12.031   9.274  35.659  0.00  0.00    +0.218 A 
ATOM     26  C   UNL     1     -10.605   8.198  36.767  0.00  0.00    +0.214 A 
ATOM     27  C   UNL     1      -9.272   7.886  37.300  0.00  0.00    +0.111 C 
ENDBRANCH  15  23
ENDBRANCH  10  15
TORSDOF 8
ENDMDL
