MODEL 1
REMARK VINA RESULT:      -7.3      0.000      0.000
REMARK  Name = 38027975
REMARK  12 active torsions:
REMARK  status: ('A' for Active; 'I' for Inactive)
REMARK    1  A    between atoms: N_5  and  C_16
REMARK    2  A    between atoms: N_6  and  C_26
REMARK    3  A    between atoms: N_7  and  C_32
REMARK    4  A    between atoms: C_8  and  C_12
REMARK    5  A    between atoms: C_9  and  C_16
REMARK    6  A    between atoms: C_11  and  C_15
REMARK    7  A    between atoms: C_12  and  C_17
REMARK    8  A    between atoms: C_12  and  C_18
REMARK    9  A    between atoms: C_13  and  C_19
REMARK   10  A    between atoms: C_15  and  C_20
REMARK   11  A    between atoms: C_25  and  C_27
REMARK   12  A    between atoms: C_33  and  C_34
REMARK                            x       y       z     vdW  Elec       q    Type
REMARK                         _______ _______ _______ _____ _____    ______ ____
ROOT
ATOM      8  C   UNL     1      -7.567 -11.552  16.975  0.00  0.00    +0.000 C 
ATOM      9  C   UNL     1      -7.683 -11.953  18.467  0.00  0.00    +0.032 C 
ATOM     10  C   UNL     1      -6.360 -12.246  16.325  0.00  0.00    +0.012 C 
ATOM     11  C   UNL     1      -5.036 -11.892  17.030  0.00  0.00    +0.023 C 
ATOM     13  C   UNL     1      -5.152 -12.007  18.536  0.00  0.00    -0.073 C 
ATOM     14  C   UNL     1      -6.343 -12.045  19.160  0.00  0.00    -0.022 C 
ATOM     19  C   UNL     1      -3.866 -12.121  19.307  0.00  0.00    +0.039 C 
ENDROOT
BRANCH   8  12
ATOM     12  C   UNL     1      -8.841 -11.889  16.195  0.00  0.00    -0.013 C 
ATOM     17  C   UNL     1      -8.818 -11.221  14.824  0.00  0.00    +0.007 C 
ATOM     18  C   UNL     1      -8.996 -13.400  16.057  0.00  0.00    +0.007 C 
ENDBRANCH   8  12
BRANCH  11  15
ATOM     15  C   UNL     1      -4.547 -10.498  16.621  0.00  0.00    +0.103 C 
BRANCH  15  20
ATOM      1  O   UNL     1      -2.189 -10.706  16.498  0.00  0.00    -0.276 OA
ATOM      4  N   UNL     1      -3.328 -10.603  14.477  0.00  0.00    -0.299 N 
ATOM      6  N   UNL     1      -3.467 -11.366  11.718  0.00  0.00    -0.302 NA
ATOM     20  C   UNL     1      -3.245 -10.611  15.868  0.00  0.00    +0.216 C 
ATOM     21  C   UNL     1      -2.111 -10.713  13.674  0.00  0.00    +0.123 C 
ATOM     22  C   UNL     1      -4.548 -10.359  13.701  0.00  0.00    +0.123 C 
ATOM     23  C   UNL     1      -2.289 -11.710  12.529  0.00  0.00    +0.103 C 
ATOM     24  C   UNL     1      -4.679 -11.358  12.551  0.00  0.00    +0.103 C 
ATOM     26  C   UNL     1      -3.615 -12.303  10.605  0.00  0.00    +0.105 C 
ENDBRANCH  15  20
ENDBRANCH  11  15
BRANCH   9  16
ATOM     16  C   UNL     1      -8.587 -10.981  19.233  0.00  0.00    +0.112 C 
BRANCH  16   5
ATOM      2  O   UNL     1     -11.308 -10.118  18.917  0.00  0.00    -0.270 OA
ATOM      5  N   UNL     1      -9.058  -9.941  18.373  0.00  0.00    -0.311 N 
ATOM     25  C   UNL     1     -10.403  -9.584  18.280  0.00  0.00    +0.244 C 
ATOM     35  H   UNL     1      -8.359  -9.393  17.883  0.00  0.00    +0.149 HD
BRANCH  25  27
ATOM     27  C   UNL     1     -10.734  -8.500  17.319  0.00  0.00    +0.037 A 
ATOM     28  C   UNL     1     -12.068  -8.190  17.051  0.00  0.00    +0.015 A 
ATOM     29  C   UNL     1      -9.712  -7.791  16.687  0.00  0.00    +0.015 A 
ATOM     30  C   UNL     1     -12.379  -7.173  16.151  0.00  0.00    +0.024 A 
ATOM     31  C   UNL     1     -10.024  -6.773  15.786  0.00  0.00    +0.024 A 
ATOM     32  C   UNL     1     -11.358  -6.465  15.517  0.00  0.00    +0.033 A 
BRANCH  32   7
ATOM      3  O   UNL     1     -12.484  -6.597  12.728  0.00  0.00    -0.276 OA
ATOM      7  N   UNL     1     -11.669  -5.446  14.617  0.00  0.00    -0.286 N 
ATOM     33  C   UNL     1     -12.193  -5.565  13.322  0.00  0.00    +0.214 C 
ATOM     34  C   UNL     1     -12.388  -4.218  12.672  0.00  0.00    +0.109 C 
ATOM     36  H   UNL     1     -11.489  -4.501  14.951  0.00  0.00    +0.155 HD
ENDBRANCH  32   7
ENDBRANCH  25  27
ENDBRANCH  16   5
ENDBRANCH   9  16
TORSDOF 7
ENDMDL
MODEL 2
REMARK VINA RESULT:      -7.3      3.503      7.605
REMARK  Name = 38027975
REMARK  12 active torsions:
REMARK  status: ('A' for Active; 'I' for Inactive)
REMARK    1  A    between atoms: N_5  and  C_16
REMARK    2  A    between atoms: N_6  and  C_26
REMARK    3  A    between atoms: N_7  and  C_32
REMARK    4  A    between atoms: C_8  and  C_12
REMARK    5  A    between atoms: C_9  and  C_16
REMARK    6  A    between atoms: C_11  and  C_15
REMARK    7  A    between atoms: C_12  and  C_17
REMARK    8  A    between atoms: C_12  and  C_18
REMARK    9  A    between atoms: C_13  and  C_19
REMARK   10  A    between atoms: C_15  and  C_20
REMARK   11  A    between atoms: C_25  and  C_27
REMARK   12  A    between atoms: C_33  and  C_34
REMARK                            x       y       z     vdW  Elec       q    Type
REMARK                         _______ _______ _______ _____ _____    ______ ____
ROOT
ATOM      8  C   UNL     1      -3.166 -12.087  12.599  0.00  0.00    +0.000 C 
ATOM      9  C   UNL     1      -2.061 -11.015  12.428  0.00  0.00    +0.032 C 
ATOM     10  C   UNL     1      -3.779 -12.447  11.237  0.00  0.00    +0.012 C 
ATOM     11  C   UNL     1      -4.392 -11.223  10.532  0.00  0.00    +0.023 C 
ATOM     13  C   UNL     1      -3.458 -10.031  10.559  0.00  0.00    -0.073 C 
ATOM     14  C   UNL     1      -2.413  -9.961  11.404  0.00  0.00    -0.022 C 
ATOM     19  C   UNL     1      -3.723  -8.939   9.559  0.00  0.00    +0.039 C 
ENDROOT
BRANCH   8  12
ATOM     12  C   UNL     1      -2.632 -13.351  13.278  0.00  0.00    -0.013 C 
ATOM     17  C   UNL     1      -3.561 -13.782  14.408  0.00  0.00    +0.007 C 
ATOM     18  C   UNL     1      -2.465 -14.473  12.259  0.00  0.00    +0.007 C 
ENDBRANCH   8  12
BRANCH  11  15
ATOM     15  C   UNL     1      -5.756 -10.864  11.132  0.00  0.00    +0.103 C 
BRANCH  15  20
ATOM      1  O   UNL     1      -7.092 -12.670  10.375  0.00  0.00    -0.276 OA
ATOM      4  N   UNL     1      -7.559 -10.583   9.468  0.00  0.00    -0.299 N 
ATOM      6  N   UNL     1      -9.501  -8.783   8.375  0.00  0.00    -0.302 NA
ATOM     20  C   UNL     1      -6.859 -11.461  10.294  0.00  0.00    +0.216 C 
ATOM     21  C   UNL     1      -8.646 -11.084   8.628  0.00  0.00    +0.123 C 
ATOM     22  C   UNL     1      -7.222  -9.172   9.251  0.00  0.00    +0.123 C 
ATOM     23  C   UNL     1      -9.868 -10.170   8.699  0.00  0.00    +0.103 C 
ATOM     24  C   UNL     1      -8.472  -8.293   9.305  0.00  0.00    +0.103 C 
ATOM     26  C   UNL     1     -10.680  -7.918   8.413  0.00  0.00    +0.105 C 
ENDBRANCH  15  20
ENDBRANCH  11  15
BRANCH   9  16
ATOM     16  C   UNL     1      -1.735 -10.338  13.764  0.00  0.00    +0.112 C 
BRANCH  16   5
ATOM      2  O   UNL     1      -1.871 -10.925  16.572  0.00  0.00    -0.270 OA
ATOM      5  N   UNL     1      -2.896 -10.270  14.595  0.00  0.00    -0.311 N 
ATOM     25  C   UNL     1      -2.874 -10.573  15.956  0.00  0.00    +0.244 C 
ATOM     35  H   UNL     1      -3.743  -9.898  14.178  0.00  0.00    +0.149 HD
BRANCH  25  27
ATOM     27  C   UNL     1      -4.171 -10.479  16.675  0.00  0.00    +0.037 A 
ATOM     28  C   UNL     1      -5.280  -9.919  16.042  0.00  0.00    +0.015 A 
ATOM     29  C   UNL     1      -4.279 -10.952  17.983  0.00  0.00    +0.015 A 
ATOM     30  C   UNL     1      -6.497  -9.832  16.715  0.00  0.00    +0.024 A 
ATOM     31  C   UNL     1      -5.497 -10.864  18.658  0.00  0.00    +0.024 A 
ATOM     32  C   UNL     1      -6.606 -10.303  18.024  0.00  0.00    +0.033 A 
BRANCH  32   7
ATOM      3  O   UNL     1      -8.694 -12.404  18.567  0.00  0.00    -0.276 OA
ATOM      7  N   UNL     1      -7.824 -10.217  18.698  0.00  0.00    -0.286 N 
ATOM     33  C   UNL     1      -8.764 -11.232  18.922  0.00  0.00    +0.214 C 
ATOM     34  C   UNL     1      -9.957 -10.730  19.696  0.00  0.00    +0.109 C 
ATOM     36  H   UNL     1      -8.050  -9.296  19.070  0.00  0.00    +0.155 HD
ENDBRANCH  32   7
ENDBRANCH  25  27
ENDBRANCH  16   5
ENDBRANCH   9  16
TORSDOF 7
ENDMDL
MODEL 3
REMARK VINA RESULT:      -7.0     28.238     32.006
REMARK  Name = 38027975
REMARK  12 active torsions:
REMARK  status: ('A' for Active; 'I' for Inactive)
REMARK    1  A    between atoms: N_5  and  C_16
REMARK    2  A    between atoms: N_6  and  C_26
REMARK    3  A    between atoms: N_7  and  C_32
REMARK    4  A    between atoms: C_8  and  C_12
REMARK    5  A    between atoms: C_9  and  C_16
REMARK    6  A    between atoms: C_11  and  C_15
REMARK    7  A    between atoms: C_12  and  C_17
REMARK    8  A    between atoms: C_12  and  C_18
REMARK    9  A    between atoms: C_13  and  C_19
REMARK   10  A    between atoms: C_15  and  C_20
REMARK   11  A    between atoms: C_25  and  C_27
REMARK   12  A    between atoms: C_33  and  C_34
REMARK                            x       y       z     vdW  Elec       q    Type
REMARK                         _______ _______ _______ _____ _____    ______ ____
ROOT
ATOM      8  C   UNL     1      13.335   8.230  20.690  0.00  0.00    +0.000 C 
ATOM      9  C   UNL     1      14.478   7.955  19.681  0.00  0.00    +0.032 C 
ATOM     10  C   UNL     1      13.113   9.742  20.851  0.00  0.00    +0.012 C 
ATOM     11  C   UNL     1      14.381  10.467  21.341  0.00  0.00    +0.023 C 
ATOM     13  C   UNL     1      15.609  10.042  20.563  0.00  0.00    -0.073 C 
ATOM     14  C   UNL     1      15.631   8.924  19.816  0.00  0.00    -0.022 C 
ATOM     19  C   UNL     1      16.801  10.957  20.626  0.00  0.00    +0.039 C 
ENDROOT
BRANCH   8  12
ATOM     12  C   UNL     1      12.026   7.558  20.263  0.00  0.00    -0.013 C 
ATOM     17  C   UNL     1      11.578   6.549  21.316  0.00  0.00    +0.007 C 
ATOM     18  C   UNL     1      10.944   8.604  20.022  0.00  0.00    +0.007 C 
ENDBRANCH   8  12
BRANCH  11  15
ATOM     15  C   UNL     1      14.587  10.263  22.846  0.00  0.00    +0.103 C 
BRANCH  15  20
ATOM      1  O   UNL     1      15.700  12.181  23.683  0.00  0.00    -0.276 OA
ATOM      4  N   UNL     1      13.400  12.098  23.996  0.00  0.00    -0.299 N 
ATOM      6  N   UNL     1      10.923  13.517  24.242  0.00  0.00    -0.302 NA
ATOM     20  C   UNL     1      14.621  11.599  23.545  0.00  0.00    +0.216 C 
ATOM     21  C   UNL     1      13.349  13.390  24.680  0.00  0.00    +0.123 C 
ATOM     22  C   UNL     1      12.126  11.374  23.967  0.00  0.00    +0.123 C 
ATOM     23  C   UNL     1      12.197  14.248  24.158  0.00  0.00    +0.103 C 
ATOM     24  C   UNL     1      10.994  12.271  23.464  0.00  0.00    +0.103 C 
ATOM     26  C   UNL     1       9.820  14.354  23.772  0.00  0.00    +0.105 C 
ENDBRANCH  15  20
ENDBRANCH  11  15
BRANCH   9  16
ATOM     16  C   UNL     1      15.000   6.520  19.815  0.00  0.00    +0.112 C 
BRANCH  16   5
ATOM      2  O   UNL     1      17.368   5.611  18.468  0.00  0.00    -0.270 OA
ATOM      5  N   UNL     1      16.329   6.510  20.339  0.00  0.00    -0.311 N 
ATOM     25  C   UNL     1      17.428   6.049  19.615  0.00  0.00    +0.244 C 
ATOM     35  H   UNL     1      16.472   6.942  21.247  0.00  0.00    +0.149 HD
BRANCH  25  27
ATOM     27  C   UNL     1      18.739   6.080  20.312  0.00  0.00    +0.037 A 
ATOM     28  C   UNL     1      19.038   7.122  21.190  0.00  0.00    +0.015 A 
ATOM     29  C   UNL     1      19.672   5.065  20.090  0.00  0.00    +0.015 A 
ATOM     30  C   UNL     1      20.268   7.150  21.845  0.00  0.00    +0.024 A 
ATOM     31  C   UNL     1      20.903   5.094  20.745  0.00  0.00    +0.024 A 
ATOM     32  C   UNL     1      21.201   6.137  21.622  0.00  0.00    +0.033 A 
BRANCH  32   7
ATOM      3  O   UNL     1      22.022   5.000  24.287  0.00  0.00    -0.276 OA
ATOM      7  N   UNL     1      22.432   6.164  22.278  0.00  0.00    -0.286 N 
ATOM     33  C   UNL     1      22.760   5.617  23.526  0.00  0.00    +0.214 C 
ATOM     34  C   UNL     1      24.205   5.865  23.883  0.00  0.00    +0.109 C 
ATOM     36  H   UNL     1      23.179   6.646  21.780  0.00  0.00    +0.155 HD
ENDBRANCH  32   7
ENDBRANCH  25  27
ENDBRANCH  16   5
ENDBRANCH   9  16
TORSDOF 7
ENDMDL
MODEL 4
REMARK VINA RESULT:      -7.0      2.459      3.515
REMARK  Name = 38027975
REMARK  12 active torsions:
REMARK  status: ('A' for Active; 'I' for Inactive)
REMARK    1  A    between atoms: N_5  and  C_16
REMARK    2  A    between atoms: N_6  and  C_26
REMARK    3  A    between atoms: N_7  and  C_32
REMARK    4  A    between atoms: C_8  and  C_12
REMARK    5  A    between atoms: C_9  and  C_16
REMARK    6  A    between atoms: C_11  and  C_15
REMARK    7  A    between atoms: C_12  and  C_17
REMARK    8  A    between atoms: C_12  and  C_18
REMARK    9  A    between atoms: C_13  and  C_19
REMARK   10  A    between atoms: C_15  and  C_20
REMARK   11  A    between atoms: C_25  and  C_27
REMARK   12  A    between atoms: C_33  and  C_34
REMARK                            x       y       z     vdW  Elec       q    Type
REMARK                         _______ _______ _______ _____ _____    ______ ____
ROOT
ATOM      8  C   UNL     1      -5.123 -12.274  16.267  0.00  0.00    +0.000 C 
ATOM      9  C   UNL     1      -4.187 -11.793  17.403  0.00  0.00    +0.032 C 
ATOM     10  C   UNL     1      -4.302 -12.708  15.043  0.00  0.00    +0.012 C 
ATOM     11  C   UNL     1      -3.421 -11.568  14.499  0.00  0.00    +0.023 C 
ATOM     13  C   UNL     1      -2.664 -10.864  15.606  0.00  0.00    -0.073 C 
ATOM     14  C   UNL     1      -3.013 -10.987  16.900  0.00  0.00    -0.022 C 
ATOM     19  C   UNL     1      -1.467 -10.051  15.198  0.00  0.00    +0.039 C 
ENDROOT
BRANCH   8  12
ATOM     12  C   UNL     1      -6.024 -13.427  16.721  0.00  0.00    -0.013 C 
ATOM     17  C   UNL     1      -7.406 -13.305  16.086  0.00  0.00    +0.007 C 
ATOM     18  C   UNL     1      -5.387 -14.769  16.375  0.00  0.00    +0.007 C 
ENDBRANCH   8  12
BRANCH  11  15
ATOM     15  C   UNL     1      -4.249 -10.571  13.681  0.00  0.00    +0.103 C 
BRANCH  15  20
ATOM      1  O   UNL     1      -2.588 -10.979  12.040  0.00  0.00    -0.276 OA
ATOM      4  N   UNL     1      -4.374  -9.641  11.397  0.00  0.00    -0.299 N 
ATOM      6  N   UNL     1      -6.116  -8.746   9.305  0.00  0.00    -0.302 NA
ATOM     20  C   UNL     1      -3.656 -10.420  12.302  0.00  0.00    +0.216 C 
ATOM     21  C   UNL     1      -3.867  -9.450  10.038  0.00  0.00    +0.123 C 
ATOM     22  C   UNL     1      -5.572  -8.858  11.715  0.00  0.00    +0.123 C 
ATOM     23  C   UNL     1      -4.977  -9.625   9.002  0.00  0.00    +0.103 C 
ATOM     24  C   UNL     1      -6.649  -9.039  10.644  0.00  0.00    +0.103 C 
ATOM     26  C   UNL     1      -7.162  -8.893   8.293  0.00  0.00    +0.105 C 
ENDBRANCH  15  20
ENDBRANCH  11  15
BRANCH   9  16
ATOM     16  C   UNL     1      -4.958 -10.976  18.446  0.00  0.00    +0.112 C 
BRANCH  16   5
ATOM      2  O   UNL     1      -7.574 -10.904  19.629  0.00  0.00    -0.270 OA
ATOM      5  N   UNL     1      -6.138 -10.407  17.874  0.00  0.00    -0.311 N 
ATOM     25  C   UNL     1      -7.374 -10.415  18.520  0.00  0.00    +0.244 C 
ATOM     35  H   UNL     1      -6.032  -9.903  16.999  0.00  0.00    +0.149 HD
BRANCH  25  27
ATOM     27  C   UNL     1      -8.510  -9.807  17.780  0.00  0.00    +0.037 A 
ATOM     28  C   UNL     1      -9.777  -9.763  18.362  0.00  0.00    +0.015 A 
ATOM     29  C   UNL     1      -8.309  -9.277  16.505  0.00  0.00    +0.015 A 
ATOM     30  C   UNL     1     -10.843  -9.191  17.669  0.00  0.00    +0.024 A 
ATOM     31  C   UNL     1      -9.376  -8.705  15.811  0.00  0.00    +0.024 A 
ATOM     32  C   UNL     1     -10.642  -8.663  16.394  0.00  0.00    +0.033 A 
BRANCH  32   7
ATOM      3  O   UNL     1     -11.506  -5.787  16.164  0.00  0.00    -0.276 OA
ATOM      7  N   UNL     1     -11.709  -8.090  15.700  0.00  0.00    -0.286 N 
ATOM     33  C   UNL     1     -12.068  -6.737  15.628  0.00  0.00    +0.214 C 
ATOM     34  C   UNL     1     -13.291  -6.527  14.772  0.00  0.00    +0.109 C 
ATOM     36  H   UNL     1     -12.295  -8.745  15.186  0.00  0.00    +0.155 HD
ENDBRANCH  32   7
ENDBRANCH  25  27
ENDBRANCH  16   5
ENDBRANCH   9  16
TORSDOF 7
ENDMDL
MODEL 5
REMARK VINA RESULT:      -6.9     25.143     29.018
REMARK  Name = 38027975
REMARK  12 active torsions:
REMARK  status: ('A' for Active; 'I' for Inactive)
REMARK    1  A    between atoms: N_5  and  C_16
REMARK    2  A    between atoms: N_6  and  C_26
REMARK    3  A    between atoms: N_7  and  C_32
REMARK    4  A    between atoms: C_8  and  C_12
REMARK    5  A    between atoms: C_9  and  C_16
REMARK    6  A    between atoms: C_11  and  C_15
REMARK    7  A    between atoms: C_12  and  C_17
REMARK    8  A    between atoms: C_12  and  C_18
REMARK    9  A    between atoms: C_13  and  C_19
REMARK   10  A    between atoms: C_15  and  C_20
REMARK   11  A    between atoms: C_25  and  C_27
REMARK   12  A    between atoms: C_33  and  C_34
REMARK                            x       y       z     vdW  Elec       q    Type
REMARK                         _______ _______ _______ _____ _____    ______ ____
ROOT
ATOM      8  C   UNL     1       9.012   8.477   4.982  0.00  0.00    +0.000 C 
ATOM      9  C   UNL     1       8.745   9.204   6.324  0.00  0.00    +0.032 C 
ATOM     10  C   UNL     1       8.441   7.052   5.022  0.00  0.00    +0.012 C 
ATOM     11  C   UNL     1       9.050   6.212   6.162  0.00  0.00    +0.023 C 
ATOM     13  C   UNL     1       9.067   6.971   7.472  0.00  0.00    -0.073 C 
ATOM     14  C   UNL     1       8.916   8.306   7.527  0.00  0.00    -0.022 C 
ATOM     19  C   UNL     1       9.216   6.154   8.726  0.00  0.00    +0.039 C 
ENDROOT
BRANCH   8  12
ATOM     12  C   UNL     1       8.418   9.240   3.794  0.00  0.00    -0.013 C 
ATOM     17  C   UNL     1       8.528   8.409   2.519  0.00  0.00    +0.007 C 
ATOM     18  C   UNL     1       6.966   9.612   4.072  0.00  0.00    +0.007 C 
ENDBRANCH   8  12
BRANCH  11  15
ATOM     15  C   UNL     1      10.454   5.718   5.795  0.00  0.00    +0.103 C 
BRANCH  15  20
ATOM      1  O   UNL     1       9.739   3.572   5.087  0.00  0.00    -0.276 OA
ATOM      4  N   UNL     1      10.988   4.803   3.565  0.00  0.00    -0.299 N 
ATOM      6  N   UNL     1      11.555   5.437   0.828  0.00  0.00    -0.302 NA
ATOM     20  C   UNL     1      10.358   4.597   4.791  0.00  0.00    +0.216 C 
ATOM     21  C   UNL     1      10.936   3.766   2.535  0.00  0.00    +0.123 C 
ATOM     22  C   UNL     1      11.839   5.950   3.231  0.00  0.00    +0.123 C 
ATOM     23  C   UNL     1      10.613   4.359   1.165  0.00  0.00    +0.103 C 
ATOM     24  C   UNL     1      11.504   6.500   1.844  0.00  0.00    +0.103 C 
ATOM     26  C   UNL     1      11.262   5.980  -0.498  0.00  0.00    +0.105 C 
ENDBRANCH  15  20
ENDBRANCH  11  15
BRANCH   9  16
ATOM     16  C   UNL     1       9.645  10.436   6.474  0.00  0.00    +0.112 C 
BRANCH  16   5
ATOM      2  O   UNL     1      11.741  10.375   8.437  0.00  0.00    -0.270 OA
ATOM      5  N   UNL     1      11.015  10.094   6.250  0.00  0.00    -0.311 N 
ATOM     25  C   UNL     1      11.972  10.090   7.264  0.00  0.00    +0.244 C 
ATOM     35  H   UNL     1      11.263   9.758   5.325  0.00  0.00    +0.149 HD
BRANCH  25  27
ATOM     27  C   UNL     1      13.358   9.737   6.864  0.00  0.00    +0.037 A 
ATOM     28  C   UNL     1      14.308  10.742   6.683  0.00  0.00    +0.015 A 
ATOM     29  C   UNL     1      13.710   8.401   6.670  0.00  0.00    +0.015 A 
ATOM     30  C   UNL     1      15.610  10.411   6.308  0.00  0.00    +0.024 A 
ATOM     31  C   UNL     1      15.012   8.070   6.294  0.00  0.00    +0.024 A 
ATOM     32  C   UNL     1      15.961   9.075   6.113  0.00  0.00    +0.033 A 
BRANCH  32   7
ATOM      3  O   UNL     1      17.060   8.151   3.466  0.00  0.00    -0.276 OA
ATOM      7  N   UNL     1      17.264   8.744   5.739  0.00  0.00    -0.286 N 
ATOM     33  C   UNL     1      17.722   8.316   4.485  0.00  0.00    +0.214 C 
ATOM     34  C   UNL     1      19.208   8.057   4.491  0.00  0.00    +0.109 C 
ATOM     36  H   UNL     1      17.962   8.826   6.476  0.00  0.00    +0.155 HD
ENDBRANCH  32   7
ENDBRANCH  25  27
ENDBRANCH  16   5
ENDBRANCH   9  16
TORSDOF 7
ENDMDL
MODEL 6
REMARK VINA RESULT:      -6.8     25.158     28.422
REMARK  Name = 38027975
REMARK  12 active torsions:
REMARK  status: ('A' for Active; 'I' for Inactive)
REMARK    1  A    between atoms: N_5  and  C_16
REMARK    2  A    between atoms: N_6  and  C_26
REMARK    3  A    between atoms: N_7  and  C_32
REMARK    4  A    between atoms: C_8  and  C_12
REMARK    5  A    between atoms: C_9  and  C_16
REMARK    6  A    between atoms: C_11  and  C_15
REMARK    7  A    between atoms: C_12  and  C_17
REMARK    8  A    between atoms: C_12  and  C_18
REMARK    9  A    between atoms: C_13  and  C_19
REMARK   10  A    between atoms: C_15  and  C_20
REMARK   11  A    between atoms: C_25  and  C_27
REMARK   12  A    between atoms: C_33  and  C_34
REMARK                            x       y       z     vdW  Elec       q    Type
REMARK                         _______ _______ _______ _____ _____    ______ ____
ROOT
ATOM      8  C   UNL     1       9.626   6.746   6.471  0.00  0.00    +0.000 C 
ATOM      9  C   UNL     1       9.340   5.974   5.159  0.00  0.00    +0.032 C 
ATOM     10  C   UNL     1       8.499   7.749   6.759  0.00  0.00    +0.012 C 
ATOM     11  C   UNL     1       8.324   8.771   5.620  0.00  0.00    +0.023 C 
ATOM     13  C   UNL     1       8.302   8.102   4.261  0.00  0.00    -0.073 C 
ATOM     14  C   UNL     1       8.748   6.846   4.076  0.00  0.00    -0.022 C 
ATOM     19  C   UNL     1       7.712   8.892   3.126  0.00  0.00    +0.039 C 
ENDROOT
BRANCH   8  12
ATOM     12  C   UNL     1       9.795   5.799   7.663  0.00  0.00    -0.013 C 
ATOM     17  C   UNL     1      11.233   5.831   8.169  0.00  0.00    +0.007 C 
ATOM     18  C   UNL     1       8.822   6.168   8.777  0.00  0.00    +0.007 C 
ENDBRANCH   8  12
BRANCH  11  15
ATOM     15  C   UNL     1       9.404   9.857   5.679  0.00  0.00    +0.103 C 
BRANCH  15  20
ATOM      1  O   UNL     1       8.047  11.736   5.187  0.00  0.00    -0.276 OA
ATOM      4  N   UNL     1       9.073  11.716   7.270  0.00  0.00    -0.299 N 
ATOM      6  N   UNL     1       8.990  12.471  10.033  0.00  0.00    -0.302 NA
ATOM     20  C   UNL     1       8.778  11.187   6.015  0.00  0.00    +0.216 C 
ATOM     21  C   UNL     1       8.501  13.000   7.673  0.00  0.00    +0.123 C 
ATOM     22  C   UNL     1      10.039  11.156   8.220  0.00  0.00    +0.123 C 
ATOM     23  C   UNL     1       7.956  12.942   9.099  0.00  0.00    +0.103 C 
ATOM     24  C   UNL     1       9.469  11.137   9.639  0.00  0.00    +0.103 C 
ATOM     26  C   UNL     1       8.475  12.448  11.401  0.00  0.00    +0.105 C 
ENDBRANCH  15  20
ENDBRANCH  11  15
BRANCH   9  16
ATOM     16  C   UNL     1      10.608   5.294   4.629  0.00  0.00    +0.112 C 
BRANCH  16   5
ATOM      2  O   UNL     1      12.596   5.697   2.597  0.00  0.00    -0.270 OA
ATOM      5  N   UNL     1      10.480   4.993   3.238  0.00  0.00    -0.311 N 
ATOM     25  C   UNL     1      11.500   5.221   2.315  0.00  0.00    +0.244 C 
ATOM     35  H   UNL     1       9.635   4.512   2.944  0.00  0.00    +0.149 HD
BRANCH  25  27
ATOM     27  C   UNL     1      11.200   4.879   0.901  0.00  0.00    +0.037 A 
ATOM     28  C   UNL     1      12.040   4.013   0.200  0.00  0.00    +0.015 A 
ATOM     29  C   UNL     1      10.078   5.422   0.274  0.00  0.00    +0.015 A 
ATOM     30  C   UNL     1      11.759   3.691  -1.127  0.00  0.00    +0.024 A 
ATOM     31  C   UNL     1       9.796   5.100  -1.054  0.00  0.00    +0.024 A 
ATOM     32  C   UNL     1      10.638   4.235  -1.754  0.00  0.00    +0.033 A 
BRANCH  32   7
ATOM      3  O   UNL     1       9.634   1.670  -2.972  0.00  0.00    -0.276 OA
ATOM      7  N   UNL     1      10.355   3.912  -3.082  0.00  0.00    -0.286 N 
ATOM     33  C   UNL     1       9.889   2.694  -3.596  0.00  0.00    +0.214 C 
ATOM     34  C   UNL     1       9.710   2.751  -5.093  0.00  0.00    +0.109 C 
ATOM     36  H   UNL     1      10.512   4.661  -3.754  0.00  0.00    +0.155 HD
ENDBRANCH  32   7
ENDBRANCH  25  27
ENDBRANCH  16   5
ENDBRANCH   9  16
TORSDOF 7
ENDMDL
MODEL 7
REMARK VINA RESULT:      -6.5      3.180      5.107
REMARK  Name = 38027975
REMARK  12 active torsions:
REMARK  status: ('A' for Active; 'I' for Inactive)
REMARK    1  A    between atoms: N_5  and  C_16
REMARK    2  A    between atoms: N_6  and  C_26
REMARK    3  A    between atoms: N_7  and  C_32
REMARK    4  A    between atoms: C_8  and  C_12
REMARK    5  A    between atoms: C_9  and  C_16
REMARK    6  A    between atoms: C_11  and  C_15
REMARK    7  A    between atoms: C_12  and  C_17
REMARK    8  A    between atoms: C_12  and  C_18
REMARK    9  A    between atoms: C_13  and  C_19
REMARK   10  A    between atoms: C_15  and  C_20
REMARK   11  A    between atoms: C_25  and  C_27
REMARK   12  A    between atoms: C_33  and  C_34
REMARK                            x       y       z     vdW  Elec       q    Type
REMARK                         _______ _______ _______ _____ _____    ______ ____
ROOT
ATOM      8  C   UNL     1      -5.581 -11.150  14.674  0.00  0.00    +0.000 C 
ATOM      9  C   UNL     1      -5.289 -10.693  16.125  0.00  0.00    +0.032 C 
ATOM     10  C   UNL     1      -4.497 -12.126  14.191  0.00  0.00    +0.012 C 
ATOM     11  C   UNL     1      -3.090 -11.500  14.232  0.00  0.00    +0.023 C 
ATOM     13  C   UNL     1      -2.826 -10.792  15.544  0.00  0.00    -0.073 C 
ATOM     14  C   UNL     1      -3.820 -10.450  16.384  0.00  0.00    -0.022 C 
ATOM     19  C   UNL     1      -1.388 -10.525  15.893  0.00  0.00    +0.039 C 
ENDROOT
BRANCH   8  12
ATOM     12  C   UNL     1      -6.960 -11.805  14.550  0.00  0.00    -0.013 C 
ATOM     17  C   UNL     1      -7.173 -12.335  13.135  0.00  0.00    +0.007 C 
ATOM     18  C   UNL     1      -7.111 -12.924  15.575  0.00  0.00    +0.007 C 
ENDBRANCH   8  12
BRANCH  11  15
ATOM     15  C   UNL     1      -2.870 -10.555  13.045  0.00  0.00    +0.103 C 
BRANCH  15  20
ATOM      1  O   UNL     1      -2.717 -12.293  11.441  0.00  0.00    -0.276 OA
ATOM      4  N   UNL     1      -4.270 -10.621  11.012  0.00  0.00    -0.299 N 
ATOM      6  N   UNL     1      -6.777  -9.867   9.848  0.00  0.00    -0.302 NA
ATOM     20  C   UNL     1      -3.272 -11.240  11.762  0.00  0.00    +0.216 C 
ATOM     21  C   UNL     1      -4.718 -11.225   9.758  0.00  0.00    +0.123 C 
ATOM     22  C   UNL     1      -4.853  -9.306  11.297  0.00  0.00    +0.123 C 
ATOM     23  C   UNL     1      -6.243 -11.223   9.655  0.00  0.00    +0.103 C 
ATOM     24  C   UNL     1      -6.376  -9.338  11.160  0.00  0.00    +0.103 C 
ATOM     26  C   UNL     1      -8.234  -9.865   9.716  0.00  0.00    +0.105 C 
ENDBRANCH  15  20
ENDBRANCH  11  15
BRANCH   9  16
ATOM     16  C   UNL     1      -6.084  -9.430  16.477  0.00  0.00    +0.112 C 
BRANCH  16   5
ATOM      2  O   UNL     1      -8.885  -9.058  15.962  0.00  0.00    -0.270 OA
ATOM      5  N   UNL     1      -7.163  -9.740  17.361  0.00  0.00    -0.311 N 
ATOM     25  C   UNL     1      -8.500  -9.527  17.031  0.00  0.00    +0.244 C 
ATOM     35  H   UNL     1      -6.930 -10.216  18.227  0.00  0.00    +0.149 HD
BRANCH  25  27
ATOM     27  C   UNL     1      -9.502  -9.876  18.071  0.00  0.00    +0.037 A 
ATOM     28  C   UNL     1      -9.161 -10.752  19.101  0.00  0.00    +0.015 A 
ATOM     29  C   UNL     1     -10.784  -9.327  18.018  0.00  0.00    +0.015 A 
ATOM     30  C   UNL     1     -10.100 -11.080  20.078  0.00  0.00    +0.024 A 
ATOM     31  C   UNL     1     -11.724  -9.655  18.995  0.00  0.00    +0.024 A 
ATOM     32  C   UNL     1     -11.382 -10.532  20.025  0.00  0.00    +0.033 A 
BRANCH  32   7
ATOM      3  O   UNL     1     -13.088 -12.991  20.353  0.00  0.00    -0.276 OA
ATOM      7  N   UNL     1     -12.322 -10.858  21.002  0.00  0.00    -0.286 N 
ATOM     33  C   UNL     1     -13.093 -12.024  21.107  0.00  0.00    +0.214 C 
ATOM     34  C   UNL     1     -13.996 -11.991  22.314  0.00  0.00    +0.109 C 
ATOM     36  H   UNL     1     -12.458 -10.155  21.726  0.00  0.00    +0.155 HD
ENDBRANCH  32   7
ENDBRANCH  25  27
ENDBRANCH  16   5
ENDBRANCH   9  16
TORSDOF 7
ENDMDL
MODEL 8
REMARK VINA RESULT:      -6.4     25.233     29.025
REMARK  Name = 38027975
REMARK  12 active torsions:
REMARK  status: ('A' for Active; 'I' for Inactive)
REMARK    1  A    between atoms: N_5  and  C_16
REMARK    2  A    between atoms: N_6  and  C_26
REMARK    3  A    between atoms: N_7  and  C_32
REMARK    4  A    between atoms: C_8  and  C_12
REMARK    5  A    between atoms: C_9  and  C_16
REMARK    6  A    between atoms: C_11  and  C_15
REMARK    7  A    between atoms: C_12  and  C_17
REMARK    8  A    between atoms: C_12  and  C_18
REMARK    9  A    between atoms: C_13  and  C_19
REMARK   10  A    between atoms: C_15  and  C_20
REMARK   11  A    between atoms: C_25  and  C_27
REMARK   12  A    between atoms: C_33  and  C_34
REMARK                            x       y       z     vdW  Elec       q    Type
REMARK                         _______ _______ _______ _____ _____    ______ ____
ROOT
ATOM      8  C   UNL     1      10.323   6.445   6.400  0.00  0.00    +0.000 C 
ATOM      9  C   UNL     1       9.462   7.732   6.437  0.00  0.00    +0.032 C 
ATOM     10  C   UNL     1      11.608   6.636   7.221  0.00  0.00    +0.012 C 
ATOM     11  C   UNL     1      12.461   7.809   6.702  0.00  0.00    +0.023 C 
ATOM     13  C   UNL     1      11.625   9.048   6.457  0.00  0.00    -0.073 C 
ATOM     14  C   UNL     1      10.285   8.997   6.354  0.00  0.00    -0.022 C 
ATOM     19  C   UNL     1      12.361  10.357   6.378  0.00  0.00    +0.039 C 
ENDROOT
BRANCH   8  12
ATOM     12  C   UNL     1       9.551   5.229   6.921  0.00  0.00    -0.013 C 
ATOM     17  C   UNL     1       9.851   4.002   6.066  0.00  0.00    +0.007 C 
ATOM     18  C   UNL     1       9.895   4.966   8.383  0.00  0.00    +0.007 C 
ENDBRANCH   8  12
BRANCH  11  15
ATOM     15  C   UNL     1      13.238   7.413   5.442  0.00  0.00    +0.103 C 
BRANCH  15  20
ATOM      1  O   UNL     1      15.245   7.405   6.703  0.00  0.00    -0.276 OA
ATOM      4  N   UNL     1      15.372   8.288   4.559  0.00  0.00    -0.299 N 
ATOM      6  N   UNL     1      16.939   8.752   2.206  0.00  0.00    -0.302 NA
ATOM     20  C   UNL     1      14.707   7.699   5.633  0.00  0.00    +0.216 C 
ATOM     21  C   UNL     1      16.798   8.593   4.665  0.00  0.00    +0.123 C 
ATOM     22  C   UNL     1      14.736   8.770   3.329  0.00  0.00    +0.123 C 
ATOM     23  C   UNL     1      17.552   8.164   3.406  0.00  0.00    +0.103 C 
ATOM     24  C   UNL     1      15.531   8.342   2.094  0.00  0.00    +0.103 C 
ATOM     26  C   UNL     1      17.683   8.365   1.008  0.00  0.00    +0.105 C 
ENDBRANCH  15  20
ENDBRANCH  11  15
BRANCH   9  16
ATOM     16  C   UNL     1       8.416   7.730   5.316  0.00  0.00    +0.112 C 
BRANCH  16   5
ATOM      2  O   UNL     1       9.818   8.628   2.976  0.00  0.00    -0.270 OA
ATOM      5  N   UNL     1       8.849   6.924   4.219  0.00  0.00    -0.311 N 
ATOM     25  C   UNL     1       9.527   7.442   3.117  0.00  0.00    +0.244 C 
ATOM     35  H   UNL     1       8.726   5.920   4.305  0.00  0.00    +0.149 HD
BRANCH  25  27
ATOM     27  C   UNL     1       9.886   6.476   2.047  0.00  0.00    +0.037 A 
ATOM     28  C   UNL     1       9.888   6.883   0.712  0.00  0.00    +0.015 A 
ATOM     29  C   UNL     1      10.222   5.163   2.376  0.00  0.00    +0.015 A 
ATOM     30  C   UNL     1      10.225   5.977  -0.292  0.00  0.00    +0.024 A 
ATOM     31  C   UNL     1      10.560   4.256   1.371  0.00  0.00    +0.024 A 
ATOM     32  C   UNL     1      10.561   4.664   0.037  0.00  0.00    +0.033 A 
BRANCH  32   7
ATOM      3  O   UNL     1      13.180   3.309  -0.573  0.00  0.00    -0.276 OA
ATOM      7  N   UNL     1      10.899   3.757  -0.968  0.00  0.00    -0.286 N 
ATOM     33  C   UNL     1      12.142   3.155  -1.208  0.00  0.00    +0.214 C 
ATOM     34  C   UNL     1      12.095   2.231  -2.399  0.00  0.00    +0.109 C 
ATOM     36  H   UNL     1      10.142   3.509  -1.602  0.00  0.00    +0.155 HD
ENDBRANCH  32   7
ENDBRANCH  25  27
ENDBRANCH  16   5
ENDBRANCH   9  16
TORSDOF 7
ENDMDL
MODEL 9
REMARK VINA RESULT:      -6.3     25.738     29.035
REMARK  Name = 38027975
REMARK  12 active torsions:
REMARK  status: ('A' for Active; 'I' for Inactive)
REMARK    1  A    between atoms: N_5  and  C_16
REMARK    2  A    between atoms: N_6  and  C_26
REMARK    3  A    between atoms: N_7  and  C_32
REMARK    4  A    between atoms: C_8  and  C_12
REMARK    5  A    between atoms: C_9  and  C_16
REMARK    6  A    between atoms: C_11  and  C_15
REMARK    7  A    between atoms: C_12  and  C_17
REMARK    8  A    between atoms: C_12  and  C_18
REMARK    9  A    between atoms: C_13  and  C_19
REMARK   10  A    between atoms: C_15  and  C_20
REMARK   11  A    between atoms: C_25  and  C_27
REMARK   12  A    between atoms: C_33  and  C_34
REMARK                            x       y       z     vdW  Elec       q    Type
REMARK                         _______ _______ _______ _____ _____    ______ ____
ROOT
ATOM      8  C   UNL     1      17.892  -3.122  23.734  0.00  0.00    +0.000 C 
ATOM      9  C   UNL     1      18.721  -4.281  23.125  0.00  0.00    +0.032 C 
ATOM     10  C   UNL     1      18.821  -2.018  24.261  0.00  0.00    +0.012 C 
ATOM     11  C   UNL     1      19.794  -2.540  25.336  0.00  0.00    +0.023 C 
ATOM     13  C   UNL     1      20.455  -3.836  24.915  0.00  0.00    -0.073 C 
ATOM     14  C   UNL     1      19.969  -4.595  23.916  0.00  0.00    -0.022 C 
ATOM     19  C   UNL     1      21.717  -4.219  25.639  0.00  0.00    +0.039 C 
ENDROOT
BRANCH   8  12
ATOM     12  C   UNL     1      16.909  -2.531  22.719  0.00  0.00    -0.013 C 
ATOM     17  C   UNL     1      15.474  -2.866  23.111  0.00  0.00    +0.007 C 
ATOM     18  C   UNL     1      17.101  -1.023  22.608  0.00  0.00    +0.007 C 
ENDBRANCH   8  12
BRANCH  11  15
ATOM     15  C   UNL     1      19.092  -2.696  26.689  0.00  0.00    +0.103 C 
BRANCH  15  20
ATOM      1  O   UNL     1      20.822  -1.251  27.423  0.00  0.00    -0.276 OA
ATOM      4  N   UNL     1      19.299  -1.946  29.033  0.00  0.00    -0.299 N 
ATOM      6  N   UNL     1      17.889  -1.371  31.460  0.00  0.00    -0.302 NA
ATOM     20  C   UNL     1      19.821  -1.898  27.741  0.00  0.00    +0.216 C 
ATOM     21  C   UNL     1      19.947  -1.197  30.108  0.00  0.00    +0.123 C 
ATOM     22  C   UNL     1      18.195  -2.807  29.470  0.00  0.00    +0.123 C 
ATOM     23  C   UNL     1      18.921  -0.450  30.960  0.00  0.00    +0.103 C 
ATOM     24  C   UNL     1      17.204  -2.032  30.339  0.00  0.00    +0.103 C 
ATOM     26  C   UNL     1      16.928  -0.659  32.301  0.00  0.00    +0.105 C 
ENDBRANCH  15  20
ENDBRANCH  11  15
BRANCH   9  16
ATOM     16  C   UNL     1      17.875  -5.551  22.982  0.00  0.00    +0.112 C 
BRANCH  16   5
ATOM      2  O   UNL     1      18.557  -7.836  24.583  0.00  0.00    -0.270 OA
ATOM      5  N   UNL     1      17.296  -5.918  24.236  0.00  0.00    -0.311 N 
ATOM     25  C   UNL     1      17.688  -7.050  24.951  0.00  0.00    +0.244 C 
ATOM     35  H   UNL     1      16.635  -5.268  24.650  0.00  0.00    +0.149 HD
BRANCH  25  27
ATOM     27  C   UNL     1      16.970  -7.308  26.226  0.00  0.00    +0.037 A 
ATOM     28  C   UNL     1      16.285  -8.509  26.409  0.00  0.00    +0.015 A 
ATOM     29  C   UNL     1      16.983  -6.350  27.241  0.00  0.00    +0.015 A 
ATOM     30  C   UNL     1      15.612  -8.753  27.605  0.00  0.00    +0.024 A 
ATOM     31  C   UNL     1      16.309  -6.594  28.438  0.00  0.00    +0.024 A 
ATOM     32  C   UNL     1      15.624  -7.795  28.620  0.00  0.00    +0.033 A 
BRANCH  32   7
ATOM      3  O   UNL     1      13.234  -6.423  29.834  0.00  0.00    -0.276 OA
ATOM      7  N   UNL     1      14.951  -8.038  29.817  0.00  0.00    -0.286 N 
ATOM     33  C   UNL     1      13.838  -7.364  30.338  0.00  0.00    +0.214 C 
ATOM     34  C   UNL     1      13.410  -7.934  31.667  0.00  0.00    +0.109 C 
ATOM     36  H   UNL     1      15.324  -8.804  30.377  0.00  0.00    +0.155 HD
ENDBRANCH  32   7
ENDBRANCH  25  27
ENDBRANCH  16   5
ENDBRANCH   9  16
TORSDOF 7
ENDMDL
MODEL 10
REMARK VINA RESULT:      -6.3     25.757     29.506
REMARK  Name = 38027975
REMARK  12 active torsions:
REMARK  status: ('A' for Active; 'I' for Inactive)
REMARK    1  A    between atoms: N_5  and  C_16
REMARK    2  A    between atoms: N_6  and  C_26
REMARK    3  A    between atoms: N_7  and  C_32
REMARK    4  A    between atoms: C_8  and  C_12
REMARK    5  A    between atoms: C_9  and  C_16
REMARK    6  A    between atoms: C_11  and  C_15
REMARK    7  A    between atoms: C_12  and  C_17
REMARK    8  A    between atoms: C_12  and  C_18
REMARK    9  A    between atoms: C_13  and  C_19
REMARK   10  A    between atoms: C_15  and  C_20
REMARK   11  A    between atoms: C_25  and  C_27
REMARK   12  A    between atoms: C_33  and  C_34
REMARK                            x       y       z     vdW  Elec       q    Type
REMARK                         _______ _______ _______ _____ _____    ______ ____
ROOT
ATOM      8  C   UNL     1       8.952   8.598   5.210  0.00  0.00    +0.000 C 
ATOM      9  C   UNL     1       8.879   7.892   6.587  0.00  0.00    +0.032 C 
ATOM     10  C   UNL     1       8.465   7.656   4.098  0.00  0.00    +0.012 C 
ATOM     11  C   UNL     1       9.296   6.361   4.027  0.00  0.00    +0.023 C 
ATOM     13  C   UNL     1       9.496   5.745   5.396  0.00  0.00    -0.073 C 
ATOM     14  C   UNL     1       9.292   6.440   6.529  0.00  0.00    -0.022 C 
ATOM     19  C   UNL     1       9.893   4.294   5.434  0.00  0.00    +0.039 C 
ENDROOT
BRANCH   8  12
ATOM     12  C   UNL     1       8.131   9.891   5.189  0.00  0.00    -0.013 C 
ATOM     17  C   UNL     1       9.015  11.077   4.815  0.00  0.00    +0.007 C 
ATOM     18  C   UNL     1       6.960   9.763   4.221  0.00  0.00    +0.007 C 
ENDBRANCH   8  12
BRANCH  11  15
ATOM     15  C   UNL     1      10.641   6.604   3.333  0.00  0.00    +0.103 C 
BRANCH  15  20
ATOM      1  O   UNL     1      10.092   4.699   2.034  0.00  0.00    -0.276 OA
ATOM      4  N   UNL     1      12.349   5.219   2.209  0.00  0.00    -0.299 N 
ATOM      6  N   UNL     1      14.953   5.192   1.015  0.00  0.00    -0.302 NA
ATOM     20  C   UNL     1      10.994   5.420   2.467  0.00  0.00    +0.216 C 
ATOM     21  C   UNL     1      12.772   4.095   1.374  0.00  0.00    +0.123 C 
ATOM     22  C   UNL     1      13.449   5.975   2.815  0.00  0.00    +0.123 C 
ATOM     23  C   UNL     1      13.821   4.528   0.351  0.00  0.00    +0.103 C 
ATOM     24  C   UNL     1      14.490   6.368   1.766  0.00  0.00    +0.103 C 
ATOM     26  C   UNL     1      15.970   5.575   0.036  0.00  0.00    +0.105 C 
ENDBRANCH  15  20
ENDBRANCH  11  15
BRANCH   9  16
ATOM     16  C   UNL     1       9.731   8.624   7.629  0.00  0.00    +0.112 C 
BRANCH  16   5
ATOM      2  O   UNL     1      11.576  10.799   7.297  0.00  0.00    -0.270 OA
ATOM      5  N   UNL     1      11.120   8.523   7.311  0.00  0.00    -0.311 N 
ATOM     25  C   UNL     1      11.949   9.636   7.167  0.00  0.00    +0.244 C 
ATOM     35  H   UNL     1      11.522   7.592   7.279  0.00  0.00    +0.149 HD
BRANCH  25  27
ATOM     27  C   UNL     1      13.365   9.364   6.809  0.00  0.00    +0.037 A 
ATOM     28  C   UNL     1      14.259  10.422   6.648  0.00  0.00    +0.015 A 
ATOM     29  C   UNL     1      13.801   8.050   6.635  0.00  0.00    +0.015 A 
ATOM     30  C   UNL     1      15.588  10.168   6.312  0.00  0.00    +0.024 A 
ATOM     31  C   UNL     1      15.130   7.795   6.298  0.00  0.00    +0.024 A 
ATOM     32  C   UNL     1      16.023   8.854   6.137  0.00  0.00    +0.033 A 
BRANCH  32   7
ATOM      3  O   UNL     1      17.288   8.258   3.470  0.00  0.00    -0.276 OA
ATOM      7  N   UNL     1      17.353   8.599   5.802  0.00  0.00    -0.286 N 
ATOM     33  C   UNL     1      17.890   8.324   4.536  0.00  0.00    +0.214 C 
ATOM     34  C   UNL     1      19.381   8.103   4.597  0.00  0.00    +0.109 C 
ATOM     36  H   UNL     1      18.008   8.615   6.582  0.00  0.00    +0.155 HD
ENDBRANCH  32   7
ENDBRANCH  25  27
ENDBRANCH  16   5
ENDBRANCH   9  16
TORSDOF 7
ENDMDL
