REMARK  Name = 26743872
REMARK  8 active torsions:
REMARK  status: ('A' for Active; 'I' for Inactive)
REMARK    1  A    between atoms: O_1  and  C_10
REMARK    2  A    between atoms: N_4  and  C_12
REMARK    3  A    between atoms: N_7  and  C_21
REMARK    4  A    between atoms: C_8  and  C_13
REMARK    5  A    between atoms: C_12  and  C_14
REMARK    6  A    between atoms: C_17  and  C_20
REMARK    7  A    between atoms: C_24  and  C_28
REMARK    8  A    between atoms: C_27  and  C_29
REMARK                            x       y       z     vdW  Elec       q    Type
REMARK                         _______ _______ _______ _____ _____    ______ ____
ROOT
ATOM      4  N   UNL     1       3.212   0.765   0.553  0.00  0.00    -0.285 NA
ATOM      8  C   UNL     1       3.274  -0.215  -0.550  0.00  0.00    +0.149 C 
ATOM      9  C   UNL     1       4.339  -1.237  -0.109  0.00  0.00    +0.061 C 
ATOM     10  C   UNL     1       4.849  -0.721   1.231  0.00  0.00    +0.130 C 
ATOM     11  C   UNL     1       4.530   0.761   1.186  0.00  0.00    +0.116 C 
ENDROOT
BRANCH   8  13
ATOM      2  O   UNL     1       1.729  -1.290  -2.109  0.00  0.00    -0.336 OA
ATOM      5  N   UNL     1       0.919  -1.055  -0.034  0.00  0.00    -0.190 NA
ATOM      6  N   UNL     1       0.439  -1.834  -2.131  0.00  0.00    -0.056 NA
ATOM     13  C   UNL     1       1.933  -0.855  -0.838  0.00  0.00    +0.245 A 
ATOM     17  C   UNL     1       0.026  -1.658  -0.872  0.00  0.00    +0.202 A 
BRANCH  17  20
ATOM     20  C   UNL     1      -1.269  -2.074  -0.419  0.00  0.00    +0.023 A 
ATOM     22  C   UNL     1      -1.646  -1.864   0.908  0.00  0.00    +0.015 A 
ATOM     23  C   UNL     1      -2.154  -2.688  -1.306  0.00  0.00    +0.012 A 
ATOM     24  C   UNL     1      -2.907  -2.268   1.347  0.00  0.00    -0.050 A 
ATOM     25  C   UNL     1      -3.414  -3.091  -0.867  0.00  0.00    +0.001 A 
ATOM     26  C   UNL     1      -3.791  -2.881   0.460  0.00  0.00    +0.003 A 
ATOM     28  C   UNL     1      -3.310  -2.044   2.765  0.00  0.00    +0.044 C 
ENDBRANCH  17  20
ENDBRANCH   8  13
BRANCH  10   1
ATOM      1  O   UNL     1       6.238  -0.955   1.363  0.00  0.00    -0.390 OA
ATOM     30  H   UNL     1       6.379  -1.916   1.308  0.00  0.00    +0.210 HD
ENDBRANCH  10   1
BRANCH   4  12
ATOM     12  C   UNL     1       2.819   2.098   0.116  0.00  0.00    +0.120 C 
BRANCH  12  14
ATOM     14  C   UNL     1       1.330   2.207  -0.081  0.00  0.00    -0.033 A 
ATOM     15  C   UNL     1       0.815   2.568  -1.327  0.00  0.00    +0.007 A 
ATOM     16  C   UNL     1       0.465   1.947   0.982  0.00  0.00    +0.007 A 
ATOM     18  C   UNL     1      -0.564   2.668  -1.509  0.00  0.00    +0.023 A 
ATOM     19  C   UNL     1      -0.914   2.047   0.800  0.00  0.00    +0.023 A 
ATOM     21  C   UNL     1      -1.429   2.408  -0.446  0.00  0.00    +0.033 A 
BRANCH  21   7
ATOM      3  O   UNL     1      -3.694   1.964   1.487  0.00  0.00    -0.276 OA
ATOM      7  N   UNL     1      -2.808   2.508  -0.629  0.00  0.00    -0.286 N 
ATOM     27  C   UNL     1      -3.824   2.288   0.311  0.00  0.00    +0.214 C 
ATOM     29  C   UNL     1      -5.193   2.501  -0.285  0.00  0.00    +0.109 C 
ATOM     31  H   UNL     1      -3.104   2.775  -1.566  0.00  0.00    +0.155 HD
ENDBRANCH  21   7
ENDBRANCH  12  14
ENDBRANCH   4  12
TORSDOF 6
