REMARK  Name = 45783771
REMARK  8 active torsions:
REMARK  status: ('A' for Active; 'I' for Inactive)
REMARK    1  A    between atoms: O_3  and  C_21
REMARK    2  A    between atoms: N_4  and  C_13
REMARK    3  A    between atoms: N_8  and  C_25
REMARK    4  A    between atoms: N_8  and  C_26
REMARK    5  A    between atoms: C_9  and  C_14
REMARK    6  A    between atoms: C_13  and  C_15
REMARK    7  A    between atoms: C_17  and  C_20
REMARK    8  A    between atoms: C_18  and  C_21
REMARK                            x       y       z     vdW  Elec       q    Type
REMARK                         _______ _______ _______ _____ _____    ______ ____
ROOT
ATOM      4  N   UNL     1      -3.429  -0.593  -0.608  0.00  0.00    -0.284 NA
ATOM      9  C   UNL     1      -2.869  -1.550   0.368  0.00  0.00    +0.146 C 
ATOM     10  C   UNL     1      -3.080  -2.933  -0.276  0.00  0.00    +0.030 C 
ATOM     11  C   UNL     1      -3.820  -2.657  -1.577  0.00  0.00    +0.017 C 
ATOM     12  C   UNL     1      -4.473  -1.311  -1.338  0.00  0.00    +0.085 C 
ENDROOT
BRANCH   9  14
ATOM      1  O   UNL     1      -1.114  -1.056   1.996  0.00  0.00    -0.336 OA
ATOM      5  N   UNL     1      -0.385  -1.203  -0.117  0.00  0.00    -0.190 NA
ATOM      6  N   UNL     1       0.267  -0.823   2.042  0.00  0.00    -0.056 NA
ATOM     14  C   UNL     1      -1.415  -1.271   0.688  0.00  0.00    +0.245 A 
ATOM     17  C   UNL     1       0.623  -0.926   0.758  0.00  0.00    +0.204 A 
BRANCH  17  20
ATOM      7  N   UNL     1       4.289  -0.309   0.871  0.00  0.00    -0.240 NA
ATOM     20  C   UNL     1       1.978  -0.759   0.319  0.00  0.00    +0.041 A 
ATOM     22  C   UNL     1       2.315  -0.875  -1.026  0.00  0.00    +0.016 A 
ATOM     23  C   UNL     1       2.993  -0.478   1.219  0.00  0.00    +0.124 A 
ATOM     24  C   UNL     1       3.637  -0.708  -1.423  0.00  0.00    +0.044 A 
ATOM     25  C   UNL     1       4.578  -0.429  -0.444  0.00  0.00    +0.118 A 
BRANCH  25   8
ATOM      8  N   UNL     1       5.920  -0.262  -0.864  0.00  0.00    -0.332 N 
ATOM     26  C   UNL     1       6.981   0.028   0.045  0.00  0.00    +0.127 C 
ATOM     28  H   UNL     1       6.081  -0.127  -1.856  0.00  0.00    +0.147 HD
ENDBRANCH  25   8
ENDBRANCH  17  20
ENDBRANCH   9  14
BRANCH   4  13
ATOM     13  C   UNL     1      -3.932   0.627   0.010  0.00  0.00    +0.159 C 
BRANCH  13  15
ATOM      2  O   UNL     1      -2.055   2.000  -0.713  0.00  0.00    -0.461 OA
ATOM     15  C   UNL     1      -2.821   1.591   0.333  0.00  0.00    +0.119 A 
ATOM     16  C   UNL     1      -2.391   2.173   1.503  0.00  0.00    +0.046 A 
ATOM     18  C   UNL     1      -1.127   2.852  -0.205  0.00  0.00    +0.131 A 
ATOM     19  C   UNL     1      -1.291   2.992   1.153  0.00  0.00    +0.047 A 
BRANCH  18  21
ATOM     21  C   UNL     1      -0.177   3.428  -1.168  0.00  0.00    +0.230 C 
BRANCH  21   3
ATOM      3  O   UNL     1       0.796   2.451  -1.547  0.00  0.00    -0.387 OA
ATOM     27  H   UNL     1       1.397   2.880  -2.180  0.00  0.00    +0.210 HD
ENDBRANCH  21   3
ENDBRANCH  18  21
ENDBRANCH  13  15
ENDBRANCH   4  13
TORSDOF 7
