MODEL 1
REMARK VINA RESULT:      -7.4      0.000      0.000
REMARK  Name = 75536059
REMARK  8 active torsions:
REMARK  status: ('A' for Active; 'I' for Inactive)
REMARK    1  A    between atoms: O_1  and  C_8
REMARK    2  A    between atoms: O_2  and  C_10
REMARK    3  A    between atoms: O_4  and  C_22
REMARK    4  A    between atoms: O_4  and  C_25
REMARK    5  A    between atoms: N_5  and  C_7
REMARK    6  A    between atoms: C_6  and  C_11
REMARK    7  A    between atoms: C_12  and  C_16
REMARK    8  A    between atoms: C_14  and  C_19
REMARK                            x       y       z     vdW  Elec       q    Type
REMARK                         _______ _______ _______ _____ _____    ______ ____
ROOT
ATOM      6  C   UNL     1      12.977   9.250  20.034  0.00  0.00    +0.045 C 
ATOM      7  C   UNL     1      13.215   7.770  20.410  0.00  0.00    +0.112 C 
ATOM      8  C   UNL     1      12.353   7.576  21.657  0.00  0.00    +0.164 C 
ATOM      9  C   UNL     1      11.615   9.633  20.668  0.00  0.00    +0.044 C 
ATOM     10  C   UNL     1      11.089   8.360  21.329  0.00  0.00    +0.145 C 
ENDROOT
BRANCH   6  11
ATOM     11  C   UNL     1      13.066   9.505  18.545  0.00  0.00    -0.039 A 
ATOM     12  C   UNL     1      14.098  10.276  18.009  0.00  0.00    -0.047 A 
ATOM     13  C   UNL     1      12.097   8.956  17.705  0.00  0.00    +0.004 A 
ATOM     15  C   UNL     1      14.159  10.498  16.633  0.00  0.00    +0.003 A 
ATOM     16  C   UNL     1      15.146  10.874  18.887  0.00  0.00    +0.044 C 
ATOM     17  C   UNL     1      12.159   9.179  16.329  0.00  0.00    +0.000 A 
ATOM     18  C   UNL     1      13.191   9.950  15.793  0.00  0.00    +0.000 A 
ENDBRANCH   6  11
BRANCH   7   5
ATOM      3  O   UNL     1      15.181   6.927  18.494  0.00  0.00    -0.270 OA
ATOM      5  N   UNL     1      14.605   7.494  20.668  0.00  0.00    -0.305 N 
ATOM     14  C   UNL     1      15.485   7.090  19.673  0.00  0.00    +0.244 C 
ATOM     26  H   UNL     1      14.951   7.701  21.600  0.00  0.00    +0.149 HD
BRANCH  14  19
ATOM     19  C   UNL     1      16.881   6.821  20.107  0.00  0.00    +0.040 A 
ATOM     20  C   UNL     1      17.442   7.560  21.147  0.00  0.00    +0.058 A 
ATOM     21  C   UNL     1      17.628   5.828  19.474  0.00  0.00    +0.013 A 
ATOM     22  C   UNL     1      18.752   7.307  21.555  0.00  0.00    +0.121 A 
ATOM     23  C   UNL     1      18.938   5.574  19.881  0.00  0.00    +0.004 A 
ATOM     24  C   UNL     1      19.500   6.314  20.922  0.00  0.00    +0.045 A 
BRANCH  22   4
ATOM      4  O   UNL     1      19.300   8.028  22.571  0.00  0.00    -0.495 OA
ATOM     25  C   UNL     1      20.303   7.384  23.356  0.00  0.00    +0.277 C 
ENDBRANCH  22   4
ENDBRANCH  14  19
ENDBRANCH   7   5
BRANCH   8   1
ATOM      1  O   UNL     1      12.061   6.213  21.900  0.00  0.00    -0.387 OA
ATOM     27  H   UNL     1      11.116   6.079  21.712  0.00  0.00    +0.210 HD
ENDBRANCH   8   1
BRANCH  10   2
ATOM      2  O   UNL     1      10.282   7.658  20.387  0.00  0.00    -0.389 OA
ATOM     28  H   UNL     1      10.856   7.400  19.646  0.00  0.00    +0.210 HD
ENDBRANCH  10   2
TORSDOF 6
ENDMDL
MODEL 2
REMARK VINA RESULT:      -6.6      4.450      6.525
REMARK  Name = 75536059
REMARK  8 active torsions:
REMARK  status: ('A' for Active; 'I' for Inactive)
REMARK    1  A    between atoms: O_1  and  C_8
REMARK    2  A    between atoms: O_2  and  C_10
REMARK    3  A    between atoms: O_4  and  C_22
REMARK    4  A    between atoms: O_4  and  C_25
REMARK    5  A    between atoms: N_5  and  C_7
REMARK    6  A    between atoms: C_6  and  C_11
REMARK    7  A    between atoms: C_12  and  C_16
REMARK    8  A    between atoms: C_14  and  C_19
REMARK                            x       y       z     vdW  Elec       q    Type
REMARK                         _______ _______ _______ _____ _____    ______ ____
ROOT
ATOM      6  C   UNL     1      11.491  13.512  23.157  0.00  0.00    +0.045 C 
ATOM      7  C   UNL     1      11.231  12.001  23.352  0.00  0.00    +0.112 C 
ATOM      8  C   UNL     1      11.955  11.681  24.658  0.00  0.00    +0.164 C 
ATOM      9  C   UNL     1      11.802  14.073  24.569  0.00  0.00    +0.044 C 
ATOM     10  C   UNL     1      11.652  12.894  25.528  0.00  0.00    +0.145 C 
ENDROOT
BRANCH   6  11
ATOM     11  C   UNL     1      10.363  14.220  22.438  0.00  0.00    -0.039 A 
ATOM     12  C   UNL     1      10.477  14.572  21.093  0.00  0.00    -0.047 A 
ATOM     13  C   UNL     1       9.195  14.520  23.141  0.00  0.00    +0.004 A 
ATOM     15  C   UNL     1       9.424  15.225  20.452  0.00  0.00    +0.003 A 
ATOM     16  C   UNL     1      11.716  14.262  20.320  0.00  0.00    +0.044 C 
ATOM     17  C   UNL     1       8.143  15.173  22.499  0.00  0.00    +0.000 A 
ATOM     18  C   UNL     1       8.258  15.526  21.154  0.00  0.00    +0.000 A 
ENDBRANCH   6  11
BRANCH   7   5
ATOM      3  O   UNL     1      10.413   9.348  22.617  0.00  0.00    -0.270 OA
ATOM      5  N   UNL     1      11.734  11.219  22.251  0.00  0.00    -0.305 N 
ATOM     14  C   UNL     1      11.275   9.939  21.972  0.00  0.00    +0.244 C 
ATOM     26  H   UNL     1      12.379  11.678  21.616  0.00  0.00    +0.149 HD
BRANCH  14  19
ATOM     19  C   UNL     1      11.915   9.255  20.818  0.00  0.00    +0.040 A 
ATOM     20  C   UNL     1      13.285   8.996  20.833  0.00  0.00    +0.058 A 
ATOM     21  C   UNL     1      11.144   8.873  19.720  0.00  0.00    +0.013 A 
ATOM     22  C   UNL     1      13.885   8.354  19.750  0.00  0.00    +0.121 A 
ATOM     23  C   UNL     1      11.744   8.231  18.636  0.00  0.00    +0.004 A 
ATOM     24  C   UNL     1      13.114   7.971  18.651  0.00  0.00    +0.045 A 
BRANCH  22   4
ATOM      4  O   UNL     1      15.222   8.100  19.763  0.00  0.00    -0.495 OA
ATOM     25  C   UNL     1      15.633   6.769  19.452  0.00  0.00    +0.277 C 
ENDBRANCH  22   4
ENDBRANCH  14  19
ENDBRANCH   7   5
BRANCH   8   1
ATOM      1  O   UNL     1      11.479  10.490  25.257  0.00  0.00    -0.387 OA
ATOM     27  H   UNL     1      11.558  10.597  26.221  0.00  0.00    +0.210 HD
ENDBRANCH   8   1
BRANCH  10   2
ATOM      2  O   UNL     1      10.309  12.860  26.003  0.00  0.00    -0.389 OA
ATOM     28  H   UNL     1      10.336  12.987  26.967  0.00  0.00    +0.210 HD
ENDBRANCH  10   2
TORSDOF 6
ENDMDL
MODEL 3
REMARK VINA RESULT:      -6.3     26.107     28.424
REMARK  Name = 75536059
REMARK  8 active torsions:
REMARK  status: ('A' for Active; 'I' for Inactive)
REMARK    1  A    between atoms: O_1  and  C_8
REMARK    2  A    between atoms: O_2  and  C_10
REMARK    3  A    between atoms: O_4  and  C_22
REMARK    4  A    between atoms: O_4  and  C_25
REMARK    5  A    between atoms: N_5  and  C_7
REMARK    6  A    between atoms: C_6  and  C_11
REMARK    7  A    between atoms: C_12  and  C_16
REMARK    8  A    between atoms: C_14  and  C_19
REMARK                            x       y       z     vdW  Elec       q    Type
REMARK                         _______ _______ _______ _____ _____    ______ ____
ROOT
ATOM      6  C   UNL     1      -3.673 -12.843  12.381  0.00  0.00    +0.045 C 
ATOM      7  C   UNL     1      -3.150 -13.120  13.809  0.00  0.00    +0.112 C 
ATOM      8  C   UNL     1      -3.102 -14.646  13.881  0.00  0.00    +0.164 C 
ATOM      9  C   UNL     1      -3.335 -14.111  11.555  0.00  0.00    +0.044 C 
ATOM     10  C   UNL     1      -2.584 -15.041  12.504  0.00  0.00    +0.145 C 
ENDROOT
BRANCH   6  11
ATOM     11  C   UNL     1      -3.138 -11.554  11.795  0.00  0.00    -0.039 A 
ATOM     12  C   UNL     1      -3.862 -10.849  10.833  0.00  0.00    -0.047 A 
ATOM     13  C   UNL     1      -1.902 -11.074  12.228  0.00  0.00    +0.004 A 
ATOM     15  C   UNL     1      -3.349  -9.664  10.306  0.00  0.00    +0.003 A 
ATOM     16  C   UNL     1      -5.187 -11.342  10.354  0.00  0.00    +0.044 C 
ATOM     17  C   UNL     1      -1.389  -9.889  11.700  0.00  0.00    +0.000 A 
ATOM     18  C   UNL     1      -2.113  -9.183  10.739  0.00  0.00    +0.000 A 
ENDBRANCH   6  11
BRANCH   7   5
ATOM      3  O   UNL     1      -2.446 -11.123  15.749  0.00  0.00    -0.270 OA
ATOM      5  N   UNL     1      -4.011 -12.560  14.819  0.00  0.00    -0.305 N 
ATOM     14  C   UNL     1      -3.580 -11.593  15.717  0.00  0.00    +0.244 C 
ATOM     26  H   UNL     1      -4.990 -12.829  14.792  0.00  0.00    +0.149 HD
BRANCH  14  19
ATOM     19  C   UNL     1      -4.584 -11.137  16.714  0.00  0.00    +0.040 A 
ATOM     20  C   UNL     1      -5.635 -10.311  16.317  0.00  0.00    +0.058 A 
ATOM     21  C   UNL     1      -4.474 -11.534  18.046  0.00  0.00    +0.013 A 
ATOM     22  C   UNL     1      -6.577  -9.882  17.252  0.00  0.00    +0.121 A 
ATOM     23  C   UNL     1      -5.415 -11.106  18.982  0.00  0.00    +0.004 A 
ATOM     24  C   UNL     1      -6.467 -10.280  18.585  0.00  0.00    +0.045 A 
BRANCH  22   4
ATOM      4  O   UNL     1      -7.603  -9.077  16.865  0.00  0.00    -0.495 OA
ATOM     25  C   UNL     1      -8.890  -9.355  17.417  0.00  0.00    +0.277 C 
ENDBRANCH  22   4
ENDBRANCH  14  19
ENDBRANCH   7   5
BRANCH   8   1
ATOM      1  O   UNL     1      -2.242 -15.108  14.905  0.00  0.00    -0.387 OA
ATOM     27  H   UNL     1      -1.333 -14.872  14.650  0.00  0.00    +0.210 HD
ENDBRANCH   8   1
BRANCH  10   2
ATOM      2  O   UNL     1      -1.188 -14.779  12.390  0.00  0.00    -0.389 OA
ATOM     28  H   UNL     1      -1.065 -13.816  12.451  0.00  0.00    +0.210 HD
ENDBRANCH  10   2
TORSDOF 6
ENDMDL
MODEL 4
REMARK VINA RESULT:      -6.3      3.441      7.283
REMARK  Name = 75536059
REMARK  8 active torsions:
REMARK  status: ('A' for Active; 'I' for Inactive)
REMARK    1  A    between atoms: O_1  and  C_8
REMARK    2  A    between atoms: O_2  and  C_10
REMARK    3  A    between atoms: O_4  and  C_22
REMARK    4  A    between atoms: O_4  and  C_25
REMARK    5  A    between atoms: N_5  and  C_7
REMARK    6  A    between atoms: C_6  and  C_11
REMARK    7  A    between atoms: C_12  and  C_16
REMARK    8  A    between atoms: C_14  and  C_19
REMARK                            x       y       z     vdW  Elec       q    Type
REMARK                         _______ _______ _______ _____ _____    ______ ____
ROOT
ATOM      6  C   UNL     1      13.108   8.640  20.206  0.00  0.00    +0.045 C 
ATOM      7  C   UNL     1      12.171   8.788  21.427  0.00  0.00    +0.112 C 
ATOM      8  C   UNL     1      10.990   7.882  21.081  0.00  0.00    +0.164 C 
ATOM      9  C   UNL     1      12.739   7.284  19.552  0.00  0.00    +0.044 C 
ATOM     10  C   UNL     1      11.658   6.672  20.441  0.00  0.00    +0.145 C 
ENDROOT
BRANCH   6  11
ATOM     11  C   UNL     1      14.572   8.785  20.562  0.00  0.00    -0.039 A 
ATOM     12  C   UNL     1      15.267   9.960  20.277  0.00  0.00    -0.047 A 
ATOM     13  C   UNL     1      15.226   7.720  21.183  0.00  0.00    +0.004 A 
ATOM     15  C   UNL     1      16.616  10.070  20.614  0.00  0.00    +0.003 A 
ATOM     16  C   UNL     1      14.589  11.113  19.614  0.00  0.00    +0.044 C 
ATOM     17  C   UNL     1      16.576   7.831  21.518  0.00  0.00    +0.000 A 
ATOM     18  C   UNL     1      17.271   9.007  21.234  0.00  0.00    +0.000 A 
ENDBRANCH   6  11
BRANCH   7   5
ATOM      3  O   UNL     1      11.203   9.940  23.873  0.00  0.00    -0.270 OA
ATOM      5  N   UNL     1      11.761  10.154  21.632  0.00  0.00    -0.305 N 
ATOM     14  C   UNL     1      11.305  10.622  22.857  0.00  0.00    +0.244 C 
ATOM     26  H   UNL     1      11.908  10.800  20.863  0.00  0.00    +0.149 HD
BRANCH  14  19
ATOM     19  C   UNL     1      10.895  12.050  22.897  0.00  0.00    +0.040 A 
ATOM     20  C   UNL     1      10.900  12.809  21.728  0.00  0.00    +0.058 A 
ATOM     21  C   UNL     1      10.505  12.630  24.104  0.00  0.00    +0.013 A 
ATOM     22  C   UNL     1      10.516  14.150  21.765  0.00  0.00    +0.121 A 
ATOM     23  C   UNL     1      10.120  13.970  24.142  0.00  0.00    +0.004 A 
ATOM     24  C   UNL     1      10.125  14.730  22.972  0.00  0.00    +0.045 A 
BRANCH  22   4
ATOM      4  O   UNL     1      10.520  14.891  20.624  0.00  0.00    -0.495 OA
ATOM     25  C   UNL     1       9.313  15.578  20.292  0.00  0.00    +0.277 C 
ENDBRANCH  22   4
ENDBRANCH  14  19
ENDBRANCH   7   5
BRANCH   8   1
ATOM      1  O   UNL     1      10.246   7.511  22.226  0.00  0.00    -0.387 OA
ATOM     27  H   UNL     1       9.368   7.222  21.922  0.00  0.00    +0.210 HD
ENDBRANCH   8   1
BRANCH  10   2
ATOM      2  O   UNL     1      12.285   5.855  21.426  0.00  0.00    -0.389 OA
ATOM     28  H   UNL     1      11.683   5.801  22.188  0.00  0.00    +0.210 HD
ENDBRANCH  10   2
TORSDOF 6
ENDMDL
MODEL 5
REMARK VINA RESULT:      -6.2     13.444     15.209
REMARK  Name = 75536059
REMARK  8 active torsions:
REMARK  status: ('A' for Active; 'I' for Inactive)
REMARK    1  A    between atoms: O_1  and  C_8
REMARK    2  A    between atoms: O_2  and  C_10
REMARK    3  A    between atoms: O_4  and  C_22
REMARK    4  A    between atoms: O_4  and  C_25
REMARK    5  A    between atoms: N_5  and  C_7
REMARK    6  A    between atoms: C_6  and  C_11
REMARK    7  A    between atoms: C_12  and  C_16
REMARK    8  A    between atoms: C_14  and  C_19
REMARK                            x       y       z     vdW  Elec       q    Type
REMARK                         _______ _______ _______ _____ _____    ______ ____
ROOT
ATOM      6  C   UNL     1      10.031   6.334   5.155  0.00  0.00    +0.045 C 
ATOM      7  C   UNL     1      11.289   6.228   6.047  0.00  0.00    +0.112 C 
ATOM      8  C   UNL     1      10.717   6.003   7.445  0.00  0.00    +0.164 C 
ATOM      9  C   UNL     1       8.903   5.602   5.928  0.00  0.00    +0.044 C 
ATOM     10  C   UNL     1       9.554   5.052   7.195  0.00  0.00    +0.145 C 
ENDROOT
BRANCH   6  11
ATOM     11  C   UNL     1      10.256   5.823   3.748  0.00  0.00    -0.039 A 
ATOM     12  C   UNL     1       9.842   6.564   2.641  0.00  0.00    -0.047 A 
ATOM     13  C   UNL     1      10.888   4.593   3.568  0.00  0.00    +0.004 A 
ATOM     15  C   UNL     1      10.060   6.073   1.354  0.00  0.00    +0.003 A 
ATOM     16  C   UNL     1       9.165   7.884   2.809  0.00  0.00    +0.044 C 
ATOM     17  C   UNL     1      11.105   4.102   2.280  0.00  0.00    +0.000 A 
ATOM     18  C   UNL     1      10.691   4.843   1.172  0.00  0.00    +0.000 A 
ENDBRANCH   6  11
BRANCH   7   5
ATOM      3  O   UNL     1      13.963   6.537   7.047  0.00  0.00    -0.270 OA
ATOM      5  N   UNL     1      12.101   7.416   5.980  0.00  0.00    -0.305 N 
ATOM     14  C   UNL     1      13.389   7.471   6.494  0.00  0.00    +0.244 C 
ATOM     26  H   UNL     1      11.730   8.199   5.451  0.00  0.00    +0.149 HD
BRANCH  14  19
ATOM     19  C   UNL     1      14.085   8.779   6.370  0.00  0.00    +0.040 A 
ATOM     20  C   UNL     1      15.471   8.820   6.225  0.00  0.00    +0.058 A 
ATOM     21  C   UNL     1      13.351   9.965   6.398  0.00  0.00    +0.013 A 
ATOM     22  C   UNL     1      16.124  10.047   6.108  0.00  0.00    +0.121 A 
ATOM     23  C   UNL     1      14.003  11.192   6.281  0.00  0.00    +0.004 A 
ATOM     24  C   UNL     1      15.389  11.234   6.136  0.00  0.00    +0.045 A 
BRANCH  22   4
ATOM      4  O   UNL     1      17.476  10.089   5.965  0.00  0.00    -0.495 OA
ATOM     25  C   UNL     1      18.159   8.838   5.884  0.00  0.00    +0.277 C 
ENDBRANCH  22   4
ENDBRANCH  14  19
ENDBRANCH   7   5
BRANCH   8   1
ATOM      1  O   UNL     1      11.665   5.433   8.327  0.00  0.00    -0.387 OA
ATOM     27  H   UNL     1      12.213   4.818   7.809  0.00  0.00    +0.210 HD
ENDBRANCH   8   1
BRANCH  10   2
ATOM      2  O   UNL     1      10.022   3.732   6.931  0.00  0.00    -0.389 OA
ATOM     28  H   UNL     1      10.719   3.799   6.256  0.00  0.00    +0.210 HD
ENDBRANCH  10   2
TORSDOF 6
ENDMDL
MODEL 6
REMARK VINA RESULT:      -6.1     29.510     33.150
REMARK  Name = 75536059
REMARK  8 active torsions:
REMARK  status: ('A' for Active; 'I' for Inactive)
REMARK    1  A    between atoms: O_1  and  C_8
REMARK    2  A    between atoms: O_2  and  C_10
REMARK    3  A    between atoms: O_4  and  C_22
REMARK    4  A    between atoms: O_4  and  C_25
REMARK    5  A    between atoms: N_5  and  C_7
REMARK    6  A    between atoms: C_6  and  C_11
REMARK    7  A    between atoms: C_12  and  C_16
REMARK    8  A    between atoms: C_14  and  C_19
REMARK                            x       y       z     vdW  Elec       q    Type
REMARK                         _______ _______ _______ _____ _____    ______ ____
ROOT
ATOM      6  C   UNL     1     -16.715   4.650  32.639  0.00  0.00    +0.045 C 
ATOM      7  C   UNL     1     -16.432   4.982  34.122  0.00  0.00    +0.112 C 
ATOM      8  C   UNL     1     -17.786   5.458  34.645  0.00  0.00    +0.164 C 
ATOM      9  C   UNL     1     -18.239   4.382  32.550  0.00  0.00    +0.044 C 
ATOM     10  C   UNL     1     -18.769   4.506  33.977  0.00  0.00    +0.145 C 
ENDROOT
BRANCH   6  11
ATOM     11  C   UNL     1     -15.851   3.526  32.108  0.00  0.00    -0.039 A 
ATOM     12  C   UNL     1     -15.469   3.487  30.767  0.00  0.00    -0.047 A 
ATOM     13  C   UNL     1     -15.436   2.521  32.982  0.00  0.00    +0.004 A 
ATOM     15  C   UNL     1     -14.673   2.441  30.300  0.00  0.00    +0.003 A 
ATOM     16  C   UNL     1     -15.899   4.552  29.814  0.00  0.00    +0.044 C 
ATOM     17  C   UNL     1     -14.640   1.474  32.513  0.00  0.00    +0.000 A 
ATOM     18  C   UNL     1     -14.259   1.435  31.172  0.00  0.00    +0.000 A 
ENDBRANCH   6  11
BRANCH   7   5
ATOM      3  O   UNL     1     -14.006   4.766  35.645  0.00  0.00    -0.270 OA
ATOM      5  N   UNL     1     -15.414   5.991  34.266  0.00  0.00    -0.305 N 
ATOM     14  C   UNL     1     -14.269   5.795  35.027  0.00  0.00    +0.244 C 
ATOM     26  H   UNL     1     -15.515   6.832  33.706  0.00  0.00    +0.149 HD
BRANCH  14  19
ATOM     19  C   UNL     1     -13.328   6.943  35.096  0.00  0.00    +0.040 A 
ATOM     20  C   UNL     1     -13.098   7.724  33.964  0.00  0.00    +0.058 A 
ATOM     21  C   UNL     1     -12.676   7.240  36.292  0.00  0.00    +0.013 A 
ATOM     22  C   UNL     1     -12.215   8.802  34.028  0.00  0.00    +0.121 A 
ATOM     23  C   UNL     1     -11.793   8.318  36.358  0.00  0.00    +0.004 A 
ATOM     24  C   UNL     1     -11.562   9.099  35.225  0.00  0.00    +0.045 A 
BRANCH  22   4
ATOM      4  O   UNL     1     -11.990   9.565  32.924  0.00  0.00    -0.495 OA
ATOM     25  C   UNL     1     -11.476   8.902  31.770  0.00  0.00    +0.277 C 
ENDBRANCH  22   4
ENDBRANCH  14  19
ENDBRANCH   7   5
BRANCH   8   1
ATOM      1  O   UNL     1     -17.875   5.379  36.055  0.00  0.00    -0.387 OA
ATOM     27  H   UNL     1     -18.021   4.445  36.286  0.00  0.00    +0.210 HD
ENDBRANCH   8   1
BRANCH  10   2
ATOM      2  O   UNL     1     -18.733   3.220  34.590  0.00  0.00    -0.389 OA
ATOM     28  H   UNL     1     -17.986   2.732  34.202  0.00  0.00    +0.210 HD
ENDBRANCH  10   2
TORSDOF 6
ENDMDL
MODEL 7
REMARK VINA RESULT:      -6.0     13.428     15.251
REMARK  Name = 75536059
REMARK  8 active torsions:
REMARK  status: ('A' for Active; 'I' for Inactive)
REMARK    1  A    between atoms: O_1  and  C_8
REMARK    2  A    between atoms: O_2  and  C_10
REMARK    3  A    between atoms: O_4  and  C_22
REMARK    4  A    between atoms: O_4  and  C_25
REMARK    5  A    between atoms: N_5  and  C_7
REMARK    6  A    between atoms: C_6  and  C_11
REMARK    7  A    between atoms: C_12  and  C_16
REMARK    8  A    between atoms: C_14  and  C_19
REMARK                            x       y       z     vdW  Elec       q    Type
REMARK                         _______ _______ _______ _____ _____    ______ ____
ROOT
ATOM      6  C   UNL     1      10.007   6.371   5.197  0.00  0.00    +0.045 C 
ATOM      7  C   UNL     1      11.261   6.265   6.093  0.00  0.00    +0.112 C 
ATOM      8  C   UNL     1      10.685   6.001   7.483  0.00  0.00    +0.164 C 
ATOM      9  C   UNL     1       8.887   5.604   5.946  0.00  0.00    +0.044 C 
ATOM     10  C   UNL     1       9.539   5.036   7.205  0.00  0.00    +0.145 C 
ENDROOT
BRANCH   6  11
ATOM     11  C   UNL     1      10.249   5.895   3.780  0.00  0.00    -0.039 A 
ATOM     12  C   UNL     1       9.832   6.655   2.687  0.00  0.00    -0.047 A 
ATOM     13  C   UNL     1      10.899   4.678   3.577  0.00  0.00    +0.004 A 
ATOM     15  C   UNL     1      10.065   6.196   1.391  0.00  0.00    +0.003 A 
ATOM     16  C   UNL     1       9.135   7.961   2.880  0.00  0.00    +0.044 C 
ATOM     17  C   UNL     1      11.132   4.220   2.279  0.00  0.00    +0.000 A 
ATOM     18  C   UNL     1      10.715   4.980   1.186  0.00  0.00    +0.000 A 
ENDBRANCH   6  11
BRANCH   7   5
ATOM      3  O   UNL     1      13.953   6.575   7.045  0.00  0.00    -0.270 OA
ATOM      5  N   UNL     1      12.053   7.468   6.059  0.00  0.00    -0.305 N 
ATOM     14  C   UNL     1      13.353   7.522   6.545  0.00  0.00    +0.244 C 
ATOM     26  H   UNL     1      11.659   8.267   5.571  0.00  0.00    +0.149 HD
BRANCH  14  19
ATOM     19  C   UNL     1      14.026   8.845   6.460  0.00  0.00    +0.040 A 
ATOM     20  C   UNL     1      13.302  10.012   6.703  0.00  0.00    +0.058 A 
ATOM     21  C   UNL     1      15.380   8.918   6.137  0.00  0.00    +0.013 A 
ATOM     22  C   UNL     1      13.933  11.253   6.623  0.00  0.00    +0.121 A 
ATOM     23  C   UNL     1      16.012  10.160   6.057  0.00  0.00    +0.004 A 
ATOM     24  C   UNL     1      15.289  11.327   6.300  0.00  0.00    +0.045 A 
BRANCH  22   4
ATOM      4  O   UNL     1      13.228  12.392   6.861  0.00  0.00    -0.495 OA
ATOM     25  C   UNL     1      11.807  12.308   6.768  0.00  0.00    +0.277 C 
ENDBRANCH  22   4
ENDBRANCH  14  19
ENDBRANCH   7   5
BRANCH   8   1
ATOM      1  O   UNL     1      11.637   5.427   8.358  0.00  0.00    -0.387 OA
ATOM     27  H   UNL     1      11.231   5.382   9.242  0.00  0.00    +0.210 HD
ENDBRANCH   8   1
BRANCH  10   2
ATOM      2  O   UNL     1      10.031   3.730   6.915  0.00  0.00    -0.389 OA
ATOM     28  H   UNL     1       9.289   3.211   6.559  0.00  0.00    +0.210 HD
ENDBRANCH  10   2
TORSDOF 6
ENDMDL
MODEL 8
REMARK VINA RESULT:      -6.0     32.775     35.010
REMARK  Name = 75536059
REMARK  8 active torsions:
REMARK  status: ('A' for Active; 'I' for Inactive)
REMARK    1  A    between atoms: O_1  and  C_8
REMARK    2  A    between atoms: O_2  and  C_10
REMARK    3  A    between atoms: O_4  and  C_22
REMARK    4  A    between atoms: O_4  and  C_25
REMARK    5  A    between atoms: N_5  and  C_7
REMARK    6  A    between atoms: C_6  and  C_11
REMARK    7  A    between atoms: C_12  and  C_16
REMARK    8  A    between atoms: C_14  and  C_19
REMARK                            x       y       z     vdW  Elec       q    Type
REMARK                         _______ _______ _______ _____ _____    ______ ____
ROOT
ATOM      6  C   UNL     1      -1.117 -12.238  -5.039  0.00  0.00    +0.045 C 
ATOM      7  C   UNL     1      -1.305 -13.534  -4.217  0.00  0.00    +0.112 C 
ATOM      8  C   UNL     1      -2.806 -13.560  -3.932  0.00  0.00    +0.164 C 
ATOM      9  C   UNL     1      -2.501 -11.931  -5.666  0.00  0.00    +0.044 C 
ATOM     10  C   UNL     1      -3.416 -13.079  -5.242  0.00  0.00    +0.145 C 
ENDROOT
BRANCH   6  11
ATOM     11  C   UNL     1       0.016 -12.330  -6.038  0.00  0.00    -0.039 A 
ATOM     12  C   UNL     1       1.230 -11.682  -5.809  0.00  0.00    -0.047 A 
ATOM     13  C   UNL     1      -0.168 -13.075  -7.203  0.00  0.00    +0.004 A 
ATOM     15  C   UNL     1       2.260 -11.780  -6.745  0.00  0.00    +0.003 A 
ATOM     16  C   UNL     1       1.451 -10.879  -4.570  0.00  0.00    +0.044 C 
ATOM     17  C   UNL     1       0.863 -13.172  -8.139  0.00  0.00    +0.000 A 
ATOM     18  C   UNL     1       2.077 -12.524  -7.909  0.00  0.00    +0.000 A 
ENDBRANCH   6  11
BRANCH   7   5
ATOM      3  O   UNL     1       1.263 -14.756  -3.817  0.00  0.00    -0.270 OA
ATOM      5  N   UNL     1      -0.526 -13.523  -3.005  0.00  0.00    -0.305 N 
ATOM     14  C   UNL     1       0.711 -14.145  -2.906  0.00  0.00    +0.244 C 
ATOM     26  H   UNL     1      -0.873 -12.955  -2.238  0.00  0.00    +0.149 HD
BRANCH  14  19
ATOM     19  C   UNL     1       1.376 -14.066  -1.579  0.00  0.00    +0.040 A 
ATOM     20  C   UNL     1       2.767 -14.034  -1.497  0.00  0.00    +0.058 A 
ATOM     21  C   UNL     1       0.607 -14.022  -0.416  0.00  0.00    +0.013 A 
ATOM     22  C   UNL     1       3.391 -13.959  -0.252  0.00  0.00    +0.121 A 
ATOM     23  C   UNL     1       1.230 -13.947   0.830  0.00  0.00    +0.004 A 
ATOM     24  C   UNL     1       2.623 -13.916   0.913  0.00  0.00    +0.045 A 
BRANCH  22   4
ATOM      4  O   UNL     1       4.749 -13.928  -0.171  0.00  0.00    -0.495 OA
ATOM     25  C   UNL     1       5.406 -15.142   0.191  0.00  0.00    +0.277 C 
ENDBRANCH  22   4
ENDBRANCH  14  19
ENDBRANCH   7   5
BRANCH   8   1
ATOM      1  O   UNL     1      -3.266 -14.855  -3.598  0.00  0.00    -0.387 OA
ATOM     27  H   UNL     1      -3.305 -15.372  -4.421  0.00  0.00    +0.210 HD
ENDBRANCH   8   1
BRANCH  10   2
ATOM      2  O   UNL     1      -3.359 -14.098  -6.236  0.00  0.00    -0.389 OA
ATOM     28  H   UNL     1      -4.090 -14.716  -6.063  0.00  0.00    +0.210 HD
ENDBRANCH  10   2
TORSDOF 6
ENDMDL
MODEL 9
REMARK VINA RESULT:      -5.9      3.287      6.588
REMARK  Name = 75536059
REMARK  8 active torsions:
REMARK  status: ('A' for Active; 'I' for Inactive)
REMARK    1  A    between atoms: O_1  and  C_8
REMARK    2  A    between atoms: O_2  and  C_10
REMARK    3  A    between atoms: O_4  and  C_22
REMARK    4  A    between atoms: O_4  and  C_25
REMARK    5  A    between atoms: N_5  and  C_7
REMARK    6  A    between atoms: C_6  and  C_11
REMARK    7  A    between atoms: C_12  and  C_16
REMARK    8  A    between atoms: C_14  and  C_19
REMARK                            x       y       z     vdW  Elec       q    Type
REMARK                         _______ _______ _______ _____ _____    ______ ____
ROOT
ATOM      6  C   UNL     1      14.121   8.867  19.273  0.00  0.00    +0.045 C 
ATOM      7  C   UNL     1      12.885   8.919  20.200  0.00  0.00    +0.112 C 
ATOM      8  C   UNL     1      11.722   8.603  19.261  0.00  0.00    +0.164 C 
ATOM      9  C   UNL     1      13.709   7.983  18.069  0.00  0.00    +0.044 C 
ATOM     10  C   UNL     1      12.288   7.508  18.366  0.00  0.00    +0.145 C 
ENDROOT
BRANCH   6  11
ATOM     11  C   UNL     1      15.376   8.409  19.984  0.00  0.00    -0.039 A 
ATOM     12  C   UNL     1      16.370   9.320  20.344  0.00  0.00    -0.047 A 
ATOM     13  C   UNL     1      15.531   7.054  20.279  0.00  0.00    +0.004 A 
ATOM     15  C   UNL     1      17.519   8.874  20.998  0.00  0.00    +0.003 A 
ATOM     16  C   UNL     1      16.227  10.774  20.041  0.00  0.00    +0.044 C 
ATOM     17  C   UNL     1      16.681   6.610  20.932  0.00  0.00    +0.000 A 
ATOM     18  C   UNL     1      17.675   7.520  21.292  0.00  0.00    +0.000 A 
ENDBRANCH   6  11
BRANCH   7   5
ATOM      3  O   UNL     1      13.922   9.707  22.760  0.00  0.00    -0.270 OA
ATOM      5  N   UNL     1      12.735  10.205  20.830  0.00  0.00    -0.305 N 
ATOM     14  C   UNL     1      13.274  10.496  22.076  0.00  0.00    +0.244 C 
ATOM     26  H   UNL     1      12.295  10.939  20.283  0.00  0.00    +0.149 HD
BRANCH  14  19
ATOM     19  C   UNL     1      13.008  11.861  22.600  0.00  0.00    +0.040 A 
ATOM     20  C   UNL     1      11.771  12.464  22.375  0.00  0.00    +0.058 A 
ATOM     21  C   UNL     1      13.994  12.538  23.316  0.00  0.00    +0.013 A 
ATOM     22  C   UNL     1      11.520  13.745  22.866  0.00  0.00    +0.121 A 
ATOM     23  C   UNL     1      13.744  13.820  23.808  0.00  0.00    +0.004 A 
ATOM     24  C   UNL     1      12.507  14.424  23.583  0.00  0.00    +0.045 A 
BRANCH  22   4
ATOM      4  O   UNL     1      10.313  14.335  22.647  0.00  0.00    -0.495 OA
ATOM     25  C   UNL     1       9.967  14.623  21.293  0.00  0.00    +0.277 C 
ENDBRANCH  22   4
ENDBRANCH  14  19
ENDBRANCH   7   5
BRANCH   8   1
ATOM      1  O   UNL     1      10.576   8.153  19.959  0.00  0.00    -0.387 OA
ATOM     27  H   UNL     1      10.833   7.360  20.460  0.00  0.00    +0.210 HD
ENDBRANCH   8   1
BRANCH  10   2
ATOM      2  O   UNL     1      12.358   6.266  19.060  0.00  0.00    -0.389 OA
ATOM     28  H   UNL     1      13.133   6.302  19.647  0.00  0.00    +0.210 HD
ENDBRANCH  10   2
TORSDOF 6
ENDMDL
MODEL 10
REMARK VINA RESULT:      -5.9     27.053     28.563
REMARK  Name = 75536059
REMARK  8 active torsions:
REMARK  status: ('A' for Active; 'I' for Inactive)
REMARK    1  A    between atoms: O_1  and  C_8
REMARK    2  A    between atoms: O_2  and  C_10
REMARK    3  A    between atoms: O_4  and  C_22
REMARK    4  A    between atoms: O_4  and  C_25
REMARK    5  A    between atoms: N_5  and  C_7
REMARK    6  A    between atoms: C_6  and  C_11
REMARK    7  A    between atoms: C_12  and  C_16
REMARK    8  A    between atoms: C_14  and  C_19
REMARK                            x       y       z     vdW  Elec       q    Type
REMARK                         _______ _______ _______ _____ _____    ______ ____
ROOT
ATOM      6  C   UNL     1      -4.382 -11.905  12.333  0.00  0.00    +0.045 C 
ATOM      7  C   UNL     1      -3.845 -11.600  13.749  0.00  0.00    +0.112 C 
ATOM      8  C   UNL     1      -3.120 -12.887  14.140  0.00  0.00    +0.164 C 
ATOM      9  C   UNL     1      -3.481 -13.036  11.773  0.00  0.00    +0.044 C 
ATOM     10  C   UNL     1      -2.428 -13.300  12.847  0.00  0.00    +0.145 C 
ENDROOT
BRANCH   6  11
ATOM     11  C   UNL     1      -4.462 -10.677  11.452  0.00  0.00    -0.039 A 
ATOM     12  C   UNL     1      -5.671 -10.005  11.264  0.00  0.00    -0.047 A 
ATOM     13  C   UNL     1      -3.304 -10.218  10.824  0.00  0.00    +0.004 A 
ATOM     15  C   UNL     1      -5.720  -8.876  10.447  0.00  0.00    +0.003 A 
ATOM     16  C   UNL     1      -6.923 -10.477  11.926  0.00  0.00    +0.044 C 
ATOM     17  C   UNL     1      -3.355  -9.088  10.007  0.00  0.00    +0.000 A 
ATOM     18  C   UNL     1      -4.564  -8.417   9.818  0.00  0.00    +0.000 A 
ENDBRANCH   6  11
BRANCH   7   5
ATOM      3  O   UNL     1      -3.560 -10.344  16.316  0.00  0.00    -0.270 OA
ATOM      5  N   UNL     1      -4.904 -11.277  14.671  0.00  0.00    -0.305 N 
ATOM     14  C   UNL     1      -4.668 -10.667  15.896  0.00  0.00    +0.244 C 
ATOM     26  H   UNL     1      -5.856 -11.425  14.351  0.00  0.00    +0.149 HD
BRANCH  14  19
ATOM     19  C   UNL     1      -5.865 -10.424  16.744  0.00  0.00    +0.040 A 
ATOM     20  C   UNL     1      -6.007 -11.096  17.957  0.00  0.00    +0.058 A 
ATOM     21  C   UNL     1      -6.845  -9.524  16.325  0.00  0.00    +0.013 A 
ATOM     22  C   UNL     1      -7.130 -10.868  18.753  0.00  0.00    +0.121 A 
ATOM     23  C   UNL     1      -7.968  -9.296  17.120  0.00  0.00    +0.004 A 
ATOM     24  C   UNL     1      -8.111  -9.967  18.334  0.00  0.00    +0.045 A 
BRANCH  22   4
ATOM      4  O   UNL     1      -7.269 -11.522  19.938  0.00  0.00    -0.495 OA
ATOM     25  C   UNL     1      -7.980 -12.759  19.916  0.00  0.00    +0.277 C 
ENDBRANCH  22   4
ENDBRANCH  14  19
ENDBRANCH   7   5
BRANCH   8   1
ATOM      1  O   UNL     1      -2.183 -12.680  15.179  0.00  0.00    -0.387 OA
ATOM     27  H   UNL     1      -2.388 -11.823  15.591  0.00  0.00    +0.210 HD
ENDBRANCH   8   1
BRANCH  10   2
ATOM      2  O   UNL     1      -1.295 -12.476  12.589  0.00  0.00    -0.389 OA
ATOM     28  H   UNL     1      -1.552 -11.557  12.780  0.00  0.00    +0.210 HD
ENDBRANCH  10   2
TORSDOF 6
ENDMDL
