MODEL 1
REMARK VINA RESULT:      -5.9      0.000      0.000
REMARK  Name = 71694393
REMARK  7 active torsions:
REMARK  status: ('A' for Active; 'I' for Inactive)
REMARK    1  A    between atoms: O_3  and  C_20
REMARK    2  A    between atoms: N_4  and  C_6
REMARK    3  A    between atoms: N_4  and  C_8
REMARK    4  A    between atoms: C_6  and  C_13
REMARK    5  A    between atoms: C_7  and  C_8
REMARK    6  A    between atoms: C_13  and  C_17
REMARK    7  A    between atoms: C_19  and  C_20
REMARK                            x       y       z     vdW  Elec       q    Type
REMARK                         _______ _______ _______ _____ _____    ______ ____
ROOT
ATOM      1  O   UNL     1      12.461   8.180   5.614  0.00  0.00    -0.376 OA
ATOM      6  C   UNL     1      11.152   6.602   5.013  0.00  0.00    +0.072 C 
ATOM     11  C   UNL     1      12.256   6.812   6.058  0.00  0.00    +0.184 C 
ATOM     12  C   UNL     1      11.641   7.940   4.441  0.00  0.00    +0.184 C 
ENDROOT
BRANCH   6   4
ATOM      4  N   UNL     1      11.567   5.529   4.102  0.00  0.00    -0.306 NA
ATOM     21  H   UNL     1      12.341   5.757   3.481  0.00  0.00    +0.123 HD
BRANCH   4   8
ATOM      8  C   UNL     1      10.419   5.074   3.334  0.00  0.00    +0.085 C 
BRANCH   8   7
ATOM      7  C   UNL     1      10.865   4.263   2.118  0.00  0.00    +0.003 C 
ATOM      9  C   UNL     1      10.443   4.960   0.817  0.00  0.00    +0.005 C 
ATOM     10  C   UNL     1      12.381   4.031   2.147  0.00  0.00    +0.005 C 
ATOM     14  C   UNL     1      10.924   4.194  -0.414  0.00  0.00    +0.000 C 
ATOM     15  C   UNL     1      12.859   3.269   0.914  0.00  0.00    +0.000 C 
ATOM     16  C   UNL     1      12.431   3.959  -0.376  0.00  0.00    +0.000 C 
ENDBRANCH   8   7
ENDBRANCH   4   8
ENDBRANCH   6   4
BRANCH   6  13
ATOM     13  C   UNL     1       9.719   6.479   5.465  0.00  0.00    +0.085 C 
BRANCH  13  17
ATOM      2  O   UNL     1       9.737   3.873   7.963  0.00  0.00    -0.357 OA
ATOM      5  N   UNL     1       9.911   4.333   6.664  0.00  0.00    -0.083 NA
ATOM     17  C   UNL     1       9.630   5.638   6.717  0.00  0.00    +0.086 A 
ATOM     18  C   UNL     1       9.275   6.054   8.011  0.00  0.00    +0.073 A 
ATOM     19  C   UNL     1       9.357   4.908   8.757  0.00  0.00    +0.163 A 
BRANCH  19  20
ATOM     20  C   UNL     1       9.127   4.597  10.173  0.00  0.00    +0.232 C 
BRANCH  20   3
ATOM      3  O   UNL     1      10.344   4.730  10.914  0.00  0.00    -0.387 OA
ATOM     22  H   UNL     1      10.643   3.829  11.128  0.00  0.00    +0.210 HD
ENDBRANCH  20   3
ENDBRANCH  19  20
ENDBRANCH  13  17
ENDBRANCH   6  13
TORSDOF 7
ENDMDL
MODEL 2
REMARK VINA RESULT:      -5.7     14.333     15.796
REMARK  Name = 71694393
REMARK  7 active torsions:
REMARK  status: ('A' for Active; 'I' for Inactive)
REMARK    1  A    between atoms: O_3  and  C_20
REMARK    2  A    between atoms: N_4  and  C_6
REMARK    3  A    between atoms: N_4  and  C_8
REMARK    4  A    between atoms: C_6  and  C_13
REMARK    5  A    between atoms: C_7  and  C_8
REMARK    6  A    between atoms: C_13  and  C_17
REMARK    7  A    between atoms: C_19  and  C_20
REMARK                            x       y       z     vdW  Elec       q    Type
REMARK                         _______ _______ _______ _____ _____    ______ ____
ROOT
ATOM      1  O   UNL     1      13.768  11.497  18.047  0.00  0.00    -0.376 OA
ATOM      6  C   UNL     1      13.904   9.389  18.370  0.00  0.00    +0.072 C 
ATOM     11  C   UNL     1      13.548  10.633  19.194  0.00  0.00    +0.184 C 
ATOM     12  C   UNL     1      14.382  10.401  17.320  0.00  0.00    +0.184 C 
ENDROOT
BRANCH   6   4
ATOM      4  N   UNL     1      15.082   8.752  18.970  0.00  0.00    -0.306 NA
ATOM     21  H   UNL     1      15.981   9.141  18.690  0.00  0.00    +0.123 HD
BRANCH   4   8
ATOM      8  C   UNL     1      15.046   7.321  18.708  0.00  0.00    +0.085 C 
BRANCH   8   7
ATOM      7  C   UNL     1      16.102   6.590  19.535  0.00  0.00    +0.003 C 
ATOM      9  C   UNL     1      17.136   5.917  18.621  0.00  0.00    +0.005 C 
ATOM     10  C   UNL     1      16.784   7.552  20.516  0.00  0.00    +0.005 C 
ATOM     14  C   UNL     1      18.232   5.223  19.427  0.00  0.00    +0.000 C 
ATOM     15  C   UNL     1      17.882   6.856  21.317  0.00  0.00    +0.000 C 
ATOM     16  C   UNL     1      18.902   6.181  20.407  0.00  0.00    +0.000 C 
ENDBRANCH   8   7
ENDBRANCH   4   8
ENDBRANCH   6   4
BRANCH   6  13
ATOM     13  C   UNL     1      12.819   8.410  18.003  0.00  0.00    +0.085 C 
BRANCH  13  17
ATOM      2  O   UNL     1      11.448   6.432  20.694  0.00  0.00    -0.357 OA
ATOM      5  N   UNL     1      12.141   6.569  19.497  0.00  0.00    -0.083 NA
ATOM     17  C   UNL     1      12.141   7.881  19.245  0.00  0.00    +0.086 A 
ATOM     18  C   UNL     1      11.469   8.615  20.238  0.00  0.00    +0.073 A 
ATOM     19  C   UNL     1      11.053   7.657  21.126  0.00  0.00    +0.163 A 
BRANCH  19  20
ATOM     20  C   UNL     1      10.302   7.697  22.387  0.00  0.00    +0.232 C 
BRANCH  20   3
ATOM      3  O   UNL     1       9.152   6.851  22.305  0.00  0.00    -0.387 OA
ATOM     22  H   UNL     1       8.978   6.524  23.204  0.00  0.00    +0.210 HD
ENDBRANCH  20   3
ENDBRANCH  19  20
ENDBRANCH  13  17
ENDBRANCH   6  13
TORSDOF 7
ENDMDL
MODEL 3
REMARK VINA RESULT:      -5.6     34.942     36.548
REMARK  Name = 71694393
REMARK  7 active torsions:
REMARK  status: ('A' for Active; 'I' for Inactive)
REMARK    1  A    between atoms: O_3  and  C_20
REMARK    2  A    between atoms: N_4  and  C_6
REMARK    3  A    between atoms: N_4  and  C_8
REMARK    4  A    between atoms: C_6  and  C_13
REMARK    5  A    between atoms: C_7  and  C_8
REMARK    6  A    between atoms: C_13  and  C_17
REMARK    7  A    between atoms: C_19  and  C_20
REMARK                            x       y       z     vdW  Elec       q    Type
REMARK                         _______ _______ _______ _____ _____    ______ ____
ROOT
ATOM      1  O   UNL     1     -15.970   5.686  33.230  0.00  0.00    -0.376 OA
ATOM      6  C   UNL     1     -15.382   4.156  31.860  0.00  0.00    +0.072 C 
ATOM     11  C   UNL     1     -15.501   5.686  31.855  0.00  0.00    +0.184 C 
ATOM     12  C   UNL     1     -16.147   4.246  33.187  0.00  0.00    +0.184 C 
ENDROOT
BRANCH   6   4
ATOM      4  N   UNL     1     -16.287   3.613  30.839  0.00  0.00    -0.306 NA
ATOM     21  H   UNL     1     -16.215   2.610  30.679  0.00  0.00    +0.123 HD
BRANCH   4   8
ATOM      8  C   UNL     1     -16.102   4.338  29.592  0.00  0.00    +0.085 C 
BRANCH   8   7
ATOM      7  C   UNL     1     -15.970   3.373  28.415  0.00  0.00    +0.003 C 
ATOM      9  C   UNL     1     -16.713   2.061  28.704  0.00  0.00    +0.005 C 
ATOM     10  C   UNL     1     -16.484   4.020  27.123  0.00  0.00    +0.005 C 
ATOM     14  C   UNL     1     -16.638   1.100  27.520  0.00  0.00    +0.000 C 
ATOM     15  C   UNL     1     -16.411   3.055  25.941  0.00  0.00    +0.000 C 
ATOM     16  C   UNL     1     -17.143   1.749  26.235  0.00  0.00    +0.000 C 
ENDBRANCH   8   7
ENDBRANCH   4   8
ENDBRANCH   6   4
BRANCH   6  13
ATOM     13  C   UNL     1     -14.016   3.520  31.843  0.00  0.00    +0.085 C 
BRANCH  13  17
ATOM      2  O   UNL     1     -14.735   0.019  31.328  0.00  0.00    -0.357 OA
ATOM      5  N   UNL     1     -14.881   1.217  32.017  0.00  0.00    -0.083 NA
ATOM     17  C   UNL     1     -14.104   2.088  31.367  0.00  0.00    +0.086 A 
ATOM     18  C   UNL     1     -13.448   1.503  30.271  0.00  0.00    +0.073 A 
ATOM     19  C   UNL     1     -13.879   0.202  30.289  0.00  0.00    +0.163 A 
BRANCH  19  20
ATOM     20  C   UNL     1     -13.608  -0.971  29.450  0.00  0.00    +0.232 C 
BRANCH  20   3
ATOM      3  O   UNL     1     -12.272  -1.436  29.662  0.00  0.00    -0.387 OA
ATOM     22  H   UNL     1     -11.907  -1.655  28.788  0.00  0.00    +0.210 HD
ENDBRANCH  20   3
ENDBRANCH  19  20
ENDBRANCH  13  17
ENDBRANCH   6  13
TORSDOF 7
ENDMDL
MODEL 4
REMARK VINA RESULT:      -5.5     13.005     16.879
REMARK  Name = 71694393
REMARK  7 active torsions:
REMARK  status: ('A' for Active; 'I' for Inactive)
REMARK    1  A    between atoms: O_3  and  C_20
REMARK    2  A    between atoms: N_4  and  C_6
REMARK    3  A    between atoms: N_4  and  C_8
REMARK    4  A    between atoms: C_6  and  C_13
REMARK    5  A    between atoms: C_7  and  C_8
REMARK    6  A    between atoms: C_13  and  C_17
REMARK    7  A    between atoms: C_19  and  C_20
REMARK                            x       y       z     vdW  Elec       q    Type
REMARK                         _______ _______ _______ _____ _____    ______ ____
ROOT
ATOM      1  O   UNL     1      14.037  10.176  21.005  0.00  0.00    -0.376 OA
ATOM      6  C   UNL     1      14.676   8.139  21.087  0.00  0.00    +0.072 C 
ATOM     11  C   UNL     1      13.878   9.105  21.973  0.00  0.00    +0.184 C 
ATOM     12  C   UNL     1      15.026   9.398  20.282  0.00  0.00    +0.184 C 
ENDROOT
BRANCH   6   4
ATOM      4  N   UNL     1      15.873   7.711  21.821  0.00  0.00    -0.306 NA
ATOM     21  H   UNL     1      16.520   8.455  22.076  0.00  0.00    +0.123 HD
BRANCH   4   8
ATOM      8  C   UNL     1      16.562   6.678  21.065  0.00  0.00    +0.085 C 
BRANCH   8   7
ATOM      7  C   UNL     1      18.051   6.656  21.405  0.00  0.00    +0.003 C 
ATOM      9  C   UNL     1      18.844   5.904  20.327  0.00  0.00    +0.005 C 
ATOM     10  C   UNL     1      18.588   8.083  21.583  0.00  0.00    +0.005 C 
ATOM     14  C   UNL     1      20.343   5.915  20.619  0.00  0.00    +0.000 C 
ATOM     15  C   UNL     1      20.087   8.090  21.872  0.00  0.00    +0.000 C 
ATOM     16  C   UNL     1      20.870   7.335  20.804  0.00  0.00    +0.000 C 
ENDBRANCH   8   7
ENDBRANCH   4   8
ENDBRANCH   6   4
BRANCH   6  13
ATOM     13  C   UNL     1      13.962   7.005  20.398  0.00  0.00    +0.085 C 
BRANCH  13  17
ATOM      2  O   UNL     1      10.904   8.185  18.885  0.00  0.00    -0.357 OA
ATOM      5  N   UNL     1      11.633   7.684  19.956  0.00  0.00    -0.083 NA
ATOM     17  C   UNL     1      12.877   7.536  19.491  0.00  0.00    +0.086 A 
ATOM     18  C   UNL     1      12.992   7.923  18.145  0.00  0.00    +0.073 A 
ATOM     19  C   UNL     1      11.725   8.324  17.811  0.00  0.00    +0.163 A 
BRANCH  19  20
ATOM     20  C   UNL     1      11.113   8.845  16.583  0.00  0.00    +0.232 C 
BRANCH  20   3
ATOM      3  O   UNL     1       9.998   8.035  16.201  0.00  0.00    -0.387 OA
ATOM     22  H   UNL     1       9.459   7.904  17.000  0.00  0.00    +0.210 HD
ENDBRANCH  20   3
ENDBRANCH  19  20
ENDBRANCH  13  17
ENDBRANCH   6  13
TORSDOF 7
ENDMDL
MODEL 5
REMARK VINA RESULT:      -5.3     15.433     17.685
REMARK  Name = 71694393
REMARK  7 active torsions:
REMARK  status: ('A' for Active; 'I' for Inactive)
REMARK    1  A    between atoms: O_3  and  C_20
REMARK    2  A    between atoms: N_4  and  C_6
REMARK    3  A    between atoms: N_4  and  C_8
REMARK    4  A    between atoms: C_6  and  C_13
REMARK    5  A    between atoms: C_7  and  C_8
REMARK    6  A    between atoms: C_13  and  C_17
REMARK    7  A    between atoms: C_19  and  C_20
REMARK                            x       y       z     vdW  Elec       q    Type
REMARK                         _______ _______ _______ _____ _____    ______ ____
ROOT
ATOM      1  O   UNL     1      11.501   6.687  20.449  0.00  0.00    -0.376 OA
ATOM      6  C   UNL     1      13.430   7.605  20.450  0.00  0.00    +0.072 C 
ATOM     11  C   UNL     1      12.542   6.853  19.450  0.00  0.00    +0.184 C 
ATOM     12  C   UNL     1      12.408   7.129  21.492  0.00  0.00    +0.184 C 
ENDROOT
BRANCH   6   4
ATOM      4  N   UNL     1      14.672   6.844  20.638  0.00  0.00    -0.306 NA
ATOM     21  H   UNL     1      14.722   6.292  21.492  0.00  0.00    +0.123 HD
BRANCH   4   8
ATOM      8  C   UNL     1      15.810   7.745  20.550  0.00  0.00    +0.085 C 
BRANCH   8   7
ATOM      7  C   UNL     1      17.100   7.033  20.954  0.00  0.00    +0.003 C 
ATOM      9  C   UNL     1      17.709   6.295  19.754  0.00  0.00    +0.005 C 
ATOM     10  C   UNL     1      18.104   8.027  21.552  0.00  0.00    +0.005 C 
ATOM     14  C   UNL     1      19.028   5.617  20.121  0.00  0.00    +0.000 C 
ATOM     15  C   UNL     1      19.422   7.347  21.914  0.00  0.00    +0.000 C 
ATOM     16  C   UNL     1      20.021   6.608  20.723  0.00  0.00    +0.000 C 
ENDBRANCH   8   7
ENDBRANCH   4   8
ENDBRANCH   6   4
BRANCH   6  13
ATOM     13  C   UNL     1      13.659   9.083  20.271  0.00  0.00    +0.085 C 
BRANCH  13  17
ATOM      2  O   UNL     1      11.099  10.941  22.012  0.00  0.00    -0.357 OA
ATOM      5  N   UNL     1      11.583  10.254  20.906  0.00  0.00    -0.083 NA
ATOM     17  C   UNL     1      12.817   9.872  21.247  0.00  0.00    +0.086 A 
ATOM     18  C   UNL     1      13.163  10.285  22.545  0.00  0.00    +0.073 A 
ATOM     19  C   UNL     1      12.049  10.953  22.983  0.00  0.00    +0.163 A 
BRANCH  19  20
ATOM     20  C   UNL     1      11.702  11.643  24.231  0.00  0.00    +0.232 C 
BRANCH  20   3
ATOM      3  O   UNL     1      11.610  10.705  25.307  0.00  0.00    -0.387 OA
ATOM     22  H   UNL     1      10.798  10.189  25.163  0.00  0.00    +0.210 HD
ENDBRANCH  20   3
ENDBRANCH  19  20
ENDBRANCH  13  17
ENDBRANCH   6  13
TORSDOF 7
ENDMDL
MODEL 6
REMARK VINA RESULT:      -5.3     12.842     16.310
REMARK  Name = 71694393
REMARK  7 active torsions:
REMARK  status: ('A' for Active; 'I' for Inactive)
REMARK    1  A    between atoms: O_3  and  C_20
REMARK    2  A    between atoms: N_4  and  C_6
REMARK    3  A    between atoms: N_4  and  C_8
REMARK    4  A    between atoms: C_6  and  C_13
REMARK    5  A    between atoms: C_7  and  C_8
REMARK    6  A    between atoms: C_13  and  C_17
REMARK    7  A    between atoms: C_19  and  C_20
REMARK                            x       y       z     vdW  Elec       q    Type
REMARK                         _______ _______ _______ _____ _____    ______ ____
ROOT
ATOM      1  O   UNL     1      10.568   7.868  21.023  0.00  0.00    -0.376 OA
ATOM      6  C   UNL     1      12.523   7.587  20.209  0.00  0.00    +0.072 C 
ATOM     11  C   UNL     1      11.513   6.765  21.020  0.00  0.00    +0.184 C 
ATOM     12  C   UNL     1      11.589   8.766  20.515  0.00  0.00    +0.184 C 
ENDROOT
BRANCH   6   4
ATOM      4  N   UNL     1      13.746   7.745  21.006  0.00  0.00    -0.306 NA
ATOM     21  H   UNL     1      14.197   8.655  20.939  0.00  0.00    +0.123 HD
BRANCH   4   8
ATOM      8  C   UNL     1      14.686   6.688  20.666  0.00  0.00    +0.085 C 
BRANCH   8   7
ATOM      7  C   UNL     1      16.097   7.248  20.498  0.00  0.00    +0.003 C 
ATOM      9  C   UNL     1      16.270   8.536  21.316  0.00  0.00    +0.005 C 
ATOM     10  C   UNL     1      17.147   6.203  20.896  0.00  0.00    +0.005 C 
ATOM     14  C   UNL     1      17.690   9.087  21.205  0.00  0.00    +0.000 C 
ATOM     15  C   UNL     1      18.565   6.758  20.787  0.00  0.00    +0.000 C 
ATOM     16  C   UNL     1      18.731   8.041  21.593  0.00  0.00    +0.000 C 
ENDBRANCH   8   7
ENDBRANCH   4   8
ENDBRANCH   6   4
BRANCH   6  13
ATOM     13  C   UNL     1      12.792   7.219  18.772  0.00  0.00    +0.085 C 
BRANCH  13  17
ATOM      2  O   UNL     1      14.344  10.234  17.531  0.00  0.00    -0.357 OA
ATOM      5  N   UNL     1      14.178   9.239  18.487  0.00  0.00    -0.083 NA
ATOM     17  C   UNL     1      13.235   8.434  17.989  0.00  0.00    +0.086 A 
ATOM     18  C   UNL     1      12.773   8.866  16.735  0.00  0.00    +0.073 A 
ATOM     19  C   UNL     1      13.502  10.000  16.491  0.00  0.00    +0.163 A 
BRANCH  19  20
ATOM     20  C   UNL     1      13.546  10.963  15.384  0.00  0.00    +0.232 C 
BRANCH  20   3
ATOM      3  O   UNL     1      12.481  10.709  14.463  0.00  0.00    -0.387 OA
ATOM     22  H   UNL     1      12.074  11.568  14.259  0.00  0.00    +0.210 HD
ENDBRANCH  20   3
ENDBRANCH  19  20
ENDBRANCH  13  17
ENDBRANCH   6  13
TORSDOF 7
ENDMDL
MODEL 7
REMARK VINA RESULT:      -5.3     14.063     17.316
REMARK  Name = 71694393
REMARK  7 active torsions:
REMARK  status: ('A' for Active; 'I' for Inactive)
REMARK    1  A    between atoms: O_3  and  C_20
REMARK    2  A    between atoms: N_4  and  C_6
REMARK    3  A    between atoms: N_4  and  C_8
REMARK    4  A    between atoms: C_6  and  C_13
REMARK    5  A    between atoms: C_7  and  C_8
REMARK    6  A    between atoms: C_13  and  C_17
REMARK    7  A    between atoms: C_19  and  C_20
REMARK                            x       y       z     vdW  Elec       q    Type
REMARK                         _______ _______ _______ _____ _____    ______ ____
ROOT
ATOM      1  O   UNL     1      10.958  12.253  23.459  0.00  0.00    -0.376 OA
ATOM      6  C   UNL     1      11.381  10.255  22.831  0.00  0.00    +0.072 C 
ATOM     11  C   UNL     1      11.067  10.979  24.147  0.00  0.00    +0.184 C 
ATOM     12  C   UNL     1      11.526  11.670  22.257  0.00  0.00    +0.184 C 
ENDROOT
BRANCH   6   4
ATOM      4  N   UNL     1      12.717   9.655  22.933  0.00  0.00    -0.306 NA
ATOM     21  H   UNL     1      13.078   9.549  23.880  0.00  0.00    +0.123 HD
BRANCH   4   8
ATOM      8  C   UNL     1      13.652  10.414  22.117  0.00  0.00    +0.085 C 
BRANCH   8   7
ATOM      7  C   UNL     1      14.748   9.506  21.561  0.00  0.00    +0.003 C 
ATOM      9  C   UNL     1      14.608   8.083  22.118  0.00  0.00    +0.005 C 
ATOM     10  C   UNL     1      14.720   9.499  20.027  0.00  0.00    +0.005 C 
ATOM     14  C   UNL     1      15.662   7.144  21.535  0.00  0.00    +0.000 C 
ATOM     15  C   UNL     1      15.773   8.557  19.448  0.00  0.00    +0.000 C 
ATOM     16  C   UNL     1      15.636   7.146  20.010  0.00  0.00    +0.000 C 
ENDBRANCH   8   7
ENDBRANCH   4   8
ENDBRANCH   6   4
BRANCH   6  13
ATOM     13  C   UNL     1      10.355   9.325  22.236  0.00  0.00    +0.085 C 
BRANCH  13  17
ATOM      2  O   UNL     1      11.865   6.699  20.271  0.00  0.00    -0.357 OA
ATOM      5  N   UNL     1      11.333   7.201  21.453  0.00  0.00    -0.083 NA
ATOM     17  C   UNL     1      10.982   8.458  21.169  0.00  0.00    +0.086 A 
ATOM     18  C   UNL     1      11.266   8.803  19.836  0.00  0.00    +0.073 A 
ATOM     19  C   UNL     1      11.820   7.663  19.315  0.00  0.00    +0.163 A 
BRANCH  19  20
ATOM     20  C   UNL     1      12.346   7.300  17.994  0.00  0.00    +0.232 C 
BRANCH  20   3
ATOM      3  O   UNL     1      11.294   7.295  17.025  0.00  0.00    -0.387 OA
ATOM     22  H   UNL     1      10.664   7.988  17.289  0.00  0.00    +0.210 HD
ENDBRANCH  20   3
ENDBRANCH  19  20
ENDBRANCH  13  17
ENDBRANCH   6  13
TORSDOF 7
ENDMDL
MODEL 8
REMARK VINA RESULT:      -5.3     35.744     37.714
REMARK  Name = 71694393
REMARK  7 active torsions:
REMARK  status: ('A' for Active; 'I' for Inactive)
REMARK    1  A    between atoms: O_3  and  C_20
REMARK    2  A    between atoms: N_4  and  C_6
REMARK    3  A    between atoms: N_4  and  C_8
REMARK    4  A    between atoms: C_6  and  C_13
REMARK    5  A    between atoms: C_7  and  C_8
REMARK    6  A    between atoms: C_13  and  C_17
REMARK    7  A    between atoms: C_19  and  C_20
REMARK                            x       y       z     vdW  Elec       q    Type
REMARK                         _______ _______ _______ _____ _____    ______ ____
ROOT
ATOM      1  O   UNL     1     -17.904   4.376  32.611  0.00  0.00    -0.376 OA
ATOM      6  C   UNL     1     -15.770   4.311  32.679  0.00  0.00    +0.072 C 
ATOM     11  C   UNL     1     -16.907   4.881  33.538  0.00  0.00    +0.184 C 
ATOM     12  C   UNL     1     -16.870   4.078  31.636  0.00  0.00    +0.184 C 
ENDROOT
BRANCH   6   4
ATOM      4  N   UNL     1     -14.926   5.422  32.223  0.00  0.00    -0.306 NA
ATOM     21  H   UNL     1     -14.568   5.339  31.273  0.00  0.00    +0.123 HD
BRANCH   4   8
ATOM      8  C   UNL     1     -13.832   5.618  33.161  0.00  0.00    +0.085 C 
BRANCH   8   7
ATOM      7  C   UNL     1     -13.618   7.103  33.445  0.00  0.00    +0.003 C 
ATOM      9  C   UNL     1     -13.167   7.318  34.897  0.00  0.00    +0.005 C 
ATOM     10  C   UNL     1     -12.604   7.703  32.463  0.00  0.00    +0.005 C 
ATOM     14  C   UNL     1     -12.896   8.792  35.190  0.00  0.00    +0.000 C 
ATOM     15  C   UNL     1     -12.333   9.176  32.761  0.00  0.00    +0.000 C 
ATOM     16  C   UNL     1     -11.893   9.387  34.206  0.00  0.00    +0.000 C 
ENDBRANCH   8   7
ENDBRANCH   4   8
ENDBRANCH   6   4
BRANCH   6  13
ATOM     13  C   UNL     1     -14.979   3.133  33.186  0.00  0.00    +0.085 C 
BRANCH  13  17
ATOM      2  O   UNL     1     -13.457   1.743  30.221  0.00  0.00    -0.357 OA
ATOM      5  N   UNL     1     -13.681   2.779  31.119  0.00  0.00    -0.083 NA
ATOM     17  C   UNL     1     -14.513   2.273  32.033  0.00  0.00    +0.086 A 
ATOM     18  C   UNL     1     -14.847   0.934  31.767  0.00  0.00    +0.073 A 
ATOM     19  C   UNL     1     -14.157   0.648  30.618  0.00  0.00    +0.163 A 
BRANCH  19  20
ATOM     20  C   UNL     1     -14.035  -0.548  29.776  0.00  0.00    +0.232 C 
BRANCH  20   3
ATOM      3  O   UNL     1     -12.702  -1.064  29.838  0.00  0.00    -0.387 OA
ATOM     22  H   UNL     1     -12.197  -0.472  30.422  0.00  0.00    +0.210 HD
ENDBRANCH  20   3
ENDBRANCH  19  20
ENDBRANCH  13  17
ENDBRANCH   6  13
TORSDOF 7
ENDMDL
MODEL 9
REMARK VINA RESULT:      -5.2      2.729      4.444
REMARK  Name = 71694393
REMARK  7 active torsions:
REMARK  status: ('A' for Active; 'I' for Inactive)
REMARK    1  A    between atoms: O_3  and  C_20
REMARK    2  A    between atoms: N_4  and  C_6
REMARK    3  A    between atoms: N_4  and  C_8
REMARK    4  A    between atoms: C_6  and  C_13
REMARK    5  A    between atoms: C_7  and  C_8
REMARK    6  A    between atoms: C_13  and  C_17
REMARK    7  A    between atoms: C_19  and  C_20
REMARK                            x       y       z     vdW  Elec       q    Type
REMARK                         _______ _______ _______ _____ _____    ______ ____
ROOT
ATOM      1  O   UNL     1      10.185   5.278   3.009  0.00  0.00    -0.376 OA
ATOM      6  C   UNL     1      11.026   6.281   4.698  0.00  0.00    +0.072 C 
ATOM     11  C   UNL     1      10.855   6.553   3.197  0.00  0.00    +0.184 C 
ATOM     12  C   UNL     1      10.576   4.858   4.342  0.00  0.00    +0.184 C 
ENDROOT
BRANCH   6   4
ATOM      4  N   UNL     1      12.461   6.250   5.007  0.00  0.00    -0.306 NA
ATOM     21  H   UNL     1      12.712   5.775   5.872  0.00  0.00    +0.123 HD
BRANCH   4   8
ATOM      8  C   UNL     1      12.987   7.606   5.003  0.00  0.00    +0.085 C 
BRANCH   8   7
ATOM      7  C   UNL     1      14.515   7.596   5.017  0.00  0.00    +0.003 C 
ATOM      9  C   UNL     1      15.073   8.044   3.659  0.00  0.00    +0.005 C 
ATOM     10  C   UNL     1      15.052   8.483   6.148  0.00  0.00    +0.005 C 
ATOM     14  C   UNL     1      16.599   8.092   3.666  0.00  0.00    +0.000 C 
ATOM     15  C   UNL     1      16.578   8.532   6.150  0.00  0.00    +0.000 C 
ATOM     16  C   UNL     1      17.129   8.968   4.797  0.00  0.00    +0.000 C 
ENDBRANCH   8   7
ENDBRANCH   4   8
ENDBRANCH   6   4
BRANCH   6  13
ATOM     13  C   UNL     1      10.220   7.078   5.691  0.00  0.00    +0.085 C 
BRANCH  13  17
ATOM      2  O   UNL     1      10.964   5.529   8.866  0.00  0.00    -0.357 OA
ATOM      5  N   UNL     1      11.339   6.175   7.694  0.00  0.00    -0.083 NA
ATOM     17  C   UNL     1      10.197   6.383   7.033  0.00  0.00    +0.086 A 
ATOM     18  C   UNL     1       9.080   5.894   7.731  0.00  0.00    +0.073 A 
ATOM     19  C   UNL     1       9.615   5.368   8.877  0.00  0.00    +0.163 A 
BRANCH  19  20
ATOM     20  C   UNL     1       9.045   4.698  10.052  0.00  0.00    +0.232 C 
BRANCH  20   3
ATOM      3  O   UNL     1      10.078   4.372  10.987  0.00  0.00    -0.387 OA
ATOM     22  H   UNL     1      10.809   4.994  10.828  0.00  0.00    +0.210 HD
ENDBRANCH  20   3
ENDBRANCH  19  20
ENDBRANCH  13  17
ENDBRANCH   6  13
TORSDOF 7
ENDMDL
MODEL 10
REMARK VINA RESULT:      -5.1     15.245     18.175
REMARK  Name = 71694393
REMARK  7 active torsions:
REMARK  status: ('A' for Active; 'I' for Inactive)
REMARK    1  A    between atoms: O_3  and  C_20
REMARK    2  A    between atoms: N_4  and  C_6
REMARK    3  A    between atoms: N_4  and  C_8
REMARK    4  A    between atoms: C_6  and  C_13
REMARK    5  A    between atoms: C_7  and  C_8
REMARK    6  A    between atoms: C_13  and  C_17
REMARK    7  A    between atoms: C_19  and  C_20
REMARK                            x       y       z     vdW  Elec       q    Type
REMARK                         _______ _______ _______ _____ _____    ______ ____
ROOT
ATOM      1  O   UNL     1      11.659   7.760  18.799  0.00  0.00    -0.376 OA
ATOM      6  C   UNL     1      12.679   8.410  20.560  0.00  0.00    +0.072 C 
ATOM     11  C   UNL     1      11.232   8.124  20.139  0.00  0.00    +0.184 C 
ATOM     12  C   UNL     1      12.986   8.287  19.061  0.00  0.00    +0.184 C 
ENDROOT
BRANCH   6   4
ATOM      4  N   UNL     1      12.785   9.824  20.941  0.00  0.00    -0.306 NA
ATOM     21  H   UNL     1      13.691  10.257  20.770  0.00  0.00    +0.123 HD
BRANCH   4   8
ATOM      8  C   UNL     1      12.404   9.980  22.336  0.00  0.00    +0.085 C 
BRANCH   8   7
ATOM      7  C   UNL     1      12.063  11.437  22.647  0.00  0.00    +0.003 C 
ATOM      9  C   UNL     1      11.621  12.173  21.375  0.00  0.00    +0.005 C 
ATOM     10  C   UNL     1      10.982  11.521  23.732  0.00  0.00    +0.005 C 
ATOM     14  C   UNL     1      11.225  13.619  21.670  0.00  0.00    +0.000 C 
ATOM     15  C   UNL     1      10.586  12.967  24.022  0.00  0.00    +0.000 C 
ATOM     16  C   UNL     1      10.155  13.698  22.756  0.00  0.00    +0.000 C 
ENDBRANCH   8   7
ENDBRANCH   4   8
ENDBRANCH   6   4
BRANCH   6  13
ATOM     13  C   UNL     1      13.366   7.480  21.527  0.00  0.00    +0.085 C 
BRANCH  13  17
ATOM      2  O   UNL     1      16.882   8.193  21.123  0.00  0.00    -0.357 OA
ATOM      5  N   UNL     1      15.580   8.562  21.437  0.00  0.00    -0.083 NA
ATOM     17  C   UNL     1      14.855   7.453  21.268  0.00  0.00    +0.086 A 
ATOM     18  C   UNL     1      15.637   6.363  20.851  0.00  0.00    +0.073 A 
ATOM     19  C   UNL     1      16.904   6.880  20.776  0.00  0.00    +0.163 A 
BRANCH  19  20
ATOM     20  C   UNL     1      18.211   6.321  20.411  0.00  0.00    +0.232 C 
BRANCH  20   3
ATOM      3  O   UNL     1      18.204   5.895  19.045  0.00  0.00    -0.387 OA
ATOM     22  H   UNL     1      17.429   5.317  18.934  0.00  0.00    +0.210 HD
ENDBRANCH  20   3
ENDBRANCH  19  20
ENDBRANCH  13  17
ENDBRANCH   6  13
TORSDOF 7
ENDMDL
