MODEL 1
REMARK VINA RESULT:      -7.6      0.000      0.000
REMARK  Name = 71693540
REMARK  10 active torsions:
REMARK  status: ('A' for Active; 'I' for Inactive)
REMARK    1  A    between atoms: O_2  and  C_11
REMARK    2  A    between atoms: O_5  and  C_28
REMARK    3  A    between atoms: O_5  and  C_29
REMARK    4  A    between atoms: N_6  and  C_12
REMARK    5  A    between atoms: N_7  and  C_16
REMARK    6  A    between atoms: N_8  and  C_21
REMARK    7  A    between atoms: C_9  and  C_11
REMARK    8  A    between atoms: C_10  and  C_13
REMARK    9  A    between atoms: C_12  and  C_16
REMARK   10  A    between atoms: C_22  and  C_23
REMARK                            x       y       z     vdW  Elec       q    Type
REMARK                         _______ _______ _______ _____ _____    ______ ____
ROOT
ATOM     13  C   UNL     1      16.189   7.332  19.677  0.00  0.00    -0.017 A 
ATOM     17  C   UNL     1      17.126   7.950  20.505  0.00  0.00    +0.008 A 
ATOM     18  C   UNL     1      16.494   6.116  19.065  0.00  0.00    +0.008 A 
ATOM     19  C   UNL     1      18.368   7.352  20.721  0.00  0.00    +0.023 A 
ATOM     20  C   UNL     1      17.735   5.518  19.281  0.00  0.00    +0.023 A 
ATOM     21  C   UNL     1      18.673   6.137  20.108  0.00  0.00    +0.034 A 
ENDROOT
BRANCH  13  10
ATOM      1  O   UNL     1      14.318   7.433  18.232  0.00  0.00    -0.361 OA
ATOM      3  O   UNL     1      10.929   8.514  18.428  0.00  0.00    -0.273 OA
ATOM      6  N   UNL     1      12.456   8.164  20.155  0.00  0.00    -0.290 N 
ATOM      9  C   UNL     1      13.812   7.723  20.562  0.00  0.00    +0.135 C 
ATOM     10  C   UNL     1      14.840   7.980  19.443  0.00  0.00    +0.171 C 
ATOM     14  C   UNL     1      12.075   8.275  18.817  0.00  0.00    +0.242 C 
ATOM     15  C   UNL     1      13.192   8.158  17.799  0.00  0.00    +0.256 C 
BRANCH   9  11
ATOM     11  C   UNL     1      14.271   8.369  21.877  0.00  0.00    +0.181 C 
BRANCH  11   2
ATOM      2  O   UNL     1      14.652   7.337  22.765  0.00  0.00    -0.393 OA
ATOM     30  H   UNL     1      14.493   6.494  22.311  0.00  0.00    +0.209 HD
ENDBRANCH  11   2
ENDBRANCH   9  11
BRANCH   6  12
ATOM     12  C   UNL     1      11.424   8.249  21.184  0.00  0.00    +0.123 C 
BRANCH  12  16
ATOM     16  C   UNL     1      10.916   6.868  21.572  0.00  0.00    +0.096 C 
BRANCH  16   7
ATOM      7  N   UNL     1       9.582   6.963  22.151  0.00  0.00    -0.328 NA
ATOM     31  H   UNL     1       9.380   6.112  22.675  0.00  0.00    +0.118 HD
ATOM     32  H   UNL     1       8.886   7.010  21.407  0.00  0.00    +0.118 HD
ENDBRANCH  16   7
ENDBRANCH  12  16
ENDBRANCH   6  12
ENDBRANCH  13  10
BRANCH  21   8
ATOM      4  O   UNL     1      20.283   5.867  22.624  0.00  0.00    -0.270 OA
ATOM      8  N   UNL     1      19.915   5.539  20.325  0.00  0.00    -0.282 N 
ATOM     22  C   UNL     1      20.628   5.440  21.527  0.00  0.00    +0.248 C 
ATOM     33  H   UNL     1      20.303   5.095  19.497  0.00  0.00    +0.155 HD
BRANCH  22  23
ATOM     23  C   UNL     1      21.922   4.712  21.441  0.00  0.00    +0.037 A 
ATOM     24  C   UNL     1      22.862   5.073  20.475  0.00  0.00    +0.016 A 
ATOM     25  C   UNL     1      22.195   3.669  22.325  0.00  0.00    +0.016 A 
ATOM     26  C   UNL     1      24.074   4.390  20.393  0.00  0.00    +0.046 A 
ATOM     27  C   UNL     1      23.408   2.986  22.243  0.00  0.00    +0.046 A 
ATOM     28  C   UNL     1      24.348   3.346  21.277  0.00  0.00    +0.120 A 
BRANCH  28   5
ATOM      5  O   UNL     1      25.531   2.678  21.196  0.00  0.00    -0.495 OA
ATOM     29  C   UNL     1      25.573   1.361  21.745  0.00  0.00    +0.277 C 
ENDBRANCH  28   5
ENDBRANCH  22  23
ENDBRANCH  21   8
TORSDOF 9
ENDMDL
MODEL 2
REMARK VINA RESULT:      -7.0      1.770      2.326
REMARK  Name = 71693540
REMARK  10 active torsions:
REMARK  status: ('A' for Active; 'I' for Inactive)
REMARK    1  A    between atoms: O_2  and  C_11
REMARK    2  A    between atoms: O_5  and  C_28
REMARK    3  A    between atoms: O_5  and  C_29
REMARK    4  A    between atoms: N_6  and  C_12
REMARK    5  A    between atoms: N_7  and  C_16
REMARK    6  A    between atoms: N_8  and  C_21
REMARK    7  A    between atoms: C_9  and  C_11
REMARK    8  A    between atoms: C_10  and  C_13
REMARK    9  A    between atoms: C_12  and  C_16
REMARK   10  A    between atoms: C_22  and  C_23
REMARK                            x       y       z     vdW  Elec       q    Type
REMARK                         _______ _______ _______ _____ _____    ______ ____
ROOT
ATOM     13  C   UNL     1      15.736   6.910  19.775  0.00  0.00    -0.017 A 
ATOM     17  C   UNL     1      16.329   6.252  18.698  0.00  0.00    +0.008 A 
ATOM     18  C   UNL     1      16.418   7.018  20.988  0.00  0.00    +0.008 A 
ATOM     19  C   UNL     1      17.603   5.701  18.834  0.00  0.00    +0.023 A 
ATOM     20  C   UNL     1      17.692   6.467  21.123  0.00  0.00    +0.023 A 
ATOM     21  C   UNL     1      18.284   5.808  20.045  0.00  0.00    +0.034 A 
ENDROOT
BRANCH  13  10
ATOM      1  O   UNL     1      13.452   6.663  20.346  0.00  0.00    -0.361 OA
ATOM      3  O   UNL     1      10.561   8.740  20.477  0.00  0.00    -0.273 OA
ATOM      6  N   UNL     1      12.797   9.358  20.252  0.00  0.00    -0.290 N 
ATOM      9  C   UNL     1      14.217   8.935  20.198  0.00  0.00    +0.135 C 
ATOM     10  C   UNL     1      14.353   7.509  19.629  0.00  0.00    +0.171 C 
ATOM     14  C   UNL     1      11.745   8.442  20.304  0.00  0.00    +0.242 C 
ATOM     15  C   UNL     1      12.116   6.994  20.055  0.00  0.00    +0.256 C 
BRANCH   9  11
ATOM     11  C   UNL     1      15.094   9.918  19.407  0.00  0.00    +0.181 C 
BRANCH  11   2
ATOM      2  O   UNL     1      16.028  10.491  20.299  0.00  0.00    -0.393 OA
ATOM     30  H   UNL     1      16.656   9.792  20.546  0.00  0.00    +0.209 HD
ENDBRANCH  11   2
ENDBRANCH   9  11
BRANCH   6  12
ATOM     12  C   UNL     1      12.509  10.768  20.501  0.00  0.00    +0.123 C 
BRANCH  12  16
ATOM     16  C   UNL     1      12.383  11.050  21.991  0.00  0.00    +0.096 C 
BRANCH  16   7
ATOM      7  N   UNL     1      10.983  11.227  22.357  0.00  0.00    -0.328 NA
ATOM     31  H   UNL     1      10.443  10.431  22.021  0.00  0.00    +0.118 HD
ATOM     32  H   UNL     1      10.606  12.047  21.883  0.00  0.00    +0.118 HD
ENDBRANCH  16   7
ENDBRANCH  12  16
ENDBRANCH   6  12
ENDBRANCH  13  10
BRANCH  21   8
ATOM      4  O   UNL     1      20.806   7.003  21.145  0.00  0.00    -0.270 OA
ATOM      8  N   UNL     1      19.560   5.258  20.181  0.00  0.00    -0.282 N 
ATOM     22  C   UNL     1      20.710   5.863  20.703  0.00  0.00    +0.248 C 
ATOM     33  H   UNL     1      19.616   4.285  19.893  0.00  0.00    +0.155 HD
BRANCH  22  23
ATOM     23  C   UNL     1      21.921   5.001  20.741  0.00  0.00    +0.037 A 
ATOM     24  C   UNL     1      21.812   3.662  21.120  0.00  0.00    +0.016 A 
ATOM     25  C   UNL     1      23.165   5.530  20.399  0.00  0.00    +0.016 A 
ATOM     26  C   UNL     1      22.949   2.854  21.158  0.00  0.00    +0.046 A 
ATOM     27  C   UNL     1      24.301   4.723  20.436  0.00  0.00    +0.046 A 
ATOM     28  C   UNL     1      24.193   3.385  20.816  0.00  0.00    +0.120 A 
BRANCH  28   5
ATOM      5  O   UNL     1      25.301   2.596  20.853  0.00  0.00    -0.495 OA
ATOM     29  C   UNL     1      26.518   3.161  20.364  0.00  0.00    +0.277 C 
ENDBRANCH  28   5
ENDBRANCH  22  23
ENDBRANCH  21   8
TORSDOF 9
ENDMDL
MODEL 3
REMARK VINA RESULT:      -6.6      1.794      2.382
REMARK  Name = 71693540
REMARK  10 active torsions:
REMARK  status: ('A' for Active; 'I' for Inactive)
REMARK    1  A    between atoms: O_2  and  C_11
REMARK    2  A    between atoms: O_5  and  C_28
REMARK    3  A    between atoms: O_5  and  C_29
REMARK    4  A    between atoms: N_6  and  C_12
REMARK    5  A    between atoms: N_7  and  C_16
REMARK    6  A    between atoms: N_8  and  C_21
REMARK    7  A    between atoms: C_9  and  C_11
REMARK    8  A    between atoms: C_10  and  C_13
REMARK    9  A    between atoms: C_12  and  C_16
REMARK   10  A    between atoms: C_22  and  C_23
REMARK                            x       y       z     vdW  Elec       q    Type
REMARK                         _______ _______ _______ _____ _____    ______ ____
ROOT
ATOM     13  C   UNL     1      16.978   8.272  20.782  0.00  0.00    -0.017 A 
ATOM     17  C   UNL     1      17.050   7.074  20.072  0.00  0.00    +0.008 A 
ATOM     18  C   UNL     1      18.029   8.651  21.618  0.00  0.00    +0.008 A 
ATOM     19  C   UNL     1      18.172   6.255  20.197  0.00  0.00    +0.023 A 
ATOM     20  C   UNL     1      19.151   7.833  21.743  0.00  0.00    +0.023 A 
ATOM     21  C   UNL     1      19.222   6.634  21.032  0.00  0.00    +0.034 A 
ENDROOT
BRANCH  13  10
ATOM      1  O   UNL     1      16.082  10.168  19.684  0.00  0.00    -0.361 OA
ATOM      3  O   UNL     1      12.850  11.516  19.035  0.00  0.00    -0.273 OA
ATOM      6  N   UNL     1      13.421   9.394  19.812  0.00  0.00    -0.290 N 
ATOM      9  C   UNL     1      14.493   8.432  20.163  0.00  0.00    +0.135 C 
ATOM     10  C   UNL     1      15.760   9.162  20.647  0.00  0.00    +0.171 C 
ATOM     14  C   UNL     1      13.689  10.716  19.455  0.00  0.00    +0.242 C 
ATOM     15  C   UNL     1      15.112  11.187  19.682  0.00  0.00    +0.256 C 
BRANCH   9  11
ATOM     11  C   UNL     1      14.037   7.395  21.201  0.00  0.00    +0.181 C 
BRANCH  11   2
ATOM      2  O   UNL     1      13.753   6.189  20.522  0.00  0.00    -0.393 OA
ATOM     30  H   UNL     1      13.758   5.478  21.185  0.00  0.00    +0.209 HD
ENDBRANCH  11   2
ENDBRANCH   9  11
BRANCH   6  12
ATOM     12  C   UNL     1      12.072   8.873  19.602  0.00  0.00    +0.123 C 
BRANCH  12  16
ATOM     16  C   UNL     1      11.852   8.486  18.147  0.00  0.00    +0.096 C 
BRANCH  16   7
ATOM      7  N   UNL     1      12.075   7.058  17.963  0.00  0.00    -0.328 NA
ATOM     31  H   UNL     1      11.205   6.614  17.673  0.00  0.00    +0.118 HD
ATOM     32  H   UNL     1      12.328   6.632  18.855  0.00  0.00    +0.118 HD
ENDBRANCH  16   7
ENDBRANCH  12  16
ENDBRANCH   6  12
ENDBRANCH  13  10
BRANCH  21   8
ATOM      4  O   UNL     1      20.819   5.890  23.459  0.00  0.00    -0.270 OA
ATOM      8  N   UNL     1      20.345   5.815  21.157  0.00  0.00    -0.282 N 
ATOM     22  C   UNL     1      21.058   5.499  22.321  0.00  0.00    +0.248 C 
ATOM     33  H   UNL     1      20.631   5.378  20.285  0.00  0.00    +0.155 HD
BRANCH  22  23
ATOM     23  C   UNL     1      22.202   4.568  22.134  0.00  0.00    +0.037 A 
ATOM     24  C   UNL     1      23.381   4.759  22.855  0.00  0.00    +0.016 A 
ATOM     25  C   UNL     1      22.097   3.505  21.238  0.00  0.00    +0.016 A 
ATOM     26  C   UNL     1      24.456   3.888  22.679  0.00  0.00    +0.046 A 
ATOM     27  C   UNL     1      23.172   2.633  21.061  0.00  0.00    +0.046 A 
ATOM     28  C   UNL     1      24.351   2.825  21.781  0.00  0.00    +0.120 A 
BRANCH  28   5
ATOM      5  O   UNL     1      25.400   1.975  21.608  0.00  0.00    -0.495 OA
ATOM     29  C   UNL     1      25.172   0.595  21.896  0.00  0.00    +0.277 C 
ENDBRANCH  28   5
ENDBRANCH  22  23
ENDBRANCH  21   8
TORSDOF 9
ENDMDL
MODEL 4
REMARK VINA RESULT:      -6.4      2.445     10.618
REMARK  Name = 71693540
REMARK  10 active torsions:
REMARK  status: ('A' for Active; 'I' for Inactive)
REMARK    1  A    between atoms: O_2  and  C_11
REMARK    2  A    between atoms: O_5  and  C_28
REMARK    3  A    between atoms: O_5  and  C_29
REMARK    4  A    between atoms: N_6  and  C_12
REMARK    5  A    between atoms: N_7  and  C_16
REMARK    6  A    between atoms: N_8  and  C_21
REMARK    7  A    between atoms: C_9  and  C_11
REMARK    8  A    between atoms: C_10  and  C_13
REMARK    9  A    between atoms: C_12  and  C_16
REMARK   10  A    between atoms: C_22  and  C_23
REMARK                            x       y       z     vdW  Elec       q    Type
REMARK                         _______ _______ _______ _____ _____    ______ ____
ROOT
ATOM     13  C   UNL     1      20.219   5.822  21.404  0.00  0.00    -0.017 A 
ATOM     17  C   UNL     1      19.713   5.199  20.263  0.00  0.00    +0.008 A 
ATOM     18  C   UNL     1      19.477   6.817  22.042  0.00  0.00    +0.008 A 
ATOM     19  C   UNL     1      18.465   5.569  19.762  0.00  0.00    +0.023 A 
ATOM     20  C   UNL     1      18.229   7.187  21.541  0.00  0.00    +0.023 A 
ATOM     21  C   UNL     1      17.724   6.563  20.400  0.00  0.00    +0.034 A 
ENDROOT
BRANCH  13  10
ATOM      1  O   UNL     1      21.480   4.047  22.330  0.00  0.00    -0.361 OA
ATOM      3  O   UNL     1      24.924   3.252  22.771  0.00  0.00    -0.273 OA
ATOM      6  N   UNL     1      23.964   4.915  21.450  0.00  0.00    -0.290 N 
ATOM      9  C   UNL     1      22.728   5.556  20.940  0.00  0.00    +0.135 C 
ATOM     10  C   UNL     1      21.573   5.420  21.950  0.00  0.00    +0.171 C 
ATOM     14  C   UNL     1      23.940   3.901  22.408  0.00  0.00    +0.242 C 
ATOM     15  C   UNL     1      22.605   3.658  23.082  0.00  0.00    +0.256 C 
BRANCH   9  11
ATOM     11  C   UNL     1      22.943   7.029  20.559  0.00  0.00    +0.181 C 
BRANCH  11   2
ATOM      2  O   UNL     1      23.083   7.776  21.750  0.00  0.00    -0.393 OA
ATOM     30  H   UNL     1      22.188   7.995  22.058  0.00  0.00    +0.209 HD
ENDBRANCH  11   2
ENDBRANCH   9  11
BRANCH   6  12
ATOM     12  C   UNL     1      25.218   5.187  20.751  0.00  0.00    +0.123 C 
BRANCH  12  16
ATOM     16  C   UNL     1      25.395   4.262  19.556  0.00  0.00    +0.096 C 
BRANCH  16   7
ATOM      7  N   UNL     1      26.322   3.185  19.882  0.00  0.00    -0.328 NA
ATOM     31  H   UNL     1      26.396   2.551  19.087  0.00  0.00    +0.118 HD
ATOM     32  H   UNL     1      25.949   2.632  20.653  0.00  0.00    +0.118 HD
ENDBRANCH  16   7
ENDBRANCH  12  16
ENDBRANCH   6  12
ENDBRANCH  13  10
BRANCH  21   8
ATOM      4  O   UNL     1      16.407   9.254  20.268  0.00  0.00    -0.270 OA
ATOM      8  N   UNL     1      16.475   6.933  19.898  0.00  0.00    -0.282 N 
ATOM     22  C   UNL     1      15.904   8.212  19.861  0.00  0.00    +0.248 C 
ATOM     33  H   UNL     1      15.959   6.164  19.480  0.00  0.00    +0.155 HD
BRANCH  22  23
ATOM     23  C   UNL     1      14.559   8.291  19.232  0.00  0.00    +0.037 A 
ATOM     24  C   UNL     1      14.153   9.468  18.602  0.00  0.00    +0.016 A 
ATOM     25  C   UNL     1      13.704   7.190  19.273  0.00  0.00    +0.016 A 
ATOM     26  C   UNL     1      12.890   9.543  18.014  0.00  0.00    +0.046 A 
ATOM     27  C   UNL     1      12.442   7.265  18.685  0.00  0.00    +0.046 A 
ATOM     28  C   UNL     1      12.035   8.442  18.055  0.00  0.00    +0.120 A 
BRANCH  28   5
ATOM      5  O   UNL     1      10.803   8.516  17.482  0.00  0.00    -0.495 OA
ATOM     29  C   UNL     1      10.751   8.857  16.097  0.00  0.00    +0.277 C 
ENDBRANCH  28   5
ENDBRANCH  22  23
ENDBRANCH  21   8
TORSDOF 9
ENDMDL
MODEL 5
REMARK VINA RESULT:      -6.2     33.140     34.636
REMARK  Name = 71693540
REMARK  10 active torsions:
REMARK  status: ('A' for Active; 'I' for Inactive)
REMARK    1  A    between atoms: O_2  and  C_11
REMARK    2  A    between atoms: O_5  and  C_28
REMARK    3  A    between atoms: O_5  and  C_29
REMARK    4  A    between atoms: N_6  and  C_12
REMARK    5  A    between atoms: N_7  and  C_16
REMARK    6  A    between atoms: N_8  and  C_21
REMARK    7  A    between atoms: C_9  and  C_11
REMARK    8  A    between atoms: C_10  and  C_13
REMARK    9  A    between atoms: C_12  and  C_16
REMARK   10  A    between atoms: C_22  and  C_23
REMARK                            x       y       z     vdW  Elec       q    Type
REMARK                         _______ _______ _______ _____ _____    ______ ____
ROOT
ATOM     13  C   UNL     1     -15.103   4.434  32.543  0.00  0.00    -0.017 A 
ATOM     17  C   UNL     1     -15.750   4.956  33.663  0.00  0.00    +0.008 A 
ATOM     18  C   UNL     1     -13.927   5.026  32.079  0.00  0.00    +0.008 A 
ATOM     19  C   UNL     1     -15.222   6.068  34.319  0.00  0.00    +0.023 A 
ATOM     20  C   UNL     1     -13.400   6.138  32.734  0.00  0.00    +0.023 A 
ATOM     21  C   UNL     1     -14.048   6.659  33.854  0.00  0.00    +0.034 A 
ENDROOT
BRANCH  13  10
ATOM      1  O   UNL     1     -16.085   3.660  30.534  0.00  0.00    -0.361 OA
ATOM      3  O   UNL     1     -16.586   0.525  28.919  0.00  0.00    -0.273 OA
ATOM      6  N   UNL     1     -15.214   1.033  30.733  0.00  0.00    -0.290 N 
ATOM      9  C   UNL     1     -14.674   2.068  31.649  0.00  0.00    +0.135 C 
ATOM     10  C   UNL     1     -15.674   3.226  31.831  0.00  0.00    +0.171 C 
ATOM     14  C   UNL     1     -16.196   1.314  29.782  0.00  0.00    +0.242 C 
ATOM     15  C   UNL     1     -16.859   2.672  29.898  0.00  0.00    +0.256 C 
BRANCH   9  11
ATOM     11  C   UNL     1     -14.261   1.490  33.011  0.00  0.00    +0.181 C 
BRANCH  11   2
ATOM      2  O   UNL     1     -15.376   1.560  33.875  0.00  0.00    -0.393 OA
ATOM     30  H   UNL     1     -15.150   1.061  34.677  0.00  0.00    +0.209 HD
ENDBRANCH  11   2
ENDBRANCH   9  11
BRANCH   6  12
ATOM     12  C   UNL     1     -14.524  -0.252  30.666  0.00  0.00    +0.123 C 
BRANCH  12  16
ATOM     16  C   UNL     1     -13.271  -0.161  29.808  0.00  0.00    +0.096 C 
BRANCH  16   7
ATOM      7  N   UNL     1     -12.771  -1.494  29.497  0.00  0.00    -0.328 NA
ATOM     31  H   UNL     1     -13.485  -2.014  28.989  0.00  0.00    +0.118 HD
ATOM     32  H   UNL     1     -12.606  -2.009  30.362  0.00  0.00    +0.118 HD
ENDBRANCH  16   7
ENDBRANCH  12  16
ENDBRANCH   6  12
ENDBRANCH  13  10
BRANCH  21   8
ATOM      4  O   UNL     1     -12.588   6.858  36.466  0.00  0.00    -0.270 OA
ATOM      8  N   UNL     1     -13.520   7.772  34.510  0.00  0.00    -0.282 N 
ATOM     22  C   UNL     1     -12.843   7.811  35.737  0.00  0.00    +0.248 C 
ATOM     33  H   UNL     1     -13.620   8.639  33.989  0.00  0.00    +0.155 HD
BRANCH  22  23
ATOM     23  C   UNL     1     -12.372   9.155  36.162  0.00  0.00    +0.037 A 
ATOM     24  C   UNL     1     -11.471   9.862  35.364  0.00  0.00    +0.016 A 
ATOM     25  C   UNL     1     -12.829   9.709  37.357  0.00  0.00    +0.016 A 
ATOM     26  C   UNL     1     -11.028  11.123  35.763  0.00  0.00    +0.046 A 
ATOM     27  C   UNL     1     -12.386  10.969  37.756  0.00  0.00    +0.046 A 
ATOM     28  C   UNL     1     -11.485  11.676  36.960  0.00  0.00    +0.120 A 
BRANCH  28   5
ATOM      5  O   UNL     1     -11.051  12.906  37.349  0.00  0.00    -0.495 OA
ATOM     29  C   UNL     1      -9.831  13.376  36.777  0.00  0.00    +0.277 C 
ENDBRANCH  28   5
ENDBRANCH  22  23
ENDBRANCH  21   8
TORSDOF 9
ENDMDL
MODEL 6
REMARK VINA RESULT:      -6.1     22.931     29.053
REMARK  Name = 71693540
REMARK  10 active torsions:
REMARK  status: ('A' for Active; 'I' for Inactive)
REMARK    1  A    between atoms: O_2  and  C_11
REMARK    2  A    between atoms: O_5  and  C_28
REMARK    3  A    between atoms: O_5  and  C_29
REMARK    4  A    between atoms: N_6  and  C_12
REMARK    5  A    between atoms: N_7  and  C_16
REMARK    6  A    between atoms: N_8  and  C_21
REMARK    7  A    between atoms: C_9  and  C_11
REMARK    8  A    between atoms: C_10  and  C_13
REMARK    9  A    between atoms: C_12  and  C_16
REMARK   10  A    between atoms: C_22  and  C_23
REMARK                            x       y       z     vdW  Elec       q    Type
REMARK                         _______ _______ _______ _____ _____    ______ ____
ROOT
ATOM     13  C   UNL     1      -3.191   8.824   4.541  0.00  0.00    -0.017 A 
ATOM     17  C   UNL     1      -3.403   7.586   5.146  0.00  0.00    +0.008 A 
ATOM     18  C   UNL     1      -4.262   9.515   3.973  0.00  0.00    +0.008 A 
ATOM     19  C   UNL     1      -4.685   7.038   5.183  0.00  0.00    +0.023 A 
ATOM     20  C   UNL     1      -5.544   8.967   4.010  0.00  0.00    +0.023 A 
ATOM     21  C   UNL     1      -5.755   7.728   4.615  0.00  0.00    +0.034 A 
ENDROOT
BRANCH  13  10
ATOM      1  O   UNL     1      -1.493   9.675   3.129  0.00  0.00    -0.361 OA
ATOM      3  O   UNL     1       1.383  11.750   3.471  0.00  0.00    -0.273 OA
ATOM      6  N   UNL     1      -0.355  11.397   4.984  0.00  0.00    -0.290 N 
ATOM      9  C   UNL     1      -1.656  10.746   5.272  0.00  0.00    +0.135 C 
ATOM     10  C   UNL     1      -1.799   9.421   4.500  0.00  0.00    +0.171 C 
ATOM     14  C   UNL     1       0.365  11.145   3.815  0.00  0.00    +0.242 C 
ATOM     15  C   UNL     1      -0.130   9.988   2.970  0.00  0.00    +0.256 C 
BRANCH   9  11
ATOM     11  C   UNL     1      -1.883  10.524   6.775  0.00  0.00    +0.181 C 
BRANCH  11   2
ATOM      2  O   UNL     1      -0.983   9.527   7.213  0.00  0.00    -0.393 OA
ATOM     30  H   UNL     1      -1.422   9.037   7.928  0.00  0.00    +0.209 HD
ENDBRANCH  11   2
ENDBRANCH   9  11
BRANCH   6  12
ATOM     12  C   UNL     1       0.060  12.510   5.834  0.00  0.00    +0.123 C 
BRANCH  12  16
ATOM     16  C   UNL     1       1.358  12.193   6.562  0.00  0.00    +0.096 C 
BRANCH  16   7
ATOM      7  N   UNL     1       1.085  11.817   7.943  0.00  0.00    -0.328 NA
ATOM     31  H   UNL     1       1.508  12.500   8.570  0.00  0.00    +0.118 HD
ATOM     32  H   UNL     1       1.534  10.925   8.151  0.00  0.00    +0.118 HD
ENDBRANCH  16   7
ENDBRANCH  12  16
ENDBRANCH   6  12
ENDBRANCH  13  10
BRANCH  21   8
ATOM      4  O   UNL     1      -8.101   8.402   6.358  0.00  0.00    -0.270 OA
ATOM      8  N   UNL     1      -7.038   7.180   4.653  0.00  0.00    -0.282 N 
ATOM     22  C   UNL     1      -8.103   7.533   5.492  0.00  0.00    +0.248 C 
ATOM     33  H   UNL     1      -7.199   6.468   3.946  0.00  0.00    +0.155 HD
BRANCH  22  23
ATOM     23  C   UNL     1      -9.365   6.779   5.270  0.00  0.00    +0.037 A 
ATOM     24  C   UNL     1     -10.579   7.306   5.714  0.00  0.00    +0.016 A 
ATOM     25  C   UNL     1      -9.336   5.546   4.620  0.00  0.00    +0.016 A 
ATOM     26  C   UNL     1     -11.763   6.598   5.508  0.00  0.00    +0.046 A 
ATOM     27  C   UNL     1     -10.520   4.838   4.414  0.00  0.00    +0.046 A 
ATOM     28  C   UNL     1     -11.733   5.364   4.858  0.00  0.00    +0.120 A 
BRANCH  28   5
ATOM      5  O   UNL     1     -12.889   4.673   4.657  0.00  0.00    -0.495 OA
ATOM     29  C   UNL     1     -13.810   4.618   5.747  0.00  0.00    +0.277 C 
ENDBRANCH  28   5
ENDBRANCH  22  23
ENDBRANCH  21   8
TORSDOF 9
ENDMDL
MODEL 7
REMARK VINA RESULT:      -6.1     18.235     21.887
REMARK  Name = 71693540
REMARK  10 active torsions:
REMARK  status: ('A' for Active; 'I' for Inactive)
REMARK    1  A    between atoms: O_2  and  C_11
REMARK    2  A    between atoms: O_5  and  C_28
REMARK    3  A    between atoms: O_5  and  C_29
REMARK    4  A    between atoms: N_6  and  C_12
REMARK    5  A    between atoms: N_7  and  C_16
REMARK    6  A    between atoms: N_8  and  C_21
REMARK    7  A    between atoms: C_9  and  C_11
REMARK    8  A    between atoms: C_10  and  C_13
REMARK    9  A    between atoms: C_12  and  C_16
REMARK   10  A    between atoms: C_22  and  C_23
REMARK                            x       y       z     vdW  Elec       q    Type
REMARK                         _______ _______ _______ _____ _____    ______ ____
ROOT
ATOM     13  C   UNL     1      11.506   4.002  -0.460  0.00  0.00    -0.017 A 
ATOM     17  C   UNL     1      12.463   3.501   0.423  0.00  0.00    +0.008 A 
ATOM     18  C   UNL     1      10.377   4.656   0.034  0.00  0.00    +0.008 A 
ATOM     19  C   UNL     1      12.290   3.653   1.799  0.00  0.00    +0.023 A 
ATOM     20  C   UNL     1      10.204   4.808   1.409  0.00  0.00    +0.023 A 
ATOM     21  C   UNL     1      11.161   4.305   2.292  0.00  0.00    +0.034 A 
ENDROOT
BRANCH  13  10
ATOM      1  O   UNL     1      10.489   3.268  -2.466  0.00  0.00    -0.361 OA
ATOM      3  O   UNL     1      10.954   3.778  -5.961  0.00  0.00    -0.273 OA
ATOM      6  N   UNL     1      11.873   4.961  -4.175  0.00  0.00    -0.290 N 
ATOM      9  C   UNL     1      11.952   5.158  -2.707  0.00  0.00    +0.135 C 
ATOM     10  C   UNL     1      11.693   3.839  -1.954  0.00  0.00    +0.171 C 
ATOM     14  C   UNL     1      11.154   3.913  -4.752  0.00  0.00    +0.242 C 
ATOM     15  C   UNL     1      10.663   2.844  -3.797  0.00  0.00    +0.256 C 
BRANCH   9  11
ATOM     11  C   UNL     1      13.286   5.780  -2.268  0.00  0.00    +0.181 C 
BRANCH  11   2
ATOM      2  O   UNL     1      14.294   4.800  -2.404  0.00  0.00    -0.393 OA
ATOM     30  H   UNL     1      14.805   4.796  -1.578  0.00  0.00    +0.209 HD
ENDBRANCH  11   2
ENDBRANCH   9  11
BRANCH   6  12
ATOM     12  C   UNL     1      12.359   6.033  -5.039  0.00  0.00    +0.123 C 
BRANCH  12  16
ATOM     16  C   UNL     1      11.307   7.118  -5.217  0.00  0.00    +0.096 C 
BRANCH  16   7
ATOM      7  N   UNL     1      10.637   6.967  -6.503  0.00  0.00    -0.328 NA
ATOM     31  H   UNL     1      10.648   7.859  -6.996  0.00  0.00    +0.118 HD
ATOM     32  H   UNL     1       9.655   6.737  -6.353  0.00  0.00    +0.118 HD
ENDBRANCH  16   7
ENDBRANCH  12  16
ENDBRANCH   6  12
ENDBRANCH  13  10
BRANCH  21   8
ATOM      4  O   UNL     1      10.755   6.782   3.933  0.00  0.00    -0.270 OA
ATOM      8  N   UNL     1      10.988   4.458   3.668  0.00  0.00    -0.282 N 
ATOM     22  C   UNL     1      10.802   5.645   4.389  0.00  0.00    +0.248 C 
ATOM     33  H   UNL     1      10.958   3.578   4.176  0.00  0.00    +0.155 HD
BRANCH  22  23
ATOM     23  C   UNL     1      10.616   5.477   5.854  0.00  0.00    +0.037 A 
ATOM     24  C   UNL     1       9.900   4.385   6.346  0.00  0.00    +0.016 A 
ATOM     25  C   UNL     1      11.157   6.411   6.737  0.00  0.00    +0.016 A 
ATOM     26  C   UNL     1       9.724   4.229   7.720  0.00  0.00    +0.046 A 
ATOM     27  C   UNL     1      10.981   6.255   8.112  0.00  0.00    +0.046 A 
ATOM     28  C   UNL     1      10.265   5.164   8.603  0.00  0.00    +0.120 A 
BRANCH  28   5
ATOM      5  O   UNL     1      10.092   5.011   9.945  0.00  0.00    -0.495 OA
ATOM     29  C   UNL     1       8.780   4.679  10.398  0.00  0.00    +0.277 C 
ENDBRANCH  28   5
ENDBRANCH  22  23
ENDBRANCH  21   8
TORSDOF 9
ENDMDL
MODEL 8
REMARK VINA RESULT:      -6.0     27.319     31.409
REMARK  Name = 71693540
REMARK  10 active torsions:
REMARK  status: ('A' for Active; 'I' for Inactive)
REMARK    1  A    between atoms: O_2  and  C_11
REMARK    2  A    between atoms: O_5  and  C_28
REMARK    3  A    between atoms: O_5  and  C_29
REMARK    4  A    between atoms: N_6  and  C_12
REMARK    5  A    between atoms: N_7  and  C_16
REMARK    6  A    between atoms: N_8  and  C_21
REMARK    7  A    between atoms: C_9  and  C_11
REMARK    8  A    between atoms: C_10  and  C_13
REMARK    9  A    between atoms: C_12  and  C_16
REMARK   10  A    between atoms: C_22  and  C_23
REMARK                            x       y       z     vdW  Elec       q    Type
REMARK                         _______ _______ _______ _____ _____    ______ ____
ROOT
ATOM     13  C   UNL     1      -4.622 -10.515  11.182  0.00  0.00    -0.017 A 
ATOM     17  C   UNL     1      -5.418 -11.391  10.444  0.00  0.00    +0.008 A 
ATOM     18  C   UNL     1      -4.457  -9.197  10.757  0.00  0.00    +0.008 A 
ATOM     19  C   UNL     1      -6.050 -10.949   9.282  0.00  0.00    +0.023 A 
ATOM     20  C   UNL     1      -5.089  -8.754   9.594  0.00  0.00    +0.023 A 
ATOM     21  C   UNL     1      -5.884  -9.631   8.857  0.00  0.00    +0.034 A 
ENDROOT
BRANCH  13  10
ATOM      1  O   UNL     1      -2.550 -10.679  12.313  0.00  0.00    -0.361 OA
ATOM      3  O   UNL     1      -1.443 -11.171  15.663  0.00  0.00    -0.273 OA
ATOM      6  N   UNL     1      -3.579 -10.650  14.890  0.00  0.00    -0.290 N 
ATOM      9  C   UNL     1      -4.453 -10.330  13.736  0.00  0.00    +0.135 C 
ATOM     10  C   UNL     1      -3.937 -10.994  12.445  0.00  0.00    +0.171 C 
ATOM     14  C   UNL     1      -2.242 -11.018  14.737  0.00  0.00    +0.242 C 
ATOM     15  C   UNL     1      -1.796 -11.313  13.319  0.00  0.00    +0.256 C 
BRANCH   9  11
ATOM     11  C   UNL     1      -5.921 -10.706  13.987  0.00  0.00    +0.181 C 
BRANCH  11   2
ATOM      2  O   UNL     1      -6.691  -9.521  13.957  0.00  0.00    -0.393 OA
ATOM     30  H   UNL     1      -7.623  -9.785  13.893  0.00  0.00    +0.209 HD
ENDBRANCH  11   2
ENDBRANCH   9  11
BRANCH   6  12
ATOM     12  C   UNL     1      -4.068 -10.336  16.230  0.00  0.00    +0.123 C 
BRANCH  12  16
ATOM     16  C   UNL     1      -4.401 -11.601  17.007  0.00  0.00    +0.096 C 
BRANCH  16   7
ATOM      7  N   UNL     1      -3.424 -11.818  18.066  0.00  0.00    -0.328 NA
ATOM     31  H   UNL     1      -3.153 -12.800  18.080  0.00  0.00    +0.118 HD
ATOM     32  H   UNL     1      -3.851 -11.627  18.972  0.00  0.00    +0.118 HD
ENDBRANCH  16   7
ENDBRANCH  12  16
ENDBRANCH   6  12
ENDBRANCH  13  10
BRANCH  21   8
ATOM      4  O   UNL     1      -8.198  -7.757   8.500  0.00  0.00    -0.270 OA
ATOM      8  N   UNL     1      -6.516  -9.189   7.694  0.00  0.00    -0.282 N 
ATOM     22  C   UNL     1      -7.600  -8.308   7.582  0.00  0.00    +0.248 C 
ATOM     33  H   UNL     1      -6.088  -9.535   6.840  0.00  0.00    +0.155 HD
BRANCH  22  23
ATOM     23  C   UNL     1      -8.033  -8.005   6.192  0.00  0.00    +0.037 A 
ATOM     24  C   UNL     1      -9.238  -7.337   5.968  0.00  0.00    +0.016 A 
ATOM     25  C   UNL     1      -7.237  -8.388   5.114  0.00  0.00    +0.016 A 
ATOM     26  C   UNL     1      -9.646  -7.054   4.665  0.00  0.00    +0.046 A 
ATOM     27  C   UNL     1      -7.645  -8.105   3.811  0.00  0.00    +0.046 A 
ATOM     28  C   UNL     1      -8.849  -7.438   3.586  0.00  0.00    +0.120 A 
BRANCH  28   5
ATOM      5  O   UNL     1      -9.247  -7.162   2.314  0.00  0.00    -0.495 OA
ATOM     29  C   UNL     1      -9.975  -5.951   2.110  0.00  0.00    +0.277 C 
ENDBRANCH  28   5
ENDBRANCH  22  23
ENDBRANCH  21   8
TORSDOF 9
ENDMDL
MODEL 9
REMARK VINA RESULT:      -5.9     20.126     22.722
REMARK  Name = 71693540
REMARK  10 active torsions:
REMARK  status: ('A' for Active; 'I' for Inactive)
REMARK    1  A    between atoms: O_2  and  C_11
REMARK    2  A    between atoms: O_5  and  C_28
REMARK    3  A    between atoms: O_5  and  C_29
REMARK    4  A    between atoms: N_6  and  C_12
REMARK    5  A    between atoms: N_7  and  C_16
REMARK    6  A    between atoms: N_8  and  C_21
REMARK    7  A    between atoms: C_9  and  C_11
REMARK    8  A    between atoms: C_10  and  C_13
REMARK    9  A    between atoms: C_12  and  C_16
REMARK   10  A    between atoms: C_22  and  C_23
REMARK                            x       y       z     vdW  Elec       q    Type
REMARK                         _______ _______ _______ _____ _____    ______ ____
ROOT
ATOM     13  C   UNL     1       7.531  -6.970  33.934  0.00  0.00    -0.017 A 
ATOM     17  C   UNL     1       6.621  -6.926  32.878  0.00  0.00    +0.008 A 
ATOM     18  C   UNL     1       8.391  -8.061  34.068  0.00  0.00    +0.008 A 
ATOM     19  C   UNL     1       6.572  -7.971  31.955  0.00  0.00    +0.023 A 
ATOM     20  C   UNL     1       8.341  -9.106  33.145  0.00  0.00    +0.023 A 
ATOM     21  C   UNL     1       7.431  -9.060  32.089  0.00  0.00    +0.034 A 
ENDROOT
BRANCH  13  10
ATOM      1  O   UNL     1       7.062  -6.338  36.166  0.00  0.00    -0.361 OA
ATOM      3  O   UNL     1       8.075  -3.765  38.412  0.00  0.00    -0.273 OA
ATOM      6  N   UNL     1       9.016  -4.378  36.369  0.00  0.00    -0.290 N 
ATOM      9  C   UNL     1       9.005  -5.300  35.208  0.00  0.00    +0.135 C 
ATOM     10  C   UNL     1       7.586  -5.836  34.936  0.00  0.00    +0.171 C 
ATOM     14  C   UNL     1       8.041  -4.420  37.367  0.00  0.00    +0.242 C 
ATOM     15  C   UNL     1       6.835  -5.290  37.078  0.00  0.00    +0.256 C 
BRANCH   9  11
ATOM     11  C   UNL     1       9.593  -4.659  33.942  0.00  0.00    +0.181 C 
BRANCH  11   2
ATOM      2  O   UNL     1       8.657  -3.722  33.448  0.00  0.00    -0.393 OA
ATOM     30  H   UNL     1       8.831  -2.878  33.896  0.00  0.00    +0.209 HD
ENDBRANCH  11   2
ENDBRANCH   9  11
BRANCH   6  12
ATOM     12  C   UNL     1      10.212  -3.571  36.594  0.00  0.00    +0.123 C 
BRANCH  12  16
ATOM     16  C   UNL     1      11.294  -4.374  37.302  0.00  0.00    +0.096 C 
BRANCH  16   7
ATOM      7  N   UNL     1      12.379  -4.685  36.381  0.00  0.00    -0.328 NA
ATOM     31  H   UNL     1      12.417  -5.693  36.231  0.00  0.00    +0.118 HD
ATOM     32  H   UNL     1      13.271  -4.426  36.801  0.00  0.00    +0.118 HD
ENDBRANCH  16   7
ENDBRANCH  12  16
ENDBRANCH   6  12
ENDBRANCH  13  10
BRANCH  21   8
ATOM      4  O   UNL     1       6.151 -11.765  32.289  0.00  0.00    -0.270 OA
ATOM      8  N   UNL     1       7.382 -10.106  31.166  0.00  0.00    -0.282 N 
ATOM     22  C   UNL     1       6.767 -11.357  31.310  0.00  0.00    +0.248 C 
ATOM     33  H   UNL     1       7.820  -9.885  30.276  0.00  0.00    +0.155 HD
BRANCH  22  23
ATOM     23  C   UNL     1       6.864 -12.253  30.128  0.00  0.00    +0.037 A 
ATOM     24  C   UNL     1       7.853 -12.036  29.168  0.00  0.00    +0.016 A 
ATOM     25  C   UNL     1       5.966 -13.310  29.979  0.00  0.00    +0.016 A 
ATOM     26  C   UNL     1       7.942 -12.876  28.058  0.00  0.00    +0.046 A 
ATOM     27  C   UNL     1       6.056 -14.149  28.869  0.00  0.00    +0.046 A 
ATOM     28  C   UNL     1       7.044 -13.932  27.908  0.00  0.00    +0.120 A 
BRANCH  28   5
ATOM      5  O   UNL     1       7.132 -14.751  26.825  0.00  0.00    -0.495 OA
ATOM     29  C   UNL     1       5.973 -15.516  26.493  0.00  0.00    +0.277 C 
ENDBRANCH  28   5
ENDBRANCH  22  23
ENDBRANCH  21   8
TORSDOF 9
ENDMDL
MODEL 10
REMARK VINA RESULT:      -5.9      7.540     10.032
REMARK  Name = 71693540
REMARK  10 active torsions:
REMARK  status: ('A' for Active; 'I' for Inactive)
REMARK    1  A    between atoms: O_2  and  C_11
REMARK    2  A    between atoms: O_5  and  C_28
REMARK    3  A    between atoms: O_5  and  C_29
REMARK    4  A    between atoms: N_6  and  C_12
REMARK    5  A    between atoms: N_7  and  C_16
REMARK    6  A    between atoms: N_8  and  C_21
REMARK    7  A    between atoms: C_9  and  C_11
REMARK    8  A    between atoms: C_10  and  C_13
REMARK    9  A    between atoms: C_12  and  C_16
REMARK   10  A    between atoms: C_22  and  C_23
REMARK                            x       y       z     vdW  Elec       q    Type
REMARK                         _______ _______ _______ _____ _____    ______ ____
ROOT
ATOM     13  C   UNL     1      13.738  10.352  17.939  0.00  0.00    -0.017 A 
ATOM     17  C   UNL     1      14.897  11.115  17.803  0.00  0.00    +0.008 A 
ATOM     18  C   UNL     1      13.047   9.925  16.804  0.00  0.00    +0.008 A 
ATOM     19  C   UNL     1      15.366  11.451  16.533  0.00  0.00    +0.023 A 
ATOM     20  C   UNL     1      13.516  10.261  15.534  0.00  0.00    +0.023 A 
ATOM     21  C   UNL     1      14.676  11.025  15.400  0.00  0.00    +0.034 A 
ENDROOT
BRANCH  13  10
ATOM      1  O   UNL     1      12.638  11.161  19.872  0.00  0.00    -0.361 OA
ATOM      3  O   UNL     1      10.886   9.773  22.646  0.00  0.00    -0.273 OA
ATOM      6  N   UNL     1      11.531   8.741  20.658  0.00  0.00    -0.290 N 
ATOM      9  C   UNL     1      12.164   8.872  19.323  0.00  0.00    +0.135 C 
ATOM     10  C   UNL     1      13.229   9.985  19.317  0.00  0.00    +0.171 C 
ATOM     14  C   UNL     1      11.505   9.789  21.579  0.00  0.00    +0.242 C 
ATOM     15  C   UNL     1      12.369  10.988  21.242  0.00  0.00    +0.256 C 
BRANCH   9  11
ATOM     11  C   UNL     1      12.762   7.548  18.823  0.00  0.00    +0.181 C 
BRANCH  11   2
ATOM      2  O   UNL     1      11.905   7.025  17.829  0.00  0.00    -0.393 OA
ATOM     30  H   UNL     1      11.909   7.652  17.087  0.00  0.00    +0.209 HD
ENDBRANCH  11   2
ENDBRANCH   9  11
BRANCH   6  12
ATOM     12  C   UNL     1      10.707   7.564  20.915  0.00  0.00    +0.123 C 
BRANCH  12  16
ATOM     16  C   UNL     1      11.509   6.467  21.600  0.00  0.00    +0.096 C 
BRANCH  16   7
ATOM      7  N   UNL     1      11.003   5.155  21.218  0.00  0.00    -0.328 NA
ATOM     31  H   UNL     1      11.728   4.455  21.370  0.00  0.00    +0.118 HD
ATOM     32  H   UNL     1      10.800   5.142  20.219  0.00  0.00    +0.118 HD
ENDBRANCH  16   7
ENDBRANCH  12  16
ENDBRANCH   6  12
ENDBRANCH  13  10
BRANCH  21   8
ATOM      4  O   UNL     1      13.600  12.971  13.387  0.00  0.00    -0.270 OA
ATOM      8  N   UNL     1      15.145  11.361  14.129  0.00  0.00    -0.282 N 
ATOM     22  C   UNL     1      14.602  12.282  13.224  0.00  0.00    +0.248 C 
ATOM     33  H   UNL     1      16.011  10.893  13.877  0.00  0.00    +0.155 HD
BRANCH  22  23
ATOM     23  C   UNL     1      15.353  12.442  11.950  0.00  0.00    +0.037 A 
ATOM     24  C   UNL     1      16.721  12.169  11.909  0.00  0.00    +0.016 A 
ATOM     25  C   UNL     1      14.691  12.866  10.798  0.00  0.00    +0.016 A 
ATOM     26  C   UNL     1      17.426  12.321  10.716  0.00  0.00    +0.046 A 
ATOM     27  C   UNL     1      15.396  13.017   9.605  0.00  0.00    +0.046 A 
ATOM     28  C   UNL     1      16.763  12.745   9.564  0.00  0.00    +0.120 A 
BRANCH  28   5
ATOM      5  O   UNL     1      17.452  12.894   8.399  0.00  0.00    -0.495 OA
ATOM     29  C   UNL     1      18.876  12.927   8.486  0.00  0.00    +0.277 C 
ENDBRANCH  28   5
ENDBRANCH  22  23
ENDBRANCH  21   8
TORSDOF 9
ENDMDL
