MODEL 1
REMARK VINA RESULT:      -6.7      0.000      0.000
REMARK  Name = 11883371
REMARK  9 active torsions:
REMARK  status: ('A' for Active; 'I' for Inactive)
REMARK    1  A    between atoms: O_4  and  C_14
REMARK    2  A    between atoms: O_4  and  C_18
REMARK    3  A    between atoms: O_7  and  C_26
REMARK    4  A    between atoms: O_7  and  C_29
REMARK    5  A    between atoms: O_8  and  C_27
REMARK    6  A    between atoms: O_8  and  C_30
REMARK    7  A    between atoms: N_9  and  C_13
REMARK    8  A    between atoms: N_10  and  C_21
REMARK    9  A    between atoms: C_17  and  C_19
REMARK                            x       y       z     vdW  Elec       q    Type
REMARK                         _______ _______ _______ _____ _____    ______ ____
ROOT
ATOM      2  O   UNL     1      21.453   6.402  20.288  0.00  0.00    -0.368 OA
ATOM      3  O   UNL     1      20.478   6.668  23.183  0.00  0.00    -0.368 OA
ATOM     11  C   UNL     1      21.094   5.570  22.479  0.00  0.00    +0.173 C 
ATOM     12  C   UNL     1      20.552   5.594  21.064  0.00  0.00    +0.192 C 
ATOM     13  C   UNL     1      22.573   5.828  22.305  0.00  0.00    +0.130 C 
ATOM     14  C   UNL     1      19.211   6.265  21.242  0.00  0.00    +0.235 C 
ATOM     15  C   UNL     1      22.599   6.734  21.085  0.00  0.00    +0.185 C 
ATOM     16  C   UNL     1      19.500   7.277  22.327  0.00  0.00    +0.207 C 
ENDROOT
BRANCH  13   9
ATOM      5  O   UNL     1      23.821   4.235  24.270  0.00  0.00    -0.270 OA
ATOM      9  N   UNL     1      23.294   4.603  22.064  0.00  0.00    -0.303 N 
ATOM     17  C   UNL     1      23.884   3.871  23.094  0.00  0.00    +0.251 C 
ATOM     31  H   UNL     1      23.395   4.301  21.101  0.00  0.00    +0.149 HD
BRANCH  17  19
ATOM      1  S   UNL     1      26.115   2.285  23.309  0.00  0.00    -0.092 S 
ATOM     19  C   UNL     1      24.554   2.626  22.694  0.00  0.00    +0.074 A 
ATOM     20  C   UNL     1      24.101   1.631  21.855  0.00  0.00    +0.021 A 
ATOM     22  C   UNL     1      25.048   0.577  21.714  0.00  0.00    +0.008 A 
ATOM     23  C   UNL     1      26.189   0.804  22.452  0.00  0.00    +0.046 A 
ENDBRANCH  17  19
ENDBRANCH  13   9
BRANCH  14   4
ATOM      4  O   UNL     1      18.726   6.873  20.066  0.00  0.00    -0.442 OA
BRANCH   4  18
ATOM      6  O   UNL     1      17.344   5.440  18.942  0.00  0.00    -0.226 OA
ATOM     10  N   UNL     1      16.520   7.344  20.024  0.00  0.00    -0.251 N 
ATOM     18  C   UNL     1      17.493   6.455  19.610  0.00  0.00    +0.405 C 
ATOM     32  H   UNL     1      16.843   8.136  20.577  0.00  0.00    +0.158 HD
BRANCH  10  21
ATOM     21  C   UNL     1      15.130   7.292  19.776  0.00  0.00    +0.043 A 
ATOM     24  C   UNL     1      14.249   6.965  20.807  0.00  0.00    +0.069 A 
ATOM     25  C   UNL     1      14.638   7.568  18.500  0.00  0.00    +0.069 A 
ATOM     26  C   UNL     1      13.266   7.517  18.256  0.00  0.00    +0.125 A 
ATOM     27  C   UNL     1      12.876   6.914  20.563  0.00  0.00    +0.125 A 
ATOM     28  C   UNL     1      12.385   7.190  19.287  0.00  0.00    +0.091 A 
BRANCH  26   7
ATOM      7  O   UNL     1      12.786   7.785  17.010  0.00  0.00    -0.495 OA
ATOM     29  C   UNL     1      12.028   8.983  16.851  0.00  0.00    +0.277 C 
ENDBRANCH  26   7
BRANCH  27   8
ATOM      8  O   UNL     1      12.017   6.595  21.568  0.00  0.00    -0.495 OA
ATOM     30  C   UNL     1      10.744   7.238  21.564  0.00  0.00    +0.277 C 
ENDBRANCH  27   8
ENDBRANCH  10  21
ENDBRANCH   4  18
ENDBRANCH  14   4
TORSDOF 7
ENDMDL
MODEL 2
REMARK VINA RESULT:      -6.6      0.834      2.249
REMARK  Name = 11883371
REMARK  9 active torsions:
REMARK  status: ('A' for Active; 'I' for Inactive)
REMARK    1  A    between atoms: O_4  and  C_14
REMARK    2  A    between atoms: O_4  and  C_18
REMARK    3  A    between atoms: O_7  and  C_26
REMARK    4  A    between atoms: O_7  and  C_29
REMARK    5  A    between atoms: O_8  and  C_27
REMARK    6  A    between atoms: O_8  and  C_30
REMARK    7  A    between atoms: N_9  and  C_13
REMARK    8  A    between atoms: N_10  and  C_21
REMARK    9  A    between atoms: C_17  and  C_19
REMARK                            x       y       z     vdW  Elec       q    Type
REMARK                         _______ _______ _______ _____ _____    ______ ____
ROOT
ATOM      2  O   UNL     1      21.096   6.373  20.213  0.00  0.00    -0.368 OA
ATOM      3  O   UNL     1      20.066   7.114  23.005  0.00  0.00    -0.368 OA
ATOM     11  C   UNL     1      20.667   5.904  22.497  0.00  0.00    +0.173 C 
ATOM     12  C   UNL     1      20.156   5.719  21.082  0.00  0.00    +0.192 C 
ATOM     13  C   UNL     1      22.155   6.096  22.324  0.00  0.00    +0.130 C 
ATOM     14  C   UNL     1      18.831   6.443  21.117  0.00  0.00    +0.235 C 
ATOM     15  C   UNL     1      22.234   6.799  20.978  0.00  0.00    +0.185 C 
ATOM     16  C   UNL     1      19.125   7.604  22.039  0.00  0.00    +0.207 C 
ENDROOT
BRANCH  13   9
ATOM      5  O   UNL     1      22.413   4.310  24.491  0.00  0.00    -0.270 OA
ATOM      9  N   UNL     1      22.846   4.830  22.295  0.00  0.00    -0.303 N 
ATOM     17  C   UNL     1      22.928   4.002  23.414  0.00  0.00    +0.251 C 
ATOM     31  H   UNL     1      23.314   4.571  21.433  0.00  0.00    +0.149 HD
BRANCH  17  19
ATOM      1  S   UNL     1      23.783   1.646  24.538  0.00  0.00    -0.092 S 
ATOM     19  C   UNL     1      23.636   2.729  23.219  0.00  0.00    +0.074 A 
ATOM     20  C   UNL     1      24.236   2.239  22.080  0.00  0.00    +0.021 A 
ATOM     22  C   UNL     1      24.824   0.959  22.291  0.00  0.00    +0.008 A 
ATOM     23  C   UNL     1      24.651   0.519  23.585  0.00  0.00    +0.046 A 
ENDBRANCH  17  19
ENDBRANCH  13   9
BRANCH  14   4
ATOM      4  O   UNL     1      18.389   6.870  19.849  0.00  0.00    -0.442 OA
BRANCH   4  18
ATOM      6  O   UNL     1      16.958   5.421  18.810  0.00  0.00    -0.226 OA
ATOM     10  N   UNL     1      16.186   7.354  19.881  0.00  0.00    -0.251 N 
ATOM     18  C   UNL     1      17.137   6.450  19.449  0.00  0.00    +0.405 C 
ATOM     32  H   UNL     1      16.534   8.155  20.404  0.00  0.00    +0.158 HD
BRANCH  10  21
ATOM     21  C   UNL     1      14.787   7.305  19.687  0.00  0.00    +0.043 A 
ATOM     24  C   UNL     1      14.240   7.656  18.453  0.00  0.00    +0.069 A 
ATOM     25  C   UNL     1      13.952   6.904  20.731  0.00  0.00    +0.069 A 
ATOM     26  C   UNL     1      12.571   6.854  20.539  0.00  0.00    +0.125 A 
ATOM     27  C   UNL     1      12.859   7.606  18.261  0.00  0.00    +0.125 A 
ATOM     28  C   UNL     1      12.025   7.205  19.305  0.00  0.00    +0.091 A 
BRANCH  26   7
ATOM      7  O   UNL     1      11.757   6.465  21.558  0.00  0.00    -0.495 OA
ATOM     29  C   UNL     1      10.611   7.274  21.818  0.00  0.00    +0.277 C 
ENDBRANCH  26   7
BRANCH  27   8
ATOM      8  O   UNL     1      12.326   7.949  17.057  0.00  0.00    -0.495 OA
ATOM     30  C   UNL     1      12.700   9.215  16.518  0.00  0.00    +0.277 C 
ENDBRANCH  27   8
ENDBRANCH  10  21
ENDBRANCH   4  18
ENDBRANCH  14   4
TORSDOF 7
ENDMDL
MODEL 3
REMARK VINA RESULT:      -6.5     31.075     34.410
REMARK  Name = 11883371
REMARK  9 active torsions:
REMARK  status: ('A' for Active; 'I' for Inactive)
REMARK    1  A    between atoms: O_4  and  C_14
REMARK    2  A    between atoms: O_4  and  C_18
REMARK    3  A    between atoms: O_7  and  C_26
REMARK    4  A    between atoms: O_7  and  C_29
REMARK    5  A    between atoms: O_8  and  C_27
REMARK    6  A    between atoms: O_8  and  C_30
REMARK    7  A    between atoms: N_9  and  C_13
REMARK    8  A    between atoms: N_10  and  C_21
REMARK    9  A    between atoms: C_17  and  C_19
REMARK                            x       y       z     vdW  Elec       q    Type
REMARK                         _______ _______ _______ _____ _____    ______ ____
ROOT
ATOM      2  O   UNL     1     -16.511   4.698  25.422  0.00  0.00    -0.368 OA
ATOM      3  O   UNL     1     -17.045   2.095  23.892  0.00  0.00    -0.368 OA
ATOM     11  C   UNL     1     -16.240   2.371  25.057  0.00  0.00    +0.173 C 
ATOM     12  C   UNL     1     -15.613   3.735  24.845  0.00  0.00    +0.192 C 
ATOM     13  C   UNL     1     -17.124   2.562  26.266  0.00  0.00    +0.130 C 
ATOM     14  C   UNL     1     -15.569   3.843  23.340  0.00  0.00    +0.235 C 
ATOM     15  C   UNL     1     -17.560   4.011  26.121  0.00  0.00    +0.185 C 
ATOM     16  C   UNL     1     -16.845   3.142  22.931  0.00  0.00    +0.207 C 
ENDROOT
BRANCH  13   9
ATOM      5  O   UNL     1     -17.476   0.414  28.059  0.00  0.00    -0.270 OA
ATOM      9  N   UNL     1     -16.389   2.356  27.490  0.00  0.00    -0.303 N 
ATOM     17  C   UNL     1     -16.624   1.263  28.324  0.00  0.00    +0.251 C 
ATOM     31  H   UNL     1     -15.709   3.062  27.753  0.00  0.00    +0.149 HD
BRANCH  17  19
ATOM      1  S   UNL     1     -14.820   2.523  29.967  0.00  0.00    -0.092 S 
ATOM     19  C   UNL     1     -15.771   1.172  29.518  0.00  0.00    +0.074 A 
ATOM     20  C   UNL     1     -15.604   0.113  30.383  0.00  0.00    +0.021 A 
ATOM     22  C   UNL     1     -14.684   0.414  31.427  0.00  0.00    +0.008 A 
ATOM     23  C   UNL     1     -14.182   1.693  31.321  0.00  0.00    +0.046 A 
ENDBRANCH  17  19
ENDBRANCH  13   9
BRANCH  14   4
ATOM      4  O   UNL     1     -15.521   5.172  22.872  0.00  0.00    -0.442 OA
BRANCH   4  18
ATOM      6  O   UNL     1     -13.263   4.997  22.557  0.00  0.00    -0.226 OA
ATOM     10  N   UNL     1     -14.467   6.858  21.807  0.00  0.00    -0.251 N 
ATOM     18  C   UNL     1     -14.302   5.629  22.416  0.00  0.00    +0.405 C 
ATOM     32  H   UNL     1     -15.416   7.225  21.787  0.00  0.00    +0.158 HD
BRANCH  10  21
ATOM     21  C   UNL     1     -13.480   7.672  21.207  0.00  0.00    +0.043 A 
ATOM     24  C   UNL     1     -12.751   7.197  20.117  0.00  0.00    +0.069 A 
ATOM     25  C   UNL     1     -13.235   8.953  21.704  0.00  0.00    +0.069 A 
ATOM     26  C   UNL     1     -12.262   9.757  21.111  0.00  0.00    +0.125 A 
ATOM     27  C   UNL     1     -11.777   8.000  19.524  0.00  0.00    +0.125 A 
ATOM     28  C   UNL     1     -11.533   9.280  20.021  0.00  0.00    +0.091 A 
BRANCH  26   7
ATOM      7  O   UNL     1     -12.022  11.005  21.596  0.00  0.00    -0.495 OA
ATOM     29  C   UNL     1     -12.365  11.249  22.959  0.00  0.00    +0.277 C 
ENDBRANCH  26   7
BRANCH  27   8
ATOM      8  O   UNL     1     -11.066   7.536  18.461  0.00  0.00    -0.495 OA
ATOM     30  C   UNL     1     -11.091   8.320  17.269  0.00  0.00    +0.277 C 
ENDBRANCH  27   8
ENDBRANCH  10  21
ENDBRANCH   4  18
ENDBRANCH  14   4
TORSDOF 7
ENDMDL
MODEL 4
REMARK VINA RESULT:      -6.5     27.920     30.599
REMARK  Name = 11883371
REMARK  9 active torsions:
REMARK  status: ('A' for Active; 'I' for Inactive)
REMARK    1  A    between atoms: O_4  and  C_14
REMARK    2  A    between atoms: O_4  and  C_18
REMARK    3  A    between atoms: O_7  and  C_26
REMARK    4  A    between atoms: O_7  and  C_29
REMARK    5  A    between atoms: O_8  and  C_27
REMARK    6  A    between atoms: O_8  and  C_30
REMARK    7  A    between atoms: N_9  and  C_13
REMARK    8  A    between atoms: N_10  and  C_21
REMARK    9  A    between atoms: C_17  and  C_19
REMARK                            x       y       z     vdW  Elec       q    Type
REMARK                         _______ _______ _______ _____ _____    ______ ____
ROOT
ATOM      2  O   UNL     1      -4.037 -12.077  14.358  0.00  0.00    -0.368 OA
ATOM      3  O   UNL     1      -2.144 -10.906  16.468  0.00  0.00    -0.368 OA
ATOM     11  C   UNL     1      -3.492 -10.555  16.093  0.00  0.00    +0.173 C 
ATOM     12  C   UNL     1      -3.591 -10.730  14.591  0.00  0.00    +0.192 C 
ATOM     13  C   UNL     1      -4.465 -11.571  16.642  0.00  0.00    +0.130 C 
ATOM     14  C   UNL     1      -2.162 -10.529  14.145  0.00  0.00    +0.235 C 
ATOM     15  C   UNL     1      -4.381 -12.686  15.612  0.00  0.00    +0.185 C 
ATOM     16  C   UNL     1      -1.382 -11.157  15.278  0.00  0.00    +0.207 C 
ENDROOT
BRANCH  13   9
ATOM      5  O   UNL     1      -5.713 -10.590  18.973  0.00  0.00    -0.270 OA
ATOM      9  N   UNL     1      -5.800 -11.030  16.719  0.00  0.00    -0.303 N 
ATOM     17  C   UNL     1      -6.345 -10.563  17.915  0.00  0.00    +0.251 C 
ATOM     31  H   UNL     1      -6.357 -11.033  15.872  0.00  0.00    +0.149 HD
BRANCH  17  19
ATOM      1  S   UNL     1      -8.971 -10.768  18.692  0.00  0.00    -0.092 S 
ATOM     19  C   UNL     1      -7.703 -10.008  17.827  0.00  0.00    +0.074 A 
ATOM     20  C   UNL     1      -8.145  -8.912  17.119  0.00  0.00    +0.021 A 
ATOM     22  C   UNL     1      -9.542  -8.693  17.288  0.00  0.00    +0.008 A 
ATOM     23  C   UNL     1     -10.116  -9.630  18.120  0.00  0.00    +0.046 A 
ENDBRANCH  17  19
ENDBRANCH  13   9
BRANCH  14   4
ATOM      4  O   UNL     1      -1.870 -11.129  12.903  0.00  0.00    -0.442 OA
BRANCH   4  18
ATOM      6  O   UNL     1      -1.584  -9.522  11.303  0.00  0.00    -0.226 OA
ATOM     10  N   UNL     1      -3.443 -10.943  11.298  0.00  0.00    -0.251 N 
ATOM     18  C   UNL     1      -2.248 -10.437  11.771  0.00  0.00    +0.405 C 
ATOM     32  H   UNL     1      -3.846 -11.713  11.828  0.00  0.00    +0.158 HD
BRANCH  10  21
ATOM     21  C   UNL     1      -4.178 -10.524  10.165  0.00  0.00    +0.043 A 
ATOM     24  C   UNL     1      -4.996  -9.397  10.241  0.00  0.00    +0.069 A 
ATOM     25  C   UNL     1      -4.085 -11.239   8.970  0.00  0.00    +0.069 A 
ATOM     26  C   UNL     1      -4.809 -10.825   7.852  0.00  0.00    +0.125 A 
ATOM     27  C   UNL     1      -5.720  -8.983   9.123  0.00  0.00    +0.125 A 
ATOM     28  C   UNL     1      -5.626  -9.697   7.929  0.00  0.00    +0.091 A 
BRANCH  26   7
ATOM      7  O   UNL     1      -4.720 -11.522   6.687  0.00  0.00    -0.495 OA
ATOM     29  C   UNL     1      -5.592 -11.132   5.628  0.00  0.00    +0.277 C 
ENDBRANCH  26   7
BRANCH  27   8
ATOM      8  O   UNL     1      -6.517  -7.883   9.198  0.00  0.00    -0.495 OA
ATOM     30  C   UNL     1      -7.734  -7.910   8.453  0.00  0.00    +0.277 C 
ENDBRANCH  27   8
ENDBRANCH  10  21
ENDBRANCH   4  18
ENDBRANCH  14   4
TORSDOF 7
ENDMDL
MODEL 5
REMARK VINA RESULT:      -6.4     27.873     30.604
REMARK  Name = 11883371
REMARK  9 active torsions:
REMARK  status: ('A' for Active; 'I' for Inactive)
REMARK    1  A    between atoms: O_4  and  C_14
REMARK    2  A    between atoms: O_4  and  C_18
REMARK    3  A    between atoms: O_7  and  C_26
REMARK    4  A    between atoms: O_7  and  C_29
REMARK    5  A    between atoms: O_8  and  C_27
REMARK    6  A    between atoms: O_8  and  C_30
REMARK    7  A    between atoms: N_9  and  C_13
REMARK    8  A    between atoms: N_10  and  C_21
REMARK    9  A    between atoms: C_17  and  C_19
REMARK                            x       y       z     vdW  Elec       q    Type
REMARK                         _______ _______ _______ _____ _____    ______ ____
ROOT
ATOM      2  O   UNL     1      -3.963 -12.127  14.366  0.00  0.00    -0.368 OA
ATOM      3  O   UNL     1      -2.066 -10.882  16.429  0.00  0.00    -0.368 OA
ATOM     11  C   UNL     1      -3.434 -10.582  16.086  0.00  0.00    +0.173 C 
ATOM     12  C   UNL     1      -3.562 -10.764  14.587  0.00  0.00    +0.192 C 
ATOM     13  C   UNL     1      -4.356 -11.633  16.658  0.00  0.00    +0.130 C 
ATOM     14  C   UNL     1      -2.153 -10.511  14.107  0.00  0.00    +0.235 C 
ATOM     15  C   UNL     1      -4.254 -12.746  15.628  0.00  0.00    +0.185 C 
ATOM     16  C   UNL     1      -1.323 -11.107  15.222  0.00  0.00    +0.207 C 
ENDROOT
BRANCH  13   9
ATOM      5  O   UNL     1      -5.530 -10.535  18.976  0.00  0.00    -0.270 OA
ATOM      9  N   UNL     1      -5.708 -11.141  16.767  0.00  0.00    -0.303 N 
ATOM     17  C   UNL     1      -6.214 -10.610  17.953  0.00  0.00    +0.251 C 
ATOM     31  H   UNL     1      -6.305 -11.228  15.951  0.00  0.00    +0.149 HD
BRANCH  17  19
ATOM      1  S   UNL     1      -8.793 -10.883  18.855  0.00  0.00    -0.092 S 
ATOM     19  C   UNL     1      -7.597 -10.119  17.897  0.00  0.00    +0.074 A 
ATOM     20  C   UNL     1      -8.117  -9.083  17.153  0.00  0.00    +0.021 A 
ATOM     22  C   UNL     1      -9.514  -8.914  17.372  0.00  0.00    +0.008 A 
ATOM     23  C   UNL     1     -10.010  -9.828  18.276  0.00  0.00    +0.046 A 
ENDBRANCH  17  19
ENDBRANCH  13   9
BRANCH  14   4
ATOM      4  O   UNL     1      -1.868 -11.103  12.859  0.00  0.00    -0.442 OA
BRANCH   4  18
ATOM      6  O   UNL     1      -1.627  -9.509  11.238  0.00  0.00    -0.226 OA
ATOM     10  N   UNL     1      -3.492 -10.921  11.305  0.00  0.00    -0.251 N 
ATOM     18  C   UNL     1      -2.280 -10.418  11.735  0.00  0.00    +0.405 C 
ATOM     32  H   UNL     1      -3.881 -11.684  11.854  0.00  0.00    +0.158 HD
BRANCH  10  21
ATOM     21  C   UNL     1      -4.261 -10.507  10.194  0.00  0.00    +0.043 A 
ATOM     24  C   UNL     1      -4.111 -11.147   8.963  0.00  0.00    +0.069 A 
ATOM     25  C   UNL     1      -5.173  -9.460  10.328  0.00  0.00    +0.069 A 
ATOM     26  C   UNL     1      -5.933  -9.052   9.231  0.00  0.00    +0.125 A 
ATOM     27  C   UNL     1      -4.871 -10.740   7.867  0.00  0.00    +0.125 A 
ATOM     28  C   UNL     1      -5.782  -9.692   8.001  0.00  0.00    +0.091 A 
BRANCH  26   7
ATOM      7  O   UNL     1      -6.821  -8.029   9.361  0.00  0.00    -0.495 OA
ATOM     29  C   UNL     1      -7.646  -7.739   8.234  0.00  0.00    +0.277 C 
ENDBRANCH  26   7
BRANCH  27   8
ATOM      8  O   UNL     1      -4.724 -11.364   6.667  0.00  0.00    -0.495 OA
ATOM     30  C   UNL     1      -5.625 -10.991   5.625  0.00  0.00    +0.277 C 
ENDBRANCH  27   8
ENDBRANCH  10  21
ENDBRANCH   4  18
ENDBRANCH  14   4
TORSDOF 7
ENDMDL
MODEL 6
REMARK VINA RESULT:      -6.4      2.118      2.214
REMARK  Name = 11883371
REMARK  9 active torsions:
REMARK  status: ('A' for Active; 'I' for Inactive)
REMARK    1  A    between atoms: O_4  and  C_14
REMARK    2  A    between atoms: O_4  and  C_18
REMARK    3  A    between atoms: O_7  and  C_26
REMARK    4  A    between atoms: O_7  and  C_29
REMARK    5  A    between atoms: O_8  and  C_27
REMARK    6  A    between atoms: O_8  and  C_30
REMARK    7  A    between atoms: N_9  and  C_13
REMARK    8  A    between atoms: N_10  and  C_21
REMARK    9  A    between atoms: C_17  and  C_19
REMARK                            x       y       z     vdW  Elec       q    Type
REMARK                         _______ _______ _______ _____ _____    ______ ____
ROOT
ATOM      2  O   UNL     1      21.391   7.734  20.458  0.00  0.00    -0.368 OA
ATOM      3  O   UNL     1      21.049   5.817  22.827  0.00  0.00    -0.368 OA
ATOM     11  C   UNL     1      21.794   5.693  21.598  0.00  0.00    +0.173 C 
ATOM     12  C   UNL     1      20.969   6.360  20.515  0.00  0.00    +0.192 C 
ATOM     13  C   UNL     1      23.049   6.531  21.665  0.00  0.00    +0.130 C 
ATOM     14  C   UNL     1      19.563   6.229  21.050  0.00  0.00    +0.235 C 
ATOM     15  C   UNL     1      22.532   7.915  21.310  0.00  0.00    +0.185 C 
ATOM     16  C   UNL     1      19.769   6.398  22.538  0.00  0.00    +0.207 C 
ENDROOT
BRANCH  13   9
ATOM      5  O   UNL     1      25.278   4.902  22.242  0.00  0.00    -0.270 OA
ATOM      9  N   UNL     1      24.032   6.078  20.711  0.00  0.00    -0.303 N 
ATOM     17  C   UNL     1      25.109   5.271  21.079  0.00  0.00    +0.251 C 
ATOM     31  H   UNL     1      23.939   6.401  19.754  0.00  0.00    +0.149 HD
BRANCH  17  19
ATOM      1  S   UNL     1      26.721   3.309  20.033  0.00  0.00    -0.092 S 
ATOM     19  C   UNL     1      26.006   4.864  19.988  0.00  0.00    +0.074 A 
ATOM     20  C   UNL     1      26.386   5.574  18.870  0.00  0.00    +0.021 A 
ATOM     22  C   UNL     1      27.275   4.833  18.041  0.00  0.00    +0.008 A 
ATOM     23  C   UNL     1      27.541   3.583  18.556  0.00  0.00    +0.046 A 
ENDBRANCH  17  19
ENDBRANCH  13   9
BRANCH  14   4
ATOM      4  O   UNL     1      18.670   7.186  20.526  0.00  0.00    -0.442 OA
BRANCH   4  18
ATOM      6  O   UNL     1      17.528   5.696  19.220  0.00  0.00    -0.226 OA
ATOM     10  N   UNL     1      16.464   7.532  20.208  0.00  0.00    -0.251 N 
ATOM     18  C   UNL     1      17.531   6.707  19.912  0.00  0.00    +0.405 C 
ATOM     32  H   UNL     1      16.667   8.330  20.805  0.00  0.00    +0.158 HD
BRANCH  10  21
ATOM     21  C   UNL     1      15.122   7.405  19.784  0.00  0.00    +0.043 A 
ATOM     24  C   UNL     1      14.157   6.907  20.660  0.00  0.00    +0.069 A 
ATOM     25  C   UNL     1      14.761   7.778  18.489  0.00  0.00    +0.069 A 
ATOM     26  C   UNL     1      13.435   7.654  18.072  0.00  0.00    +0.125 A 
ATOM     27  C   UNL     1      12.832   6.783  20.243  0.00  0.00    +0.125 A 
ATOM     28  C   UNL     1      12.472   7.156  18.948  0.00  0.00    +0.091 A 
BRANCH  26   7
ATOM      7  O   UNL     1      13.083   8.017  16.808  0.00  0.00    -0.495 OA
ATOM     29  C   UNL     1      12.124   9.065  16.678  0.00  0.00    +0.277 C 
ENDBRANCH  26   7
BRANCH  27   8
ATOM      8  O   UNL     1      11.892   6.297  21.098  0.00  0.00    -0.495 OA
ATOM     30  C   UNL     1      10.938   7.226  21.611  0.00  0.00    +0.277 C 
ENDBRANCH  27   8
ENDBRANCH  10  21
ENDBRANCH   4  18
ENDBRANCH  14   4
TORSDOF 7
ENDMDL
MODEL 7
REMARK VINA RESULT:      -6.4     30.848     34.472
REMARK  Name = 11883371
REMARK  9 active torsions:
REMARK  status: ('A' for Active; 'I' for Inactive)
REMARK    1  A    between atoms: O_4  and  C_14
REMARK    2  A    between atoms: O_4  and  C_18
REMARK    3  A    between atoms: O_7  and  C_26
REMARK    4  A    between atoms: O_7  and  C_29
REMARK    5  A    between atoms: O_8  and  C_27
REMARK    6  A    between atoms: O_8  and  C_30
REMARK    7  A    between atoms: N_9  and  C_13
REMARK    8  A    between atoms: N_10  and  C_21
REMARK    9  A    between atoms: C_17  and  C_19
REMARK                            x       y       z     vdW  Elec       q    Type
REMARK                         _______ _______ _______ _____ _____    ______ ____
ROOT
ATOM      2  O   UNL     1     -16.836   4.650  25.612  0.00  0.00    -0.368 OA
ATOM      3  O   UNL     1     -16.877   2.088  23.927  0.00  0.00    -0.368 OA
ATOM     11  C   UNL     1     -16.140   2.437  25.117  0.00  0.00    +0.173 C 
ATOM     12  C   UNL     1     -15.774   3.903  24.993  0.00  0.00    +0.192 C 
ATOM     13  C   UNL     1     -17.048   2.390  26.323  0.00  0.00    +0.130 C 
ATOM     14  C   UNL     1     -15.746   4.107  23.497  0.00  0.00    +0.235 C 
ATOM     15  C   UNL     1     -17.742   3.741  26.256  0.00  0.00    +0.185 C 
ATOM     16  C   UNL     1     -16.870   3.209  23.031  0.00  0.00    +0.207 C 
ENDROOT
BRANCH  13   9
ATOM      5  O   UNL     1     -17.374   0.347  28.240  0.00  0.00    -0.270 OA
ATOM      9  N   UNL     1     -16.291   2.250  27.543  0.00  0.00    -0.303 N 
ATOM     17  C   UNL     1     -16.514   1.207  28.441  0.00  0.00    +0.251 C 
ATOM     31  H   UNL     1     -15.605   2.967  27.754  0.00  0.00    +0.149 HD
BRANCH  17  19
ATOM      1  S   UNL     1     -14.636   2.528  29.947  0.00  0.00    -0.092 S 
ATOM     19  C   UNL     1     -15.640   1.180  29.622  0.00  0.00    +0.074 A 
ATOM     20  C   UNL     1     -15.490   0.186  30.564  0.00  0.00    +0.021 A 
ATOM     22  C   UNL     1     -14.539   0.535  31.565  0.00  0.00    +0.008 A 
ATOM     23  C   UNL     1     -13.997   1.784  31.350  0.00  0.00    +0.046 A 
ENDBRANCH  17  19
ENDBRANCH  13   9
BRANCH  14   4
ATOM      4  O   UNL     1     -15.942   5.447  23.108  0.00  0.00    -0.442 OA
BRANCH   4  18
ATOM      6  O   UNL     1     -15.425   5.431  20.881  0.00  0.00    -0.226 OA
ATOM     10  N   UNL     1     -14.349   6.870  22.381  0.00  0.00    -0.251 N 
ATOM     18  C   UNL     1     -15.241   5.885  22.003  0.00  0.00    +0.405 C 
ATOM     32  H   UNL     1     -14.344   7.114  23.369  0.00  0.00    +0.158 HD
BRANCH  10  21
ATOM     21  C   UNL     1     -13.443   7.584  21.566  0.00  0.00    +0.043 A 
ATOM     24  C   UNL     1     -13.236   8.947  21.778  0.00  0.00    +0.069 A 
ATOM     25  C   UNL     1     -12.753   6.925  20.547  0.00  0.00    +0.069 A 
ATOM     26  C   UNL     1     -11.858   7.629  19.742  0.00  0.00    +0.125 A 
ATOM     27  C   UNL     1     -12.340   9.651  20.974  0.00  0.00    +0.125 A 
ATOM     28  C   UNL     1     -11.651   8.992  19.956  0.00  0.00    +0.091 A 
BRANCH  26   7
ATOM      7  O   UNL     1     -11.186   6.987  18.748  0.00  0.00    -0.495 OA
ATOM     29  C   UNL     1     -10.817   7.762  17.608  0.00  0.00    +0.277 C 
ENDBRANCH  26   7
BRANCH  27   8
ATOM      8  O   UNL     1     -12.139  10.981  21.182  0.00  0.00    -0.495 OA
ATOM     30  C   UNL     1     -12.497  11.866  20.121  0.00  0.00    +0.277 C 
ENDBRANCH  27   8
ENDBRANCH  10  21
ENDBRANCH   4  18
ENDBRANCH  14   4
TORSDOF 7
ENDMDL
MODEL 8
REMARK VINA RESULT:      -6.2      6.564      9.628
REMARK  Name = 11883371
REMARK  9 active torsions:
REMARK  status: ('A' for Active; 'I' for Inactive)
REMARK    1  A    between atoms: O_4  and  C_14
REMARK    2  A    between atoms: O_4  and  C_18
REMARK    3  A    between atoms: O_7  and  C_26
REMARK    4  A    between atoms: O_7  and  C_29
REMARK    5  A    between atoms: O_8  and  C_27
REMARK    6  A    between atoms: O_8  and  C_30
REMARK    7  A    between atoms: N_9  and  C_13
REMARK    8  A    between atoms: N_10  and  C_21
REMARK    9  A    between atoms: C_17  and  C_19
REMARK                            x       y       z     vdW  Elec       q    Type
REMARK                         _______ _______ _______ _____ _____    ______ ____
ROOT
ATOM      2  O   UNL     1      15.403  10.820  13.222  0.00  0.00    -0.368 OA
ATOM      3  O   UNL     1      14.796  13.450  14.676  0.00  0.00    -0.368 OA
ATOM     11  C   UNL     1      15.935  12.566  14.735  0.00  0.00    +0.173 C 
ATOM     12  C   UNL     1      15.400  11.152  14.620  0.00  0.00    +0.192 C 
ATOM     13  C   UNL     1      16.787  12.733  13.499  0.00  0.00    +0.130 C 
ATOM     14  C   UNL     1      13.996  11.290  15.160  0.00  0.00    +0.235 C 
ATOM     15  C   UNL     1      16.059  11.864  12.487  0.00  0.00    +0.185 C 
ATOM     16  C   UNL     1      13.597  12.662  14.665  0.00  0.00    +0.207 C 
ENDROOT
BRANCH  13   9
ATOM      5  O   UNL     1      18.962  14.308  14.362  0.00  0.00    -0.270 OA
ATOM      9  N   UNL     1      18.132  12.263  13.723  0.00  0.00    -0.303 N 
ATOM     17  C   UNL     1      19.154  13.109  14.153  0.00  0.00    +0.251 C 
ATOM     31  H   UNL     1      18.327  11.288  13.519  0.00  0.00    +0.149 HD
BRANCH  17  19
ATOM      1  S   UNL     1      21.883  13.329  13.941  0.00  0.00    -0.092 S 
ATOM     19  C   UNL     1      20.462  12.475  14.369  0.00  0.00    +0.074 A 
ATOM     20  C   UNL     1      20.745  11.231  14.891  0.00  0.00    +0.021 A 
ATOM     22  C   UNL     1      22.145  10.976  14.940  0.00  0.00    +0.008 A 
ATOM     23  C   UNL     1      22.881  12.035  14.454  0.00  0.00    +0.046 A 
ENDBRANCH  17  19
ENDBRANCH  13   9
BRANCH  14   4
ATOM      4  O   UNL     1      13.118  10.286  14.705  0.00  0.00    -0.442 OA
BRANCH   4  18
ATOM      6  O   UNL     1      11.511   8.876  15.516  0.00  0.00    -0.226 OA
ATOM     10  N   UNL     1      13.447   9.364  16.737  0.00  0.00    -0.251 N 
ATOM     18  C   UNL     1      12.587   9.442  15.659  0.00  0.00    +0.405 C 
ATOM     32  H   UNL     1      14.301   9.913  16.670  0.00  0.00    +0.158 HD
BRANCH  10  21
ATOM     21  C   UNL     1      13.289   8.614  17.925  0.00  0.00    +0.043 A 
ATOM     24  C   UNL     1      12.064   8.616  18.593  0.00  0.00    +0.069 A 
ATOM     25  C   UNL     1      14.357   7.872  18.428  0.00  0.00    +0.069 A 
ATOM     26  C   UNL     1      14.200   7.131  19.600  0.00  0.00    +0.125 A 
ATOM     27  C   UNL     1      11.907   7.875  19.765  0.00  0.00    +0.125 A 
ATOM     28  C   UNL     1      12.976   7.133  20.268  0.00  0.00    +0.091 A 
BRANCH  26   7
ATOM      7  O   UNL     1      15.243   6.407  20.092  0.00  0.00    -0.495 OA
ATOM     29  C   UNL     1      16.365   6.219  19.233  0.00  0.00    +0.277 C 
ENDBRANCH  26   7
BRANCH  27   8
ATOM      8  O   UNL     1      10.713   7.877  20.416  0.00  0.00    -0.495 OA
ATOM     30  C   UNL     1      10.704   7.393  21.759  0.00  0.00    +0.277 C 
ENDBRANCH  27   8
ENDBRANCH  10  21
ENDBRANCH   4  18
ENDBRANCH  14   4
TORSDOF 7
ENDMDL
MODEL 9
REMARK VINA RESULT:      -6.2      4.396     10.615
REMARK  Name = 11883371
REMARK  9 active torsions:
REMARK  status: ('A' for Active; 'I' for Inactive)
REMARK    1  A    between atoms: O_4  and  C_14
REMARK    2  A    between atoms: O_4  and  C_18
REMARK    3  A    between atoms: O_7  and  C_26
REMARK    4  A    between atoms: O_7  and  C_29
REMARK    5  A    between atoms: O_8  and  C_27
REMARK    6  A    between atoms: O_8  and  C_30
REMARK    7  A    between atoms: N_9  and  C_13
REMARK    8  A    between atoms: N_10  and  C_21
REMARK    9  A    between atoms: C_17  and  C_19
REMARK                            x       y       z     vdW  Elec       q    Type
REMARK                         _______ _______ _______ _____ _____    ______ ____
ROOT
ATOM      2  O   UNL     1      13.829   7.901  19.176  0.00  0.00    -0.368 OA
ATOM      3  O   UNL     1      10.816   8.254  19.625  0.00  0.00    -0.368 OA
ATOM     11  C   UNL     1      11.826   9.169  19.151  0.00  0.00    +0.173 C 
ATOM     12  C   UNL     1      13.090   8.874  19.934  0.00  0.00    +0.192 C 
ATOM     13  C   UNL     1      12.197   8.841  17.725  0.00  0.00    +0.130 C 
ATOM     14  C   UNL     1      12.549   8.289  21.217  0.00  0.00    +0.235 C 
ATOM     15  C   UNL     1      13.193   7.706  17.905  0.00  0.00    +0.185 C 
ATOM     16  C   UNL     1      11.346   7.511  20.732  0.00  0.00    +0.207 C 
ENDROOT
BRANCH  13   9
ATOM      5  O   UNL     1      12.835   9.009  14.983  0.00  0.00    -0.270 OA
ATOM      9  N   UNL     1      12.806   9.972  17.068  0.00  0.00    -0.303 N 
ATOM     17  C   UNL     1      13.089   9.976  15.702  0.00  0.00    +0.251 C 
ATOM     31  H   UNL     1      13.062  10.766  17.645  0.00  0.00    +0.149 HD
BRANCH  17  19
ATOM      1  S   UNL     1      14.860  12.037  16.099  0.00  0.00    -0.092 S 
ATOM     19  C   UNL     1      13.677  11.214  15.174  0.00  0.00    +0.074 A 
ATOM     20  C   UNL     1      13.415  11.857  13.983  0.00  0.00    +0.021 A 
ATOM     22  C   UNL     1      14.193  13.039  13.829  0.00  0.00    +0.008 A 
ATOM     23  C   UNL     1      15.023  13.256  14.908  0.00  0.00    +0.046 A 
ENDBRANCH  17  19
ENDBRANCH  13   9
BRANCH  14   4
ATOM      4  O   UNL     1      13.473   7.469  21.896  0.00  0.00    -0.442 OA
BRANCH   4  18
ATOM      6  O   UNL     1      14.974   8.965  22.754  0.00  0.00    -0.226 OA
ATOM     10  N   UNL     1      15.651   7.199  21.375  0.00  0.00    -0.251 N 
ATOM     18  C   UNL     1      14.745   7.975  22.071  0.00  0.00    +0.405 C 
ATOM     32  H   UNL     1      15.265   6.410  20.862  0.00  0.00    +0.158 HD
BRANCH  10  21
ATOM     21  C   UNL     1      17.052   7.366  21.286  0.00  0.00    +0.043 A 
ATOM     24  C   UNL     1      17.860   6.293  20.907  0.00  0.00    +0.069 A 
ATOM     25  C   UNL     1      17.627   8.603  21.577  0.00  0.00    +0.069 A 
ATOM     26  C   UNL     1      19.010   8.767  21.488  0.00  0.00    +0.125 A 
ATOM     27  C   UNL     1      19.242   6.458  20.819  0.00  0.00    +0.125 A 
ATOM     28  C   UNL     1      19.816   7.695  21.109  0.00  0.00    +0.091 A 
BRANCH  26   7
ATOM      7  O   UNL     1      19.571   9.974  21.773  0.00  0.00    -0.495 OA
ATOM     29  C   UNL     1      18.702  10.997  22.255  0.00  0.00    +0.277 C 
ENDBRANCH  26   7
BRANCH  27   8
ATOM      8  O   UNL     1      20.029   5.411  20.449  0.00  0.00    -0.495 OA
ATOM     30  C   UNL     1      21.367   5.397  20.946  0.00  0.00    +0.277 C 
ENDBRANCH  27   8
ENDBRANCH  10  21
ENDBRANCH   4  18
ENDBRANCH  14   4
TORSDOF 7
ENDMDL
MODEL 10
REMARK VINA RESULT:      -6.1     28.587     33.408
REMARK  Name = 11883371
REMARK  9 active torsions:
REMARK  status: ('A' for Active; 'I' for Inactive)
REMARK    1  A    between atoms: O_4  and  C_14
REMARK    2  A    between atoms: O_4  and  C_18
REMARK    3  A    between atoms: O_7  and  C_26
REMARK    4  A    between atoms: O_7  and  C_29
REMARK    5  A    between atoms: O_8  and  C_27
REMARK    6  A    between atoms: O_8  and  C_30
REMARK    7  A    between atoms: N_9  and  C_13
REMARK    8  A    between atoms: N_10  and  C_21
REMARK    9  A    between atoms: C_17  and  C_19
REMARK                            x       y       z     vdW  Elec       q    Type
REMARK                         _______ _______ _______ _____ _____    ______ ____
ROOT
ATOM      2  O   UNL     1     -12.061  -8.122  14.546  0.00  0.00    -0.368 OA
ATOM      3  O   UNL     1     -11.187  -5.957  16.534  0.00  0.00    -0.368 OA
ATOM     11  C   UNL     1     -11.113  -6.019  15.095  0.00  0.00    +0.173 C 
ATOM     12  C   UNL     1     -10.800  -7.457  14.732  0.00  0.00    +0.192 C 
ATOM     13  C   UNL     1     -12.478  -5.782  14.493  0.00  0.00    +0.130 C 
ATOM     14  C   UNL     1     -10.081  -7.954  15.963  0.00  0.00    +0.235 C 
ATOM     15  C   UNL     1     -13.120  -7.155  14.603  0.00  0.00    +0.185 C 
ATOM     16  C   UNL     1     -10.811  -7.232  17.073  0.00  0.00    +0.207 C 
ENDROOT
BRANCH  13   9
ATOM      5  O   UNL     1     -13.787  -3.559  13.354  0.00  0.00    -0.270 OA
ATOM      9  N   UNL     1     -12.378  -5.358  13.118  0.00  0.00    -0.303 N 
ATOM     17  C   UNL     1     -13.060  -4.243  12.632  0.00  0.00    +0.251 C 
ATOM     31  H   UNL     1     -11.818  -5.927  12.492  0.00  0.00    +0.149 HD
BRANCH  17  19
ATOM      1  S   UNL     1     -14.159  -3.454  10.242  0.00  0.00    -0.092 S 
ATOM     19  C   UNL     1     -12.830  -3.918  11.217  0.00  0.00    +0.074 A 
ATOM     20  C   UNL     1     -11.649  -3.927  10.509  0.00  0.00    +0.021 A 
ATOM     22  C   UNL     1     -11.837  -3.549   9.148  0.00  0.00    +0.008 A 
ATOM     23  C   UNL     1     -13.156  -3.265   8.868  0.00  0.00    +0.046 A 
ENDBRANCH  17  19
ENDBRANCH  13   9
BRANCH  14   4
ATOM      4  O   UNL     1     -10.132  -9.355  16.118  0.00  0.00    -0.442 OA
BRANCH   4  18
ATOM      6  O   UNL     1      -9.317 -11.148  14.958  0.00  0.00    -0.226 OA
ATOM     10  N   UNL     1      -7.916  -9.428  15.704  0.00  0.00    -0.251 N 
ATOM     18  C   UNL     1      -9.119 -10.085  15.532  0.00  0.00    +0.405 C 
ATOM     32  H   UNL     1      -7.955  -8.547  16.212  0.00  0.00    +0.158 HD
BRANCH  10  21
ATOM     21  C   UNL     1      -6.635  -9.827  15.261  0.00  0.00    +0.043 A 
ATOM     24  C   UNL     1      -5.627 -10.095  16.188  0.00  0.00    +0.069 A 
ATOM     25  C   UNL     1      -6.377  -9.954  13.896  0.00  0.00    +0.069 A 
ATOM     26  C   UNL     1      -5.113 -10.349  13.458  0.00  0.00    +0.125 A 
ATOM     27  C   UNL     1      -4.363 -10.490  15.751  0.00  0.00    +0.125 A 
ATOM     28  C   UNL     1      -4.106 -10.617  14.386  0.00  0.00    +0.091 A 
BRANCH  26   7
ATOM      7  O   UNL     1      -4.861 -10.472  12.126  0.00  0.00    -0.495 OA
ATOM     29  C   UNL     1      -5.192  -9.359  11.298  0.00  0.00    +0.277 C 
ENDBRANCH  26   7
BRANCH  27   8
ATOM      8  O   UNL     1      -3.381 -10.751  16.655  0.00  0.00    -0.495 OA
ATOM     30  C   UNL     1      -2.043 -10.816  16.162  0.00  0.00    +0.277 C 
ENDBRANCH  27   8
ENDBRANCH  10  21
ENDBRANCH   4  18
ENDBRANCH  14   4
TORSDOF 7
ENDMDL
