MODEL 1
REMARK VINA RESULT:      -7.6      0.000      0.000
REMARK  Name = 7143792
REMARK  3 active torsions:
REMARK  status: ('A' for Active; 'I' for Inactive)
REMARK    1  A    between atoms: N_6  and  C_21
REMARK    2  A    between atoms: C_18  and  C_20
REMARK    3  A    between atoms: C_27  and  C_30
REMARK                            x       y       z     vdW  Elec       q    Type
REMARK                         _______ _______ _______ _____ _____    ______ ____
ROOT
ATOM      2  O   UNL     1      14.310  12.077  19.567  0.00  0.00    -0.267 OA
ATOM      3  O   UNL     1      15.305   6.380  19.228  0.00  0.00    -0.252 OA
ATOM      4  N   UNL     1      13.530   7.201  20.464  0.00  0.00    -0.284 N 
ATOM      5  N   UNL     1      13.024  10.146  19.338  0.00  0.00    -0.311 N 
ATOM      6  N   UNL     1      15.721   7.254  21.336  0.00  0.00    -0.269 N 
ATOM      8  C   UNL     1      11.963   8.951  21.337  0.00  0.00    +0.027 C 
ATOM      9  C   UNL     1      11.649   8.051  19.073  0.00  0.00    +0.054 C 
ATOM     10  C   UNL     1      10.912   8.493  20.335  0.00  0.00    +0.018 C 
ATOM     11  C   UNL     1      12.948   7.813  21.670  0.00  0.00    +0.114 C 
ATOM     12  C   UNL     1      12.682  10.180  20.766  0.00  0.00    +0.130 C 
ATOM     13  C   UNL     1      12.564   6.862  19.412  0.00  0.00    +0.119 C 
ATOM     14  C   UNL     1      12.473   9.183  18.488  0.00  0.00    +0.027 A 
ATOM     15  C   UNL     1      12.700   9.242  17.167  0.00  0.00    +0.022 A 
ATOM     16  C   UNL     1      13.838  11.190  18.855  0.00  0.00    +0.260 A 
ATOM     17  C   UNL     1      14.897   6.912  20.264  0.00  0.00    +0.306 C 
ATOM     18  C   UNL     1      14.109  11.205  17.375  0.00  0.00    +0.053 A 
ATOM     19  C   UNL     1      13.536  10.267  16.607  0.00  0.00    +0.016 A 
ATOM     31  H   UNL     1      15.320   7.260  22.267  0.00  0.00    +0.156 HD
ENDROOT
BRANCH   6  21
ATOM     21  C   UNL     1      17.104   7.559  21.289  0.00  0.00    +0.036 A 
ATOM     24  C   UNL     1      18.028   6.550  21.027  0.00  0.00    +0.042 A 
ATOM     25  C   UNL     1      17.531   8.866  21.508  0.00  0.00    +0.023 A 
ATOM     27  C   UNL     1      19.389   6.851  20.983  0.00  0.00    +0.054 A 
ATOM     28  C   UNL     1      18.893   9.167  21.462  0.00  0.00    +0.003 A 
ATOM     29  C   UNL     1      19.822   8.160  21.200  0.00  0.00    +0.019 A 
BRANCH  27  30
ATOM      7  N   UNL     1      21.115   4.982  20.497  0.00  0.00    -0.191 NA
ATOM     30  C   UNL     1      20.341   5.820  20.714  0.00  0.00    +0.099 C 
ENDBRANCH  27  30
ENDBRANCH   6  21
BRANCH  18  20
ATOM      1  S   UNL     1      14.323  13.692  16.197  0.00  0.00    -0.096 S 
ATOM     20  C   UNL     1      14.991  12.219  16.772  0.00  0.00    +0.024 A 
ATOM     22  C   UNL     1      16.359  12.174  16.581  0.00  0.00    +0.016 A 
ATOM     23  C   UNL     1      16.859  13.356  15.960  0.00  0.00    +0.008 A 
ATOM     26  C   UNL     1      15.857  14.264  15.697  0.00  0.00    +0.046 A 
ENDBRANCH  18  20
TORSDOF 3
ENDMDL
MODEL 2
REMARK VINA RESULT:      -7.0     13.651     15.765
REMARK  Name = 7143792
REMARK  3 active torsions:
REMARK  status: ('A' for Active; 'I' for Inactive)
REMARK    1  A    between atoms: N_6  and  C_21
REMARK    2  A    between atoms: C_18  and  C_20
REMARK    3  A    between atoms: C_27  and  C_30
REMARK                            x       y       z     vdW  Elec       q    Type
REMARK                         _______ _______ _______ _____ _____    ______ ____
ROOT
ATOM      2  O   UNL     1      10.919   7.119   2.183  0.00  0.00    -0.267 OA
ATOM      3  O   UNL     1      13.555   6.204   7.260  0.00  0.00    -0.252 OA
ATOM      4  N   UNL     1      11.695   7.573   7.122  0.00  0.00    -0.284 N 
ATOM      5  N   UNL     1      10.261   6.751   4.390  0.00  0.00    -0.311 N 
ATOM      6  N   UNL     1      13.819   8.370   6.474  0.00  0.00    -0.269 N 
ATOM      8  C   UNL     1       9.733   8.662   6.007  0.00  0.00    +0.027 C 
ATOM      9  C   UNL     1       9.564   6.335   6.774  0.00  0.00    +0.054 C 
ATOM     10  C   UNL     1       8.808   7.658   6.681  0.00  0.00    +0.018 C 
ATOM     11  C   UNL     1      11.033   8.851   6.815  0.00  0.00    +0.114 C 
ATOM     12  C   UNL     1      10.014   8.187   4.576  0.00  0.00    +0.130 C 
ATOM     13  C   UNL     1      10.812   6.528   7.652  0.00  0.00    +0.119 C 
ATOM     14  C   UNL     1       9.973   5.833   5.402  0.00  0.00    +0.027 A 
ATOM     15  C   UNL     1      10.089   4.516   5.171  0.00  0.00    +0.022 A 
ATOM     16  C   UNL     1      10.692   6.342   3.112  0.00  0.00    +0.260 A 
ATOM     17  C   UNL     1      13.071   7.299   6.964  0.00  0.00    +0.306 C 
ATOM     18  C   UNL     1      10.854   4.862   2.896  0.00  0.00    +0.053 A 
ATOM     19  C   UNL     1      10.543   4.028   3.899  0.00  0.00    +0.016 A 
ATOM     31  H   UNL     1      13.493   9.310   6.666  0.00  0.00    +0.156 HD
ENDROOT
BRANCH   6  21
ATOM     21  C   UNL     1      15.041   8.305   5.760  0.00  0.00    +0.036 A 
ATOM     24  C   UNL     1      16.239   8.592   6.409  0.00  0.00    +0.042 A 
ATOM     25  C   UNL     1      15.037   7.955   4.412  0.00  0.00    +0.023 A 
ATOM     27  C   UNL     1      17.441   8.529   5.705  0.00  0.00    +0.054 A 
ATOM     28  C   UNL     1      16.239   7.892   3.708  0.00  0.00    +0.003 A 
ATOM     29  C   UNL     1      17.442   8.179   4.354  0.00  0.00    +0.019 A 
BRANCH  27  30
ATOM      7  N   UNL     1      19.675   9.062   6.904  0.00  0.00    -0.191 NA
ATOM     30  C   UNL     1      18.674   8.823   6.366  0.00  0.00    +0.099 C 
ENDBRANCH  27  30
ENDBRANCH   6  21
BRANCH  18  20
ATOM      1  S   UNL     1      12.895   3.579   1.553  0.00  0.00    -0.096 S 
ATOM     20  C   UNL     1      11.353   4.328   1.617  0.00  0.00    +0.024 A 
ATOM     22  C   UNL     1      10.740   4.333   0.377  0.00  0.00    +0.016 A 
ATOM     23  C   UNL     1      11.542   3.717  -0.627  0.00  0.00    +0.008 A 
ATOM     26  C   UNL     1      12.742   3.263  -0.123  0.00  0.00    +0.046 A 
ENDBRANCH  18  20
TORSDOF 3
ENDMDL
MODEL 3
REMARK VINA RESULT:      -7.0      3.145      6.963
REMARK  Name = 7143792
REMARK  3 active torsions:
REMARK  status: ('A' for Active; 'I' for Inactive)
REMARK    1  A    between atoms: N_6  and  C_21
REMARK    2  A    between atoms: C_18  and  C_20
REMARK    3  A    between atoms: C_27  and  C_30
REMARK                            x       y       z     vdW  Elec       q    Type
REMARK                         _______ _______ _______ _____ _____    ______ ____
ROOT
ATOM      2  O   UNL     1      14.049  11.188  22.999  0.00  0.00    -0.267 OA
ATOM      3  O   UNL     1      12.298   9.485  17.747  0.00  0.00    -0.252 OA
ATOM      4  N   UNL     1      13.997   8.366  18.849  0.00  0.00    -0.284 N 
ATOM      5  N   UNL     1      13.654   9.158  21.923  0.00  0.00    -0.311 N 
ATOM      6  N   UNL     1      14.427  10.405  17.743  0.00  0.00    -0.269 N 
ATOM      8  C   UNL     1      15.510   7.825  20.771  0.00  0.00    +0.027 C 
ATOM      9  C   UNL     1      13.207   6.972  20.753  0.00  0.00    +0.054 C 
ATOM     10  C   UNL     1      14.651   6.609  21.089  0.00  0.00    +0.018 C 
ATOM     11  C   UNL     1      15.395   8.214  19.284  0.00  0.00    +0.114 C 
ATOM     12  C   UNL     1      15.094   8.976  21.696  0.00  0.00    +0.130 C 
ATOM     13  C   UNL     1      13.100   7.276  19.249  0.00  0.00    +0.119 C 
ATOM     14  C   UNL     1      12.736   8.171  21.555  0.00  0.00    +0.027 A 
ATOM     15  C   UNL     1      11.440   8.301  21.880  0.00  0.00    +0.022 A 
ATOM     16  C   UNL     1      13.264  10.316  22.625  0.00  0.00    +0.260 A 
ATOM     17  C   UNL     1      13.483   9.438  18.087  0.00  0.00    +0.306 C 
ATOM     18  C   UNL     1      11.799  10.454  22.939  0.00  0.00    +0.053 A 
ATOM     19  C   UNL     1      10.968   9.465  22.577  0.00  0.00    +0.016 A 
ATOM     31  H   UNL     1      15.395  10.120  17.655  0.00  0.00    +0.156 HD
ENDROOT
BRANCH   6  21
ATOM     21  C   UNL     1      14.186  11.769  17.447  0.00  0.00    +0.036 A 
ATOM     24  C   UNL     1      13.669  12.611  18.428  0.00  0.00    +0.042 A 
ATOM     25  C   UNL     1      14.467  12.261  16.174  0.00  0.00    +0.023 A 
ATOM     27  C   UNL     1      13.431  13.954  18.135  0.00  0.00    +0.054 A 
ATOM     28  C   UNL     1      14.230  13.604  15.882  0.00  0.00    +0.003 A 
ATOM     29  C   UNL     1      13.712  14.451  16.862  0.00  0.00    +0.019 A 
BRANCH  27  30
ATOM      7  N   UNL     1      12.469  15.527  19.954  0.00  0.00    -0.191 NA
ATOM     30  C   UNL     1      12.900  14.822  19.139  0.00  0.00    +0.099 C 
ENDBRANCH  27  30
ENDBRANCH   6  21
BRANCH  18  20
ATOM      1  S   UNL     1      10.885  13.047  22.700  0.00  0.00    -0.096 S 
ATOM     20  C   UNL     1      11.274  11.650  23.619  0.00  0.00    +0.024 A 
ATOM     22  C   UNL     1      11.028  11.844  24.965  0.00  0.00    +0.016 A 
ATOM     23  C   UNL     1      10.517  13.145  25.241  0.00  0.00    +0.008 A 
ATOM     26  C   UNL     1      10.390  13.904  24.098  0.00  0.00    +0.046 A 
ENDBRANCH  18  20
TORSDOF 3
ENDMDL
MODEL 4
REMARK VINA RESULT:      -6.8     13.607     16.005
REMARK  Name = 7143792
REMARK  3 active torsions:
REMARK  status: ('A' for Active; 'I' for Inactive)
REMARK    1  A    between atoms: N_6  and  C_21
REMARK    2  A    between atoms: C_18  and  C_20
REMARK    3  A    between atoms: C_27  and  C_30
REMARK                            x       y       z     vdW  Elec       q    Type
REMARK                         _______ _______ _______ _____ _____    ______ ____
ROOT
ATOM      2  O   UNL     1      13.902   6.577   6.558  0.00  0.00    -0.267 OA
ATOM      3  O   UNL     1       9.386   7.660   3.095  0.00  0.00    -0.252 OA
ATOM      4  N   UNL     1       9.072   6.768   5.206  0.00  0.00    -0.284 N 
ATOM      5  N   UNL     1      11.752   7.447   6.802  0.00  0.00    -0.311 N 
ATOM      6  N   UNL     1       9.764   5.395   3.417  0.00  0.00    -0.269 N 
ATOM      8  C   UNL     1       9.753   6.008   7.494  0.00  0.00    +0.027 C 
ATOM      9  C   UNL     1       9.434   8.402   7.048  0.00  0.00    +0.054 C 
ATOM     10  C   UNL     1       9.195   7.300   8.076  0.00  0.00    +0.018 C 
ATOM     11  C   UNL     1       9.059   5.651   6.164  0.00  0.00    +0.114 C 
ATOM     12  C   UNL     1      11.270   6.162   7.324  0.00  0.00    +0.130 C 
ATOM     13  C   UNL     1       8.666   8.065   5.759  0.00  0.00    +0.119 C 
ATOM     14  C   UNL     1      10.911   8.561   6.739  0.00  0.00    +0.027 A 
ATOM     15  C   UNL     1      11.402   9.756   6.376  0.00  0.00    +0.022 A 
ATOM     16  C   UNL     1      13.121   7.527   6.478  0.00  0.00    +0.260 A 
ATOM     17  C   UNL     1       9.417   6.677   3.840  0.00  0.00    +0.306 C 
ATOM     18  C   UNL     1      13.633   8.870   6.034  0.00  0.00    +0.053 A 
ATOM     19  C   UNL     1      12.783   9.907   6.013  0.00  0.00    +0.016 A 
ATOM     31  H   UNL     1       9.363   4.603   3.907  0.00  0.00    +0.156 HD
ENDROOT
BRANCH   6  21
ATOM     21  C   UNL     1      10.596   5.050   2.323  0.00  0.00    +0.036 A 
ATOM     24  C   UNL     1      11.864   4.523   2.557  0.00  0.00    +0.042 A 
ATOM     25  C   UNL     1      10.142   5.241   1.021  0.00  0.00    +0.023 A 
ATOM     27  C   UNL     1      12.683   4.185   1.480  0.00  0.00    +0.054 A 
ATOM     28  C   UNL     1      10.961   4.902  -0.056  0.00  0.00    +0.003 A 
ATOM     29  C   UNL     1      12.231   4.374   0.173  0.00  0.00    +0.019 A 
BRANCH  27  30
ATOM      7  N   UNL     1      15.043   3.204   1.903  0.00  0.00    -0.191 NA
ATOM     30  C   UNL     1      13.984   3.643   1.714  0.00  0.00    +0.099 C 
ENDBRANCH  27  30
ENDBRANCH   6  21
BRANCH  18  20
ATOM      1  S   UNL     1      15.616   8.252   4.217  0.00  0.00    -0.096 S 
ATOM     20  C   UNL     1      15.035   9.053   5.619  0.00  0.00    +0.024 A 
ATOM     22  C   UNL     1      16.022   9.816   6.214  0.00  0.00    +0.016 A 
ATOM     23  C   UNL     1      17.261   9.741   5.513  0.00  0.00    +0.008 A 
ATOM     26  C   UNL     1      17.180   8.922   4.407  0.00  0.00    +0.046 A 
ENDBRANCH  18  20
TORSDOF 3
ENDMDL
MODEL 5
REMARK VINA RESULT:      -6.6     28.145     30.116
REMARK  Name = 7143792
REMARK  3 active torsions:
REMARK  status: ('A' for Active; 'I' for Inactive)
REMARK    1  A    between atoms: N_6  and  C_21
REMARK    2  A    between atoms: C_18  and  C_20
REMARK    3  A    between atoms: C_27  and  C_30
REMARK                            x       y       z     vdW  Elec       q    Type
REMARK                         _______ _______ _______ _____ _____    ______ ____
ROOT
ATOM      2  O   UNL     1      -1.820 -11.904  12.959  0.00  0.00    -0.267 OA
ATOM      3  O   UNL     1      -7.538 -11.288  12.260  0.00  0.00    -0.252 OA
ATOM      4  N   UNL     1      -6.053  -9.908  11.144  0.00  0.00    -0.284 N 
ATOM      5  N   UNL     1      -3.272 -11.475  11.185  0.00  0.00    -0.311 N 
ATOM      6  N   UNL     1      -6.567  -9.528  13.415  0.00  0.00    -0.269 N 
ATOM      8  C   UNL     1      -3.805  -9.105  10.383  0.00  0.00    +0.027 C 
ATOM      9  C   UNL     1      -4.853 -11.031   9.275  0.00  0.00    +0.054 C 
ATOM     10  C   UNL     1      -4.044  -9.760   9.029  0.00  0.00    +0.018 C 
ATOM     11  C   UNL     1      -5.139  -8.757  11.075  0.00  0.00    +0.114 C 
ATOM     12  C   UNL     1      -2.946 -10.044  11.238  0.00  0.00    +0.130 C 
ATOM     13  C   UNL     1      -6.212 -10.653   9.890  0.00  0.00    +0.119 C 
ATOM     14  C   UNL     1      -4.119 -11.986  10.198  0.00  0.00    +0.027 A 
ATOM     15  C   UNL     1      -4.308 -13.310  10.091  0.00  0.00    +0.022 A 
ATOM     16  C   UNL     1      -2.604 -12.313  12.101  0.00  0.00    +0.260 A 
ATOM     17  C   UNL     1      -6.775 -10.319  12.286  0.00  0.00    +0.306 C 
ATOM     18  C   UNL     1      -2.868 -13.790  11.983  0.00  0.00    +0.053 A 
ATOM     19  C   UNL     1      -3.675 -14.221  11.002  0.00  0.00    +0.016 A 
ATOM     31  H   UNL     1      -6.315  -8.555  13.279  0.00  0.00    +0.156 HD
ENDROOT
BRANCH   6  21
ATOM     21  C   UNL     1      -6.714  -9.914  14.770  0.00  0.00    +0.036 A 
ATOM     24  C   UNL     1      -5.606 -10.352  15.490  0.00  0.00    +0.042 A 
ATOM     25  C   UNL     1      -7.968  -9.853  15.375  0.00  0.00    +0.023 A 
ATOM     27  C   UNL     1      -5.752 -10.733  16.824  0.00  0.00    +0.054 A 
ATOM     28  C   UNL     1      -8.113 -10.234  16.709  0.00  0.00    +0.003 A 
ATOM     29  C   UNL     1      -7.005 -10.674  17.434  0.00  0.00    +0.019 A 
BRANCH  27  30
ATOM      7  N   UNL     1      -3.695 -11.550  18.171  0.00  0.00    -0.191 NA
ATOM     30  C   UNL     1      -4.617 -11.184  17.567  0.00  0.00    +0.099 C 
ENDBRANCH  27  30
ENDBRANCH   6  21
BRANCH  18  20
ATOM      1  S   UNL     1      -3.088 -15.143  14.377  0.00  0.00    -0.096 S 
ATOM     20  C   UNL     1      -2.266 -14.750  12.923  0.00  0.00    +0.024 A 
ATOM     22  C   UNL     1      -1.067 -15.430  12.818  0.00  0.00    +0.016 A 
ATOM     23  C   UNL     1      -0.826 -16.278  13.938  0.00  0.00    +0.008 A 
ATOM     26  C   UNL     1      -1.846 -16.218  14.862  0.00  0.00    +0.046 A 
ENDBRANCH  18  20
TORSDOF 3
ENDMDL
MODEL 6
REMARK VINA RESULT:      -6.3     28.112     30.489
REMARK  Name = 7143792
REMARK  3 active torsions:
REMARK  status: ('A' for Active; 'I' for Inactive)
REMARK    1  A    between atoms: N_6  and  C_21
REMARK    2  A    between atoms: C_18  and  C_20
REMARK    3  A    between atoms: C_27  and  C_30
REMARK                            x       y       z     vdW  Elec       q    Type
REMARK                         _______ _______ _______ _____ _____    ______ ____
ROOT
ATOM      2  O   UNL     1      -8.213  -8.857  16.151  0.00  0.00    -0.267 OA
ATOM      3  O   UNL     1      -4.857 -13.250  14.418  0.00  0.00    -0.252 OA
ATOM      4  N   UNL     1      -4.624 -12.346  16.535  0.00  0.00    -0.284 N 
ATOM      5  N   UNL     1      -7.372 -10.818  17.092  0.00  0.00    -0.311 N 
ATOM      6  N   UNL     1      -3.695 -11.257  14.660  0.00  0.00    -0.269 N 
ATOM      8  C   UNL     1      -5.218 -10.872  18.472  0.00  0.00    +0.027 C 
ATOM      9  C   UNL     1      -6.472 -12.949  18.089  0.00  0.00    +0.054 C 
ATOM     10  C   UNL     1      -5.853 -12.066  19.171  0.00  0.00    +0.018 C 
ATOM     11  C   UNL     1      -4.134 -11.323  17.473  0.00  0.00    +0.114 C 
ATOM     12  C   UNL     1      -6.324 -10.059  17.787  0.00  0.00    +0.130 C 
ATOM     13  C   UNL     1      -5.361 -13.454  17.154  0.00  0.00    +0.119 C 
ATOM     14  C   UNL     1      -7.516 -12.194  17.288  0.00  0.00    +0.027 A 
ATOM     15  C   UNL     1      -8.553 -12.848  16.742  0.00  0.00    +0.022 A 
ATOM     16  C   UNL     1      -8.284 -10.076  16.316  0.00  0.00    +0.260 A 
ATOM     17  C   UNL     1      -4.427 -12.344  15.137  0.00  0.00    +0.306 C 
ATOM     18  C   UNL     1      -9.413 -10.843  15.682  0.00  0.00    +0.053 A 
ATOM     19  C   UNL     1      -9.510 -12.159  15.923  0.00  0.00    +0.016 A 
ATOM     31  H   UNL     1      -3.025 -10.820  15.282  0.00  0.00    +0.156 HD
ENDROOT
BRANCH   6  21
ATOM     21  C   UNL     1      -3.741 -10.699  13.358  0.00  0.00    +0.036 A 
ATOM     24  C   UNL     1      -4.952 -10.248  12.839  0.00  0.00    +0.042 A 
ATOM     25  C   UNL     1      -2.573 -10.606  12.604  0.00  0.00    +0.023 A 
ATOM     27  C   UNL     1      -4.996  -9.701  11.557  0.00  0.00    +0.054 A 
ATOM     28  C   UNL     1      -2.618 -10.057  11.322  0.00  0.00    +0.003 A 
ATOM     29  C   UNL     1      -3.828  -9.605  10.799  0.00  0.00    +0.019 A 
BRANCH  27  30
ATOM      7  N   UNL     1      -7.244  -8.859  10.583  0.00  0.00    -0.191 NA
ATOM     30  C   UNL     1      -6.236  -9.237  11.020  0.00  0.00    +0.099 C 
ENDBRANCH  27  30
ENDBRANCH   6  21
BRANCH  18  20
ATOM      1  S   UNL     1      -9.987  -9.864  13.167  0.00  0.00    -0.096 S 
ATOM     20  C   UNL     1     -10.391 -10.177  14.805  0.00  0.00    +0.024 A 
ATOM     22  C   UNL     1     -11.665  -9.733  15.108  0.00  0.00    +0.016 A 
ATOM     23  C   UNL     1     -12.310  -9.134  13.987  0.00  0.00    +0.008 A 
ATOM     26  C   UNL     1     -11.509  -9.139  12.866  0.00  0.00    +0.046 A 
ENDBRANCH  18  20
TORSDOF 3
ENDMDL
MODEL 7
REMARK VINA RESULT:      -6.3     33.342     35.881
REMARK  Name = 7143792
REMARK  3 active torsions:
REMARK  status: ('A' for Active; 'I' for Inactive)
REMARK    1  A    between atoms: N_6  and  C_21
REMARK    2  A    between atoms: C_18  and  C_20
REMARK    3  A    between atoms: C_27  and  C_30
REMARK                            x       y       z     vdW  Elec       q    Type
REMARK                         _______ _______ _______ _____ _____    ______ ____
ROOT
ATOM      2  O   UNL     1      -9.762  -9.983  40.537  0.00  0.00    -0.267 OA
ATOM      3  O   UNL     1      -6.346  -5.664  38.735  0.00  0.00    -0.252 OA
ATOM      4  N   UNL     1      -5.886  -6.797  40.700  0.00  0.00    -0.284 N 
ATOM      5  N   UNL     1      -7.471  -9.559  40.456  0.00  0.00    -0.311 N 
ATOM      6  N   UNL     1      -7.558  -5.133  40.640  0.00  0.00    -0.269 N 
ATOM      8  C   UNL     1      -6.180  -8.580  42.436  0.00  0.00    +0.027 C 
ATOM      9  C   UNL     1      -4.997  -9.095  40.346  0.00  0.00    +0.054 C 
ATOM     10  C   UNL     1      -4.986  -9.325  41.855  0.00  0.00    +0.018 C 
ATOM     11  C   UNL     1      -6.096  -7.070  42.131  0.00  0.00    +0.114 C 
ATOM     12  C   UNL     1      -7.466  -9.204  41.881  0.00  0.00    +0.130 C 
ATOM     13  C   UNL     1      -4.830  -7.592  40.064  0.00  0.00    +0.119 C 
ATOM     14  C   UNL     1      -6.285  -9.595  39.718  0.00  0.00    +0.027 A 
ATOM     15  C   UNL     1      -6.292 -10.040  38.452  0.00  0.00    +0.022 A 
ATOM     16  C   UNL     1      -8.703  -9.965  39.907  0.00  0.00    +0.260 A 
ATOM     17  C   UNL     1      -6.593  -5.847  39.930  0.00  0.00    +0.306 C 
ATOM     18  C   UNL     1      -8.688 -10.418  38.472  0.00  0.00    +0.053 A 
ATOM     19  C   UNL     1      -7.515 -10.450  37.822  0.00  0.00    +0.016 A 
ATOM     31  H   UNL     1      -7.420  -5.000  41.636  0.00  0.00    +0.156 HD
ENDROOT
BRANCH   6  21
ATOM     21  C   UNL     1      -8.719  -4.512  40.119  0.00  0.00    +0.036 A 
ATOM     24  C   UNL     1      -8.639  -3.227  39.589  0.00  0.00    +0.042 A 
ATOM     25  C   UNL     1      -9.936  -5.191  40.140  0.00  0.00    +0.023 A 
ATOM     27  C   UNL     1      -9.784  -2.616  39.077  0.00  0.00    +0.054 A 
ATOM     28  C   UNL     1     -11.080  -4.579  39.627  0.00  0.00    +0.003 A 
ATOM     29  C   UNL     1     -11.004  -3.292  39.096  0.00  0.00    +0.019 A 
BRANCH  27  30
ATOM      7  N   UNL     1      -9.645  -0.225  38.089  0.00  0.00    -0.191 NA
ATOM     30  C   UNL     1      -9.707  -1.297  38.532  0.00  0.00    +0.099 C 
ENDBRANCH  27  30
ENDBRANCH   6  21
BRANCH  18  20
ATOM      1  S   UNL     1     -10.376 -12.466  37.719  0.00  0.00    -0.096 S 
ATOM     20  C   UNL     1      -9.928 -10.810  37.783  0.00  0.00    +0.024 A 
ATOM     22  C   UNL     1     -10.851 -10.010  37.136  0.00  0.00    +0.016 A 
ATOM     23  C   UNL     1     -11.931 -10.762  36.587  0.00  0.00    +0.008 A 
ATOM     26  C   UNL     1     -11.797 -12.111  36.832  0.00  0.00    +0.046 A 
ENDBRANCH  18  20
TORSDOF 3
ENDMDL
MODEL 8
REMARK VINA RESULT:      -6.3     26.168     29.560
REMARK  Name = 7143792
REMARK  3 active torsions:
REMARK  status: ('A' for Active; 'I' for Inactive)
REMARK    1  A    between atoms: N_6  and  C_21
REMARK    2  A    between atoms: C_18  and  C_20
REMARK    3  A    between atoms: C_27  and  C_30
REMARK                            x       y       z     vdW  Elec       q    Type
REMARK                         _______ _______ _______ _____ _____    ______ ____
ROOT
ATOM      2  O   UNL     1     -14.845   9.077  19.774  0.00  0.00    -0.267 OA
ATOM      3  O   UNL     1     -11.074   7.789  15.569  0.00  0.00    -0.252 OA
ATOM      4  N   UNL     1     -11.288   9.958  16.344  0.00  0.00    -0.284 N 
ATOM      5  N   UNL     1     -12.665   9.684  19.211  0.00  0.00    -0.311 N 
ATOM      6  N   UNL     1     -12.862   9.066  14.829  0.00  0.00    -0.269 N 
ATOM      8  C   UNL     1     -12.128  11.780  17.846  0.00  0.00    +0.027 C 
ATOM      9  C   UNL     1     -10.305  10.317  18.601  0.00  0.00    +0.054 C 
ATOM     10  C   UNL     1     -10.799  11.762  18.589  0.00  0.00    +0.018 C 
ATOM     11  C   UNL     1     -11.964  11.265  16.401  0.00  0.00    +0.114 C 
ATOM     12  C   UNL     1     -13.145  10.948  18.636  0.00  0.00    +0.130 C 
ATOM     13  C   UNL     1     -10.070   9.853  17.154  0.00  0.00    +0.119 C 
ATOM     14  C   UNL     1     -11.300   9.396  19.282  0.00  0.00    +0.027 A 
ATOM     15  C   UNL     1     -10.875   8.295  19.920  0.00  0.00    +0.022 A 
ATOM     16  C   UNL     1     -13.636   8.838  19.782  0.00  0.00    +0.260 A 
ATOM     17  C   UNL     1     -11.706   8.848  15.577  0.00  0.00    +0.306 C 
ATOM     18  C   UNL     1     -13.134   7.589  20.454  0.00  0.00    +0.053 A 
ATOM     19  C   UNL     1     -11.810   7.377  20.508  0.00  0.00    +0.016 A 
ATOM     31  H   UNL     1     -13.069  10.013  14.531  0.00  0.00    +0.156 HD
ENDROOT
BRANCH   6  21
ATOM     21  C   UNL     1     -13.787   8.093  14.379  0.00  0.00    +0.036 A 
ATOM     24  C   UNL     1     -14.860   7.729  15.190  0.00  0.00    +0.042 A 
ATOM     25  C   UNL     1     -13.619   7.504  13.128  0.00  0.00    +0.023 A 
ATOM     27  C   UNL     1     -15.769   6.770  14.746  0.00  0.00    +0.054 A 
ATOM     28  C   UNL     1     -14.530   6.545  12.685  0.00  0.00    +0.003 A 
ATOM     29  C   UNL     1     -15.605   6.177  13.494  0.00  0.00    +0.019 A 
BRANCH  27  30
ATOM      7  N   UNL     1     -17.767   6.087  16.247  0.00  0.00    -0.191 NA
ATOM     30  C   UNL     1     -16.871   6.393  15.575  0.00  0.00    +0.099 C 
ENDBRANCH  27  30
ENDBRANCH   6  21
BRANCH  18  20
ATOM      1  S   UNL     1     -13.503   5.503  22.223  0.00  0.00    -0.096 S 
ATOM     20  C   UNL     1     -14.065   6.607  21.035  0.00  0.00    +0.024 A 
ATOM     22  C   UNL     1     -15.407   6.418  20.762  0.00  0.00    +0.016 A 
ATOM     23  C   UNL     1     -15.974   5.362  21.533  0.00  0.00    +0.008 A 
ATOM     26  C   UNL     1     -15.047   4.778  22.368  0.00  0.00    +0.046 A 
ENDBRANCH  18  20
TORSDOF 3
ENDMDL
MODEL 9
REMARK VINA RESULT:      -6.2     28.072     30.075
REMARK  Name = 7143792
REMARK  3 active torsions:
REMARK  status: ('A' for Active; 'I' for Inactive)
REMARK    1  A    between atoms: N_6  and  C_21
REMARK    2  A    between atoms: C_18  and  C_20
REMARK    3  A    between atoms: C_27  and  C_30
REMARK                            x       y       z     vdW  Elec       q    Type
REMARK                         _______ _______ _______ _____ _____    ______ ____
ROOT
ATOM      2  O   UNL     1      -6.001 -12.372  10.873  0.00  0.00    -0.267 OA
ATOM      3  O   UNL     1      -3.728 -10.415  15.829  0.00  0.00    -0.252 OA
ATOM      4  N   UNL     1      -3.224 -12.534  15.051  0.00  0.00    -0.284 N 
ATOM      5  N   UNL     1      -3.928 -12.465  11.937  0.00  0.00    -0.311 N 
ATOM      6  N   UNL     1      -5.272 -12.116  16.144  0.00  0.00    -0.269 N 
ATOM      8  C   UNL     1      -3.226 -14.433  13.415  0.00  0.00    +0.027 C 
ATOM      9  C   UNL     1      -1.690 -12.543  13.091  0.00  0.00    +0.054 C 
ATOM     10  C   UNL     1      -1.807 -14.062  13.003  0.00  0.00    +0.018 C 
ATOM     11  C   UNL     1      -3.529 -13.960  14.851  0.00  0.00    +0.114 C 
ATOM     12  C   UNL     1      -4.205 -13.832  12.398  0.00  0.00    +0.130 C 
ATOM     13  C   UNL     1      -1.915 -12.103  14.547  0.00  0.00    +0.119 C 
ATOM     14  C   UNL     1      -2.696 -11.856  12.185  0.00  0.00    +0.027 A 
ATOM     15  C   UNL     1      -2.417 -10.657  11.652  0.00  0.00    +0.022 A 
ATOM     16  C   UNL     1      -4.918 -11.851  11.145  0.00  0.00    +0.260 A 
ATOM     17  C   UNL     1      -4.064 -11.593  15.685  0.00  0.00    +0.306 C 
ATOM     18  C   UNL     1      -4.594 -10.488  10.595  0.00  0.00    +0.053 A 
ATOM     19  C   UNL     1      -3.386  -9.963  10.851  0.00  0.00    +0.016 A 
ATOM     31  H   UNL     1      -5.305 -13.097  16.396  0.00  0.00    +0.156 HD
ENDROOT
BRANCH   6  21
ATOM     21  C   UNL     1      -6.485 -11.414  16.354  0.00  0.00    +0.036 A 
ATOM     24  C   UNL     1      -7.114 -11.472  17.595  0.00  0.00    +0.042 A 
ATOM     25  C   UNL     1      -7.042 -10.671  15.315  0.00  0.00    +0.023 A 
ATOM     27  C   UNL     1      -8.309 -10.782  17.799  0.00  0.00    +0.054 A 
ATOM     28  C   UNL     1      -8.236  -9.980  15.521  0.00  0.00    +0.003 A 
ATOM     29  C   UNL     1      -8.870 -10.035  16.762  0.00  0.00    +0.019 A 
BRANCH  27  30
ATOM      7  N   UNL     1      -9.487 -10.883  20.104  0.00  0.00    -0.191 NA
ATOM     30  C   UNL     1      -8.958 -10.838  19.070  0.00  0.00    +0.099 C 
ENDBRANCH  27  30
ENDBRANCH   6  21
BRANCH  18  20
ATOM      1  S   UNL     1      -5.620  -9.925   8.096  0.00  0.00    -0.096 S 
ATOM     20  C   UNL     1      -5.577  -9.732   9.801  0.00  0.00    +0.024 A 
ATOM     22  C   UNL     1      -6.534  -8.833  10.234  0.00  0.00    +0.016 A 
ATOM     23  C   UNL     1      -7.305  -8.303   9.159  0.00  0.00    +0.008 A 
ATOM     26  C   UNL     1      -6.911  -8.812   7.940  0.00  0.00    +0.046 A 
ENDBRANCH  18  20
TORSDOF 3
ENDMDL
MODEL 10
REMARK VINA RESULT:      -6.1     27.143     29.569
REMARK  Name = 7143792
REMARK  3 active torsions:
REMARK  status: ('A' for Active; 'I' for Inactive)
REMARK    1  A    between atoms: N_6  and  C_21
REMARK    2  A    between atoms: C_18  and  C_20
REMARK    3  A    between atoms: C_27  and  C_30
REMARK                            x       y       z     vdW  Elec       q    Type
REMARK                         _______ _______ _______ _____ _____    ______ ____
ROOT
ATOM      2  O   UNL     1     -12.981   6.039  22.311  0.00  0.00    -0.267 OA
ATOM      3  O   UNL     1     -14.166  11.508  20.810  0.00  0.00    -0.252 OA
ATOM      4  N   UNL     1     -12.485  10.326  19.747  0.00  0.00    -0.284 N 
ATOM      5  N   UNL     1     -13.135   7.254  20.327  0.00  0.00    -0.311 N 
ATOM      6  N   UNL     1     -12.118  11.279  21.874  0.00  0.00    -0.269 N 
ATOM      8  C   UNL     1     -11.098   8.313  19.197  0.00  0.00    +0.027 C 
ATOM      9  C   UNL     1     -13.323   8.575  18.190  0.00  0.00    +0.054 C 
ATOM     10  C   UNL     1     -11.888   8.136  17.908  0.00  0.00    +0.018 C 
ATOM     11  C   UNL     1     -11.120   9.781  19.666  0.00  0.00    +0.114 C 
ATOM     12  C   UNL     1     -11.672   7.366  20.258  0.00  0.00    +0.130 C 
ATOM     13  C   UNL     1     -13.329  10.063  18.576  0.00  0.00    +0.119 C 
ATOM     14  C   UNL     1     -13.945   7.752  19.303  0.00  0.00    +0.027 A 
ATOM     15  C   UNL     1     -15.269   7.533  19.323  0.00  0.00    +0.022 A 
ATOM     16  C   UNL     1     -13.666   6.527  21.411  0.00  0.00    +0.260 A 
ATOM     17  C   UNL     1     -13.013  11.070  20.825  0.00  0.00    +0.306 C 
ATOM     18  C   UNL     1     -15.159   6.333  21.428  0.00  0.00    +0.053 A 
ATOM     19  C   UNL     1     -15.881   6.817  20.407  0.00  0.00    +0.016 A 
ATOM     31  H   UNL     1     -11.127  11.298  21.662  0.00  0.00    +0.156 HD
ENDROOT
BRANCH   6  21
ATOM     21  C   UNL     1     -12.434  11.520  23.234  0.00  0.00    +0.036 A 
ATOM     24  C   UNL     1     -11.857  10.736  24.229  0.00  0.00    +0.042 A 
ATOM     25  C   UNL     1     -13.321  12.541  23.567  0.00  0.00    +0.023 A 
ATOM     27  C   UNL     1     -12.170  10.973  25.567  0.00  0.00    +0.054 A 
ATOM     28  C   UNL     1     -13.633  12.779  24.906  0.00  0.00    +0.003 A 
ATOM     29  C   UNL     1     -13.058  11.996  25.906  0.00  0.00    +0.019 A 
BRANCH  27  30
ATOM      7  N   UNL     1     -11.103   9.519  27.426  0.00  0.00    -0.191 NA
ATOM     30  C   UNL     1     -11.581  10.171  26.593  0.00  0.00    +0.099 C 
ENDBRANCH  27  30
ENDBRANCH   6  21
BRANCH  18  20
ATOM      1  S   UNL     1     -16.722   6.540  23.692  0.00  0.00    -0.096 S 
ATOM     20  C   UNL     1     -15.824   5.637  22.542  0.00  0.00    +0.024 A 
ATOM     22  C   UNL     1     -15.845   4.285  22.831  0.00  0.00    +0.016 A 
ATOM     23  C   UNL     1     -16.603   3.992  24.002  0.00  0.00    +0.008 A 
ATOM     26  C   UNL     1     -17.135   5.129  24.570  0.00  0.00    +0.046 A 
ENDBRANCH  18  20
TORSDOF 3
ENDMDL
