MODEL 1
REMARK VINA RESULT:      -6.5      0.000      0.000
REMARK  Name = 51136631
REMARK  12 active torsions:
REMARK  status: ('A' for Active; 'I' for Inactive)
REMARK    1  A    between atoms: O_1  and  C_20
REMARK    2  A    between atoms: O_4  and  C_26
REMARK    3  A    between atoms: O_4  and  C_33
REMARK    4  A    between atoms: O_5  and  C_27
REMARK    5  A    between atoms: O_5  and  C_35
REMARK    6  A    between atoms: O_6  and  C_29
REMARK    7  A    between atoms: O_6  and  C_36
REMARK    8  A    between atoms: N_9  and  C_28
REMARK    9  A    between atoms: C_10  and  C_15
REMARK   10  A    between atoms: C_11  and  C_16
REMARK   11  A    between atoms: C_15  and  C_17
REMARK   12  A    between atoms: C_16  and  C_20
REMARK                            x       y       z     vdW  Elec       q    Type
REMARK                         _______ _______ _______ _____ _____    ______ ____
ROOT
ATOM      2  O   UNL     1      16.872  12.376  19.173  0.00  0.00    -0.252 OA
ATOM      7  N   UNL     1      15.578  12.517  17.263  0.00  0.00    -0.285 N 
ATOM      9  N   UNL     1      14.676  11.633  19.256  0.00  0.00    -0.266 N 
ATOM     10  C   UNL     1      14.517  11.449  15.293  0.00  0.00    +0.016 C 
ATOM     11  C   UNL     1      15.684  11.983  14.421  0.00  0.00    +0.006 C 
ATOM     12  C   UNL     1      16.958  12.218  15.252  0.00  0.00    +0.023 C 
ATOM     13  C   UNL     1      14.322  12.368  16.511  0.00  0.00    +0.113 C 
ATOM     14  C   UNL     1      16.676  13.083  16.480  0.00  0.00    +0.109 C 
ATOM     18  C   UNL     1      15.784  12.194  18.621  0.00  0.00    +0.307 C 
ATOM     37  H   UNL     1      13.749  11.884  18.931  0.00  0.00    +0.156 HD
ENDROOT
BRANCH   9  28
ATOM     28  C   UNL     1      14.677  10.706  20.328  0.00  0.00    +0.077 A 
ATOM     29  C   UNL     1      13.494  10.389  20.996  0.00  0.00    +0.141 A 
ATOM     30  C   UNL     1      15.877  10.109  20.714  0.00  0.00    +0.027 A 
ATOM     31  C   UNL     1      13.511   9.476  22.051  0.00  0.00    +0.047 A 
ATOM     32  C   UNL     1      15.894   9.197  21.769  0.00  0.00    +0.002 A 
ATOM     34  C   UNL     1      14.712   8.880  22.437  0.00  0.00    +0.004 A 
BRANCH  29   6
ATOM      6  O   UNL     1      12.310  10.961  20.634  0.00  0.00    -0.493 OA
ATOM     36  C   UNL     1      11.672  11.794  21.599  0.00  0.00    +0.277 C 
ENDBRANCH  29   6
ENDBRANCH   9  28
BRANCH  10  15
ATOM     15  C   UNL     1      14.689   9.993  15.743  0.00  0.00    +0.061 C 
BRANCH  15  17
ATOM      8  N   UNL     1      12.346   9.674  15.320  0.00  0.00    -0.287 NA
ATOM     17  C   UNL     1      13.344   9.402  16.095  0.00  0.00    +0.044 C 
ATOM     19  C   UNL     1      13.233   8.551  17.306  0.00  0.00    +0.003 A 
ATOM     21  C   UNL     1      11.944   8.345  17.816  0.00  0.00    -0.033 A 
ATOM     22  C   UNL     1      10.784   8.998  17.126  0.00  0.00    +0.059 C 
ATOM     23  C   UNL     1      11.053   9.052  15.628  0.00  0.00    +0.146 C 
ATOM     24  C   UNL     1      14.342   7.982  17.935  0.00  0.00    +0.059 A 
ATOM     25  C   UNL     1      11.775   7.586  18.978  0.00  0.00    +0.053 A 
ATOM     26  C   UNL     1      14.161   7.214  19.086  0.00  0.00    +0.162 A 
ATOM     27  C   UNL     1      12.882   7.018  19.607  0.00  0.00    +0.162 A 
BRANCH  26   4
ATOM      4  O   UNL     1      15.247   6.659  19.695  0.00  0.00    -0.491 OA
ATOM     33  C   UNL     1      16.368   6.356  18.870  0.00  0.00    +0.277 C 
ENDBRANCH  26   4
BRANCH  27   5
ATOM      5  O   UNL     1      12.702   6.275  20.734  0.00  0.00    -0.491 OA
ATOM     35  C   UNL     1      11.453   6.416  21.410  0.00  0.00    +0.277 C 
ENDBRANCH  27   5
ENDBRANCH  15  17
ENDBRANCH  10  15
BRANCH  11  16
ATOM     16  C   UNL     1      15.984  11.096  13.213  0.00  0.00    +0.124 C 
BRANCH  16  20
ATOM      3  O   UNL     1      16.668  12.295  11.202  0.00  0.00    -0.251 OA
ATOM     20  C   UNL     1      15.789  11.838  11.919  0.00  0.00    +0.305 C 
BRANCH  20   1
ATOM      1  O   UNL     1      14.464  11.935  11.641  0.00  0.00    -0.481 OA
ATOM     38  H   UNL     1      13.927  11.346  12.212  0.00  0.00    +0.295 HD
ENDBRANCH  20   1
ENDBRANCH  16  20
ENDBRANCH  11  16
TORSDOF 9
ENDMDL
MODEL 2
REMARK VINA RESULT:      -6.1      2.072      4.907
REMARK  Name = 51136631
REMARK  12 active torsions:
REMARK  status: ('A' for Active; 'I' for Inactive)
REMARK    1  A    between atoms: O_1  and  C_20
REMARK    2  A    between atoms: O_4  and  C_26
REMARK    3  A    between atoms: O_4  and  C_33
REMARK    4  A    between atoms: O_5  and  C_27
REMARK    5  A    between atoms: O_5  and  C_35
REMARK    6  A    between atoms: O_6  and  C_29
REMARK    7  A    between atoms: O_6  and  C_36
REMARK    8  A    between atoms: N_9  and  C_28
REMARK    9  A    between atoms: C_10  and  C_15
REMARK   10  A    between atoms: C_11  and  C_16
REMARK   11  A    between atoms: C_15  and  C_17
REMARK   12  A    between atoms: C_16  and  C_20
REMARK                            x       y       z     vdW  Elec       q    Type
REMARK                         _______ _______ _______ _____ _____    ______ ____
ROOT
ATOM      2  O   UNL     1      10.593   8.457  17.703  0.00  0.00    -0.252 OA
ATOM      7  N   UNL     1      12.716   8.919  16.915  0.00  0.00    -0.285 N 
ATOM      9  N   UNL     1      12.375   8.377  19.186  0.00  0.00    -0.266 N 
ATOM     10  C   UNL     1      14.640  10.464  16.679  0.00  0.00    +0.016 C 
ATOM     11  C   UNL     1      14.144  10.808  15.250  0.00  0.00    +0.006 C 
ATOM     12  C   UNL     1      12.630  10.574  15.099  0.00  0.00    +0.023 C 
ATOM     13  C   UNL     1      14.174   9.049  17.060  0.00  0.00    +0.113 C 
ATOM     14  C   UNL     1      12.230   9.172  15.558  0.00  0.00    +0.109 C 
ATOM     18  C   UNL     1      11.801   8.563  17.928  0.00  0.00    +0.307 C 
ATOM     37  H   UNL     1      13.338   8.064  19.240  0.00  0.00    +0.156 HD
ENDROOT
BRANCH   9  28
ATOM     28  C   UNL     1      11.770   8.596  20.448  0.00  0.00    +0.077 A 
ATOM     29  C   UNL     1      11.262   7.529  21.188  0.00  0.00    +0.141 A 
ATOM     30  C   UNL     1      11.685   9.895  20.949  0.00  0.00    +0.027 A 
ATOM     31  C   UNL     1      10.668   7.760  22.429  0.00  0.00    +0.047 A 
ATOM     32  C   UNL     1      11.090  10.127  22.189  0.00  0.00    +0.002 A 
ATOM     34  C   UNL     1      10.582   9.060  22.929  0.00  0.00    +0.004 A 
BRANCH  29   6
ATOM      6  O   UNL     1      11.337   6.251  20.717  0.00  0.00    -0.493 OA
ATOM     36  C   UNL     1      10.978   5.207  21.619  0.00  0.00    +0.277 C 
ENDBRANCH  29   6
ENDBRANCH   9  28
BRANCH  10  15
ATOM     15  C   UNL     1      14.212  11.475  17.749  0.00  0.00    +0.061 C 
BRANCH  15  17
ATOM      8  N   UNL     1      15.824  13.220  18.103  0.00  0.00    -0.287 NA
ATOM     17  C   UNL     1      15.430  12.037  18.442  0.00  0.00    +0.044 C 
ATOM     19  C   UNL     1      16.117  11.208  19.465  0.00  0.00    +0.003 A 
ATOM     21  C   UNL     1      17.428  11.575  19.798  0.00  0.00    -0.033 A 
ATOM     22  C   UNL     1      18.046  12.750  19.101  0.00  0.00    +0.059 C 
ATOM     23  C   UNL     1      16.971  13.791  18.818  0.00  0.00    +0.146 C 
ATOM     24  C   UNL     1      15.515  10.105  20.073  0.00  0.00    +0.059 A 
ATOM     25  C   UNL     1      18.143  10.811  20.726  0.00  0.00    +0.053 A 
ATOM     26  C   UNL     1      16.231   9.358  21.008  0.00  0.00    +0.162 A 
ATOM     27  C   UNL     1      17.542   9.708  21.332  0.00  0.00    +0.162 A 
BRANCH  26   4
ATOM      4  O   UNL     1      15.638   8.282  21.599  0.00  0.00    -0.491 OA
ATOM     33  C   UNL     1      15.535   7.092  20.822  0.00  0.00    +0.277 C 
ENDBRANCH  26   4
BRANCH  27   5
ATOM      5  O   UNL     1      18.249   8.978  22.239  0.00  0.00    -0.491 OA
ATOM     35  C   UNL     1      19.168   8.018  21.722  0.00  0.00    +0.277 C 
ENDBRANCH  27   5
ENDBRANCH  15  17
ENDBRANCH  10  15
BRANCH  11  16
ATOM     16  C   UNL     1      14.517  12.223  14.809  0.00  0.00    +0.124 C 
BRANCH  16  20
ATOM      3  O   UNL     1      14.549  11.808  12.407  0.00  0.00    -0.251 OA
ATOM     20  C   UNL     1      15.086  12.237  13.417  0.00  0.00    +0.305 C 
BRANCH  20   1
ATOM      1  O   UNL     1      16.317  12.812  13.432  0.00  0.00    -0.481 OA
ATOM     38  H   UNL     1      16.984  12.257  12.976  0.00  0.00    +0.295 HD
ENDBRANCH  20   1
ENDBRANCH  16  20
ENDBRANCH  11  16
TORSDOF 9
ENDMDL
MODEL 3
REMARK VINA RESULT:      -5.9     27.414     30.156
REMARK  Name = 51136631
REMARK  12 active torsions:
REMARK  status: ('A' for Active; 'I' for Inactive)
REMARK    1  A    between atoms: O_1  and  C_20
REMARK    2  A    between atoms: O_4  and  C_26
REMARK    3  A    between atoms: O_4  and  C_33
REMARK    4  A    between atoms: O_5  and  C_27
REMARK    5  A    between atoms: O_5  and  C_35
REMARK    6  A    between atoms: O_6  and  C_29
REMARK    7  A    between atoms: O_6  and  C_36
REMARK    8  A    between atoms: N_9  and  C_28
REMARK    9  A    between atoms: C_10  and  C_15
REMARK   10  A    between atoms: C_11  and  C_16
REMARK   11  A    between atoms: C_15  and  C_17
REMARK   12  A    between atoms: C_16  and  C_20
REMARK                            x       y       z     vdW  Elec       q    Type
REMARK                         _______ _______ _______ _____ _____    ______ ____
ROOT
ATOM      2  O   UNL     1      -2.225 -10.845  12.963  0.00  0.00    -0.252 OA
ATOM      7  N   UNL     1      -3.731 -11.647  14.523  0.00  0.00    -0.285 N 
ATOM      9  N   UNL     1      -4.402 -11.283  12.291  0.00  0.00    -0.266 N 
ATOM     10  C   UNL     1      -5.639 -11.285  16.063  0.00  0.00    +0.016 C 
ATOM     11  C   UNL     1      -4.628 -11.190  17.236  0.00  0.00    +0.006 C 
ATOM     12  C   UNL     1      -3.235 -10.747  16.756  0.00  0.00    +0.023 C 
ATOM     13  C   UNL     1      -5.047 -12.155  14.942  0.00  0.00    +0.113 C 
ATOM     14  C   UNL     1      -2.739 -11.613  15.598  0.00  0.00    +0.109 C 
ATOM     18  C   UNL     1      -3.366 -11.237  13.223  0.00  0.00    +0.307 C 
ATOM     37  H   UNL     1      -5.140 -11.966  12.417  0.00  0.00    +0.156 HD
ENDROOT
BRANCH   9  28
ATOM     28  C   UNL     1      -4.573 -10.455  11.154  0.00  0.00    +0.077 A 
ATOM     29  C   UNL     1      -4.286 -10.933   9.876  0.00  0.00    +0.141 A 
ATOM     30  C   UNL     1      -5.034  -9.150  11.323  0.00  0.00    +0.027 A 
ATOM     31  C   UNL     1      -4.458 -10.105   8.766  0.00  0.00    +0.047 A 
ATOM     32  C   UNL     1      -5.205  -8.321  10.214  0.00  0.00    +0.002 A 
ATOM     34  C   UNL     1      -4.918  -8.799   8.936  0.00  0.00    +0.004 A 
BRANCH  29   6
ATOM      6  O   UNL     1      -3.835 -12.206   9.688  0.00  0.00    -0.493 OA
ATOM     36  C   UNL     1      -4.101 -12.807   8.423  0.00  0.00    +0.277 C 
ENDBRANCH  29   6
ENDBRANCH   9  28
BRANCH  10  15
ATOM     15  C   UNL     1      -6.082  -9.925  15.510  0.00  0.00    +0.061 C 
BRANCH  15  17
ATOM      8  N   UNL     1      -7.465 -10.283  13.579  0.00  0.00    -0.287 NA
ATOM     17  C   UNL     1      -7.435 -10.055  14.850  0.00  0.00    +0.044 C 
ATOM     19  C   UNL     1      -8.654  -9.909  15.685  0.00  0.00    +0.003 A 
ATOM     21  C   UNL     1      -9.853  -9.648  15.009  0.00  0.00    -0.033 A 
ATOM     22  C   UNL     1      -9.825  -9.521  13.515  0.00  0.00    +0.059 C 
ATOM     23  C   UNL     1      -8.776 -10.469  12.948  0.00  0.00    +0.146 C 
ATOM     24  C   UNL     1      -8.634 -10.008  17.077  0.00  0.00    +0.059 A 
ATOM     25  C   UNL     1     -11.030  -9.460  15.740  0.00  0.00    +0.053 A 
ATOM     26  C   UNL     1      -9.816  -9.834  17.797  0.00  0.00    +0.162 A 
ATOM     27  C   UNL     1     -11.011  -9.558  17.131  0.00  0.00    +0.162 A 
BRANCH  26   4
ATOM      4  O   UNL     1      -9.791  -9.934  19.156  0.00  0.00    -0.491 OA
ATOM     33  C   UNL     1      -9.921 -11.239  19.712  0.00  0.00    +0.277 C 
ENDBRANCH  26   4
BRANCH  27   5
ATOM      5  O   UNL     1     -12.166  -9.380  17.830  0.00  0.00    -0.491 OA
ATOM     35  C   UNL     1     -13.103 -10.456  17.817  0.00  0.00    +0.277 C 
ENDBRANCH  27   5
ENDBRANCH  15  17
ENDBRANCH  10  15
BRANCH  11  16
ATOM     16  C   UNL     1      -5.114 -10.297  18.377  0.00  0.00    +0.124 C 
BRANCH  16  20
ATOM      3  O   UNL     1      -6.236 -12.237  19.338  0.00  0.00    -0.251 OA
ATOM     20  C   UNL     1      -6.059 -11.028  19.291  0.00  0.00    +0.305 C 
BRANCH  20   1
ATOM      1  O   UNL     1      -6.710 -10.139  20.084  0.00  0.00    -0.481 OA
ATOM     38  H   UNL     1      -6.129  -9.788  20.791  0.00  0.00    +0.295 HD
ENDBRANCH  20   1
ENDBRANCH  16  20
ENDBRANCH  11  16
TORSDOF 9
ENDMDL
MODEL 4
REMARK VINA RESULT:      -5.9     27.862     30.374
REMARK  Name = 51136631
REMARK  12 active torsions:
REMARK  status: ('A' for Active; 'I' for Inactive)
REMARK    1  A    between atoms: O_1  and  C_20
REMARK    2  A    between atoms: O_4  and  C_26
REMARK    3  A    between atoms: O_4  and  C_33
REMARK    4  A    between atoms: O_5  and  C_27
REMARK    5  A    between atoms: O_5  and  C_35
REMARK    6  A    between atoms: O_6  and  C_29
REMARK    7  A    between atoms: O_6  and  C_36
REMARK    8  A    between atoms: N_9  and  C_28
REMARK    9  A    between atoms: C_10  and  C_15
REMARK   10  A    between atoms: C_11  and  C_16
REMARK   11  A    between atoms: C_15  and  C_17
REMARK   12  A    between atoms: C_16  and  C_20
REMARK                            x       y       z     vdW  Elec       q    Type
REMARK                         _______ _______ _______ _____ _____    ______ ____
ROOT
ATOM      2  O   UNL     1     -10.628  -9.978  17.142  0.00  0.00    -0.252 OA
ATOM      7  N   UNL     1      -8.341  -9.777  17.407  0.00  0.00    -0.285 N 
ATOM      9  N   UNL     1      -9.372  -9.132  15.385  0.00  0.00    -0.266 N 
ATOM     10  C   UNL     1      -6.040 -10.592  16.975  0.00  0.00    +0.016 C 
ATOM     11  C   UNL     1      -6.044 -11.243  18.383  0.00  0.00    +0.006 C 
ATOM     12  C   UNL     1      -7.473 -11.556  18.864  0.00  0.00    +0.023 C 
ATOM     13  C   UNL     1      -6.994  -9.387  16.961  0.00  0.00    +0.113 C 
ATOM     14  C   UNL     1      -8.381 -10.330  18.760  0.00  0.00    +0.109 C 
ATOM     18  C   UNL     1      -9.538  -9.641  16.673  0.00  0.00    +0.307 C 
ATOM     37  H   UNL     1      -8.595  -8.506  15.206  0.00  0.00    +0.156 HD
ENDROOT
BRANCH   9  28
ATOM     28  C   UNL     1     -10.169  -9.399  14.245  0.00  0.00    +0.077 A 
ATOM     29  C   UNL     1     -11.219  -8.551  13.895  0.00  0.00    +0.141 A 
ATOM     30  C   UNL     1      -9.895 -10.525  13.469  0.00  0.00    +0.027 A 
ATOM     31  C   UNL     1     -11.996  -8.829  12.771  0.00  0.00    +0.047 A 
ATOM     32  C   UNL     1     -10.672 -10.804  12.345  0.00  0.00    +0.002 A 
ATOM     34  C   UNL     1     -11.722  -9.955  11.995  0.00  0.00    +0.004 A 
BRANCH  29   6
ATOM      6  O   UNL     1     -11.503  -7.444  14.639  0.00  0.00    -0.493 OA
ATOM     36  C   UNL     1     -12.769  -6.826  14.424  0.00  0.00    +0.277 C 
ENDBRANCH  29   6
ENDBRANCH   9  28
BRANCH  10  15
ATOM     15  C   UNL     1      -6.385 -11.562  15.838  0.00  0.00    +0.061 C 
BRANCH  15  17
ATOM      8  N   UNL     1      -4.284 -12.589  15.289  0.00  0.00    -0.287 NA
ATOM     17  C   UNL     1      -5.190 -11.739  14.932  0.00  0.00    +0.044 C 
ATOM     19  C   UNL     1      -5.109 -10.929  13.690  0.00  0.00    +0.003 A 
ATOM     21  C   UNL     1      -3.849 -10.823  13.087  0.00  0.00    -0.033 A 
ATOM     22  C   UNL     1      -2.682 -11.509  13.733  0.00  0.00    +0.059 C 
ATOM     23  C   UNL     1      -3.153 -12.804  14.380  0.00  0.00    +0.146 C 
ATOM     24  C   UNL     1      -6.216 -10.284  13.135  0.00  0.00    +0.059 A 
ATOM     25  C   UNL     1      -3.698 -10.043  11.937  0.00  0.00    +0.053 A 
ATOM     26  C   UNL     1      -6.058  -9.520  11.978  0.00  0.00    +0.162 A 
ATOM     27  C   UNL     1      -4.802  -9.397  11.382  0.00  0.00    +0.162 A 
BRANCH  26   4
ATOM      4  O   UNL     1      -7.142  -8.893  11.439  0.00  0.00    -0.491 OA
ATOM     33  C   UNL     1      -7.858  -9.595  10.426  0.00  0.00    +0.277 C 
ENDBRANCH  26   4
BRANCH  27   5
ATOM      5  O   UNL     1      -4.642  -8.646  10.257  0.00  0.00    -0.491 OA
ATOM     35  C   UNL     1      -4.227  -9.330   9.076  0.00  0.00    +0.277 C 
ENDBRANCH  27   5
ENDBRANCH  15  17
ENDBRANCH  10  15
BRANCH  11  16
ATOM     16  C   UNL     1      -5.161 -12.487  18.473  0.00  0.00    +0.124 C 
BRANCH  16  20
ATOM      3  O   UNL     1      -3.316 -12.234  20.047  0.00  0.00    -0.251 OA
ATOM     20  C   UNL     1      -3.764 -12.145  18.914  0.00  0.00    +0.305 C 
BRANCH  20   1
ATOM      1  O   UNL     1      -3.042 -11.710  17.849  0.00  0.00    -0.481 OA
ATOM     38  H   UNL     1      -3.611 -11.524  17.073  0.00  0.00    +0.295 HD
ENDBRANCH  20   1
ENDBRANCH  16  20
ENDBRANCH  11  16
TORSDOF 9
ENDMDL
MODEL 5
REMARK VINA RESULT:      -5.8     12.361     16.833
REMARK  Name = 51136631
REMARK  12 active torsions:
REMARK  status: ('A' for Active; 'I' for Inactive)
REMARK    1  A    between atoms: O_1  and  C_20
REMARK    2  A    between atoms: O_4  and  C_26
REMARK    3  A    between atoms: O_4  and  C_33
REMARK    4  A    between atoms: O_5  and  C_27
REMARK    5  A    between atoms: O_5  and  C_35
REMARK    6  A    between atoms: O_6  and  C_29
REMARK    7  A    between atoms: O_6  and  C_36
REMARK    8  A    between atoms: N_9  and  C_28
REMARK    9  A    between atoms: C_10  and  C_15
REMARK   10  A    between atoms: C_11  and  C_16
REMARK   11  A    between atoms: C_15  and  C_17
REMARK   12  A    between atoms: C_16  and  C_20
REMARK                            x       y       z     vdW  Elec       q    Type
REMARK                         _______ _______ _______ _____ _____    ______ ____
ROOT
ATOM      2  O   UNL     1      10.179   3.848   0.826  0.00  0.00    -0.252 OA
ATOM      7  N   UNL     1      12.485   3.752   0.959  0.00  0.00    -0.285 N 
ATOM      9  N   UNL     1      11.234   4.815   2.653  0.00  0.00    -0.266 N 
ATOM     10  C   UNL     1      14.705   4.831   0.726  0.00  0.00    +0.016 C 
ATOM     11  C   UNL     1      14.856   4.141  -0.655  0.00  0.00    +0.006 C 
ATOM     12  C   UNL     1      13.489   3.815  -1.284  0.00  0.00    +0.023 C 
ATOM     13  C   UNL     1      13.776   3.994   1.621  0.00  0.00    +0.113 C 
ATOM     14  C   UNL     1      12.596   3.041  -0.315  0.00  0.00    +0.109 C 
ATOM     18  C   UNL     1      11.212   4.115   1.447  0.00  0.00    +0.307 C 
ATOM     37  H   UNL     1      11.994   4.645   3.301  0.00  0.00    +0.156 HD
ENDROOT
BRANCH   9  28
ATOM     28  C   UNL     1      10.303   5.785   3.101  0.00  0.00    +0.077 A 
ATOM     29  C   UNL     1       9.772   5.720   4.388  0.00  0.00    +0.141 A 
ATOM     30  C   UNL     1       9.919   6.812   2.239  0.00  0.00    +0.027 A 
ATOM     31  C   UNL     1       8.855   6.682   4.815  0.00  0.00    +0.047 A 
ATOM     32  C   UNL     1       9.002   7.773   2.665  0.00  0.00    +0.002 A 
ATOM     34  C   UNL     1       8.471   7.708   3.952  0.00  0.00    +0.004 A 
BRANCH  29   6
ATOM      6  O   UNL     1      10.135   4.725   5.247  0.00  0.00    -0.493 OA
ATOM     36  C   UNL     1       9.856   4.930   6.630  0.00  0.00    +0.277 C 
ENDBRANCH  29   6
ENDBRANCH   9  28
BRANCH  10  15
ATOM     15  C   UNL     1      14.212   6.281   0.650  0.00  0.00    +0.061 C 
BRANCH  15  17
ATOM      8  N   UNL     1      16.276   7.507   0.588  0.00  0.00    -0.287 NA
ATOM     17  C   UNL     1      15.228   7.203   1.280  0.00  0.00    +0.044 C 
ATOM     19  C   UNL     1      14.980   7.706   2.655  0.00  0.00    +0.003 A 
ATOM     21  C   UNL     1      16.084   8.222   3.347  0.00  0.00    -0.033 A 
ATOM     22  C   UNL     1      17.423   8.219   2.670  0.00  0.00    +0.059 C 
ATOM     23  C   UNL     1      17.234   8.450   1.177  0.00  0.00    +0.146 C 
ATOM     24  C   UNL     1      13.722   7.667   3.259  0.00  0.00    +0.059 A 
ATOM     25  C   UNL     1      15.925   8.676   4.659  0.00  0.00    +0.053 A 
ATOM     26  C   UNL     1      13.571   8.136   4.565  0.00  0.00    +0.162 A 
ATOM     27  C   UNL     1      14.669   8.636   5.264  0.00  0.00    +0.162 A 
BRANCH  26   4
ATOM      4  O   UNL     1      12.340   8.097   5.150  0.00  0.00    -0.491 OA
ATOM     33  C   UNL     1      11.525   9.259   5.021  0.00  0.00    +0.277 C 
ENDBRANCH  26   4
BRANCH  27   5
ATOM      5  O   UNL     1      14.528   9.088   6.541  0.00  0.00    -0.491 OA
ATOM     35  C   UNL     1      14.622  10.497   6.743  0.00  0.00    +0.277 C 
ENDBRANCH  27   5
ENDBRANCH  15  17
ENDBRANCH  10  15
BRANCH  11  16
ATOM     16  C   UNL     1      15.723   4.935  -1.631  0.00  0.00    +0.124 C 
BRANCH  16  20
ATOM      3  O   UNL     1      18.123   5.177  -1.988  0.00  0.00    -0.251 OA
ATOM     20  C   UNL     1      17.178   4.576  -1.499  0.00  0.00    +0.305 C 
BRANCH  20   1
ATOM      1  O   UNL     1      17.306   3.459  -0.738  0.00  0.00    -0.481 OA
ATOM     38  H   UNL     1      16.521   3.312  -0.170  0.00  0.00    +0.295 HD
ENDBRANCH  20   1
ENDBRANCH  16  20
ENDBRANCH  11  16
TORSDOF 9
ENDMDL
MODEL 6
REMARK VINA RESULT:      -5.8     26.340     29.663
REMARK  Name = 51136631
REMARK  12 active torsions:
REMARK  status: ('A' for Active; 'I' for Inactive)
REMARK    1  A    between atoms: O_1  and  C_20
REMARK    2  A    between atoms: O_4  and  C_26
REMARK    3  A    between atoms: O_4  and  C_33
REMARK    4  A    between atoms: O_5  and  C_27
REMARK    5  A    between atoms: O_5  and  C_35
REMARK    6  A    between atoms: O_6  and  C_29
REMARK    7  A    between atoms: O_6  and  C_36
REMARK    8  A    between atoms: N_9  and  C_28
REMARK    9  A    between atoms: C_10  and  C_15
REMARK   10  A    between atoms: C_11  and  C_16
REMARK   11  A    between atoms: C_15  and  C_17
REMARK   12  A    between atoms: C_16  and  C_20
REMARK                            x       y       z     vdW  Elec       q    Type
REMARK                         _______ _______ _______ _____ _____    ______ ____
ROOT
ATOM      2  O   UNL     1      -5.602 -14.813  11.586  0.00  0.00    -0.252 OA
ATOM      7  N   UNL     1      -3.874 -13.294  11.362  0.00  0.00    -0.285 N 
ATOM      9  N   UNL     1      -4.245 -14.389  13.419  0.00  0.00    -0.266 N 
ATOM     10  C   UNL     1      -2.923 -11.038  11.750  0.00  0.00    +0.016 C 
ATOM     11  C   UNL     1      -3.304 -10.665  10.294  0.00  0.00    +0.006 C 
ATOM     12  C   UNL     1      -4.476 -11.517   9.774  0.00  0.00    +0.023 C 
ATOM     13  C   UNL     1      -2.699 -12.556  11.852  0.00  0.00    +0.113 C 
ATOM     14  C   UNL     1      -4.214 -13.011   9.968  0.00  0.00    +0.109 C 
ATOM     18  C   UNL     1      -4.643 -14.225  12.092  0.00  0.00    +0.307 C 
ATOM     37  H   UNL     1      -3.271 -14.240  13.657  0.00  0.00    +0.156 HD
ENDROOT
BRANCH   9  28
ATOM     28  C   UNL     1      -5.060 -14.734  14.525  0.00  0.00    +0.077 A 
ATOM     29  C   UNL     1      -4.841 -15.916  15.230  0.00  0.00    +0.141 A 
ATOM     30  C   UNL     1      -6.091 -13.875  14.907  0.00  0.00    +0.027 A 
ATOM     31  C   UNL     1      -5.654 -16.243  16.316  0.00  0.00    +0.047 A 
ATOM     32  C   UNL     1      -6.905 -14.202  15.992  0.00  0.00    +0.002 A 
ATOM     34  C   UNL     1      -6.685 -15.385  16.697  0.00  0.00    +0.004 A 
BRANCH  29   6
ATOM      6  O   UNL     1      -3.838 -16.769  14.874  0.00  0.00    -0.493 OA
ATOM     36  C   UNL     1      -2.745 -16.896  15.781  0.00  0.00    +0.277 C 
ENDBRANCH  29   6
ENDBRANCH   9  28
BRANCH  10  15
ATOM     15  C   UNL     1      -3.939 -10.574  12.800  0.00  0.00    +0.061 C 
BRANCH  15  17
ATOM      8  N   UNL     1      -1.989 -10.282  14.172  0.00  0.00    -0.287 NA
ATOM     17  C   UNL     1      -3.269 -10.459  14.149  0.00  0.00    +0.044 C 
ATOM     19  C   UNL     1      -4.104 -10.563  15.373  0.00  0.00    +0.003 A 
ATOM     21  C   UNL     1      -3.434 -10.840  16.572  0.00  0.00    -0.033 A 
ATOM     22  C   UNL     1      -1.946 -11.027  16.538  0.00  0.00    +0.059 C 
ATOM     23  C   UNL     1      -1.347 -10.110  15.480  0.00  0.00    +0.146 C 
ATOM     24  C   UNL     1      -5.491 -10.408  15.357  0.00  0.00    +0.059 A 
ATOM     25  C   UNL     1      -4.166 -10.990  17.753  0.00  0.00    +0.053 A 
ATOM     26  C   UNL     1      -6.212 -10.544  16.544  0.00  0.00    +0.162 A 
ATOM     27  C   UNL     1      -5.553 -10.837  17.738  0.00  0.00    +0.162 A 
BRANCH  26   4
ATOM      4  O   UNL     1      -7.567 -10.392  16.523  0.00  0.00    -0.491 OA
ATOM     33  C   UNL     1      -8.079  -9.110  16.876  0.00  0.00    +0.277 C 
ENDBRANCH  26   4
BRANCH  27   5
ATOM      5  O   UNL     1      -6.253 -10.978  18.897  0.00  0.00    -0.491 OA
ATOM     35  C   UNL     1      -6.814 -12.262  19.163  0.00  0.00    +0.277 C 
ENDBRANCH  27   5
ENDBRANCH  15  17
ENDBRANCH  10  15
BRANCH  11  16
ATOM     16  C   UNL     1      -3.599  -9.176  10.112  0.00  0.00    +0.124 C 
BRANCH  16  20
ATOM      3  O   UNL     1      -6.017  -8.867  10.077  0.00  0.00    -0.251 OA
ATOM     20  C   UNL     1      -4.949  -8.950   9.489  0.00  0.00    +0.305 C 
BRANCH  20   1
ATOM      1  O   UNL     1      -4.819  -8.844   8.142  0.00  0.00    -0.481 OA
ATOM     38  H   UNL     1      -4.507  -9.680   7.738  0.00  0.00    +0.295 HD
ENDBRANCH  20   1
ENDBRANCH  16  20
ENDBRANCH  11  16
TORSDOF 9
ENDMDL
MODEL 7
REMARK VINA RESULT:      -5.6     11.597     15.561
REMARK  Name = 51136631
REMARK  12 active torsions:
REMARK  status: ('A' for Active; 'I' for Inactive)
REMARK    1  A    between atoms: O_1  and  C_20
REMARK    2  A    between atoms: O_4  and  C_26
REMARK    3  A    between atoms: O_4  and  C_33
REMARK    4  A    between atoms: O_5  and  C_27
REMARK    5  A    between atoms: O_5  and  C_35
REMARK    6  A    between atoms: O_6  and  C_29
REMARK    7  A    between atoms: O_6  and  C_36
REMARK    8  A    between atoms: N_9  and  C_28
REMARK    9  A    between atoms: C_10  and  C_15
REMARK   10  A    between atoms: C_11  and  C_16
REMARK   11  A    between atoms: C_15  and  C_17
REMARK   12  A    between atoms: C_16  and  C_20
REMARK                            x       y       z     vdW  Elec       q    Type
REMARK                         _______ _______ _______ _____ _____    ______ ____
ROOT
ATOM      2  O   UNL     1      15.324  10.217   6.445  0.00  0.00    -0.252 OA
ATOM      7  N   UNL     1      13.720   8.567   6.665  0.00  0.00    -0.285 N 
ATOM      9  N   UNL     1      15.847   8.057   5.780  0.00  0.00    -0.266 N 
ATOM     10  C   UNL     1      11.999   7.086   5.669  0.00  0.00    +0.016 C 
ATOM     11  C   UNL     1      10.911   8.070   6.176  0.00  0.00    +0.006 C 
ATOM     12  C   UNL     1      11.466   9.495   6.351  0.00  0.00    +0.023 C 
ATOM     13  C   UNL     1      13.239   7.179   6.574  0.00  0.00    +0.113 C 
ATOM     14  C   UNL     1      12.734   9.503   7.205  0.00  0.00    +0.109 C 
ATOM     18  C   UNL     1      15.004   9.033   6.312  0.00  0.00    +0.307 C 
ATOM     37  H   UNL     1      15.720   7.094   6.069  0.00  0.00    +0.156 HD
ENDROOT
BRANCH   9  28
ATOM     28  C   UNL     1      16.887   8.241   4.835  0.00  0.00    +0.077 A 
ATOM     29  C   UNL     1      18.203   8.438   5.255  0.00  0.00    +0.141 A 
ATOM     30  C   UNL     1      16.585   8.225   3.474  0.00  0.00    +0.027 A 
ATOM     31  C   UNL     1      19.216   8.619   4.313  0.00  0.00    +0.047 A 
ATOM     32  C   UNL     1      17.598   8.408   2.532  0.00  0.00    +0.002 A 
ATOM     34  C   UNL     1      18.913   8.604   2.952  0.00  0.00    +0.004 A 
BRANCH  29   6
ATOM      6  O   UNL     1      18.520   8.455   6.581  0.00  0.00    -0.493 OA
ATOM     36  C   UNL     1      19.906   8.454   6.915  0.00  0.00    +0.277 C 
ENDBRANCH  29   6
ENDBRANCH   9  28
BRANCH  10  15
ATOM     15  C   UNL     1      12.390   7.290   4.201  0.00  0.00    +0.061 C 
BRANCH  15  17
ATOM      8  N   UNL     1      10.901   5.470   3.712  0.00  0.00    -0.287 NA
ATOM     17  C   UNL     1      11.995   6.079   3.391  0.00  0.00    +0.044 C 
ATOM     19  C   UNL     1      12.878   5.643   2.279  0.00  0.00    +0.003 A 
ATOM     21  C   UNL     1      12.705   4.334   1.812  0.00  0.00    -0.033 A 
ATOM     22  C   UNL     1      11.668   3.468   2.463  0.00  0.00    +0.059 C 
ATOM     23  C   UNL     1      10.486   4.329   2.888  0.00  0.00    +0.146 C 
ATOM     24  C   UNL     1      13.850   6.473   1.716  0.00  0.00    +0.059 A 
ATOM     25  C   UNL     1      13.531   3.850   0.793  0.00  0.00    +0.053 A 
ATOM     26  C   UNL     1      14.660   5.986   0.690  0.00  0.00    +0.162 A 
ATOM     27  C   UNL     1      14.503   4.677   0.232  0.00  0.00    +0.162 A 
BRANCH  26   4
ATOM      4  O   UNL     1      15.606   6.800   0.143  0.00  0.00    -0.491 OA
ATOM     33  C   UNL     1      15.171   8.071  -0.331  0.00  0.00    +0.277 C 
ENDBRANCH  26   4
BRANCH  27   5
ATOM      5  O   UNL     1      15.297   4.195  -0.765  0.00  0.00    -0.491 OA
ATOM     35  C   UNL     1      14.812   4.329  -2.100  0.00  0.00    +0.277 C 
ENDBRANCH  27   5
ENDBRANCH  15  17
ENDBRANCH  10  15
BRANCH  11  16
ATOM     16  C   UNL     1       9.659   8.083   5.300  0.00  0.00    +0.124 C 
BRANCH  16  20
ATOM      3  O   UNL     1       7.918   7.703   6.964  0.00  0.00    -0.251 OA
ATOM     20  C   UNL     1       8.516   7.358   5.956  0.00  0.00    +0.305 C 
BRANCH  20   1
ATOM      1  O   UNL     1       8.226   6.232   5.254  0.00  0.00    -0.481 OA
ATOM     38  H   UNL     1       7.401   6.329   4.734  0.00  0.00    +0.295 HD
ENDBRANCH  20   1
ENDBRANCH  16  20
ENDBRANCH  11  16
TORSDOF 9
ENDMDL
MODEL 8
REMARK VINA RESULT:      -5.5      4.093      5.982
REMARK  Name = 51136631
REMARK  12 active torsions:
REMARK  status: ('A' for Active; 'I' for Inactive)
REMARK    1  A    between atoms: O_1  and  C_20
REMARK    2  A    between atoms: O_4  and  C_26
REMARK    3  A    between atoms: O_4  and  C_33
REMARK    4  A    between atoms: O_5  and  C_27
REMARK    5  A    between atoms: O_5  and  C_35
REMARK    6  A    between atoms: O_6  and  C_29
REMARK    7  A    between atoms: O_6  and  C_36
REMARK    8  A    between atoms: N_9  and  C_28
REMARK    9  A    between atoms: C_10  and  C_15
REMARK   10  A    between atoms: C_11  and  C_16
REMARK   11  A    between atoms: C_15  and  C_17
REMARK   12  A    between atoms: C_16  and  C_20
REMARK                            x       y       z     vdW  Elec       q    Type
REMARK                         _______ _______ _______ _____ _____    ______ ____
ROOT
ATOM      2  O   UNL     1      16.511  13.098  23.696  0.00  0.00    -0.252 OA
ATOM      7  N   UNL     1      17.579  11.880  22.048  0.00  0.00    -0.285 N 
ATOM      9  N   UNL     1      15.305  12.465  21.818  0.00  0.00    -0.266 N 
ATOM     10  C   UNL     1      18.031   9.725  20.909  0.00  0.00    +0.016 C 
ATOM     11  C   UNL     1      19.360   9.624  21.704  0.00  0.00    +0.006 C 
ATOM     12  C   UNL     1      19.299  10.419  23.021  0.00  0.00    +0.023 C 
ATOM     13  C   UNL     1      17.641  11.203  20.743  0.00  0.00    +0.113 C 
ATOM     14  C   UNL     1      18.841  11.858  22.788  0.00  0.00    +0.109 C 
ATOM     18  C   UNL     1      16.459  12.537  22.599  0.00  0.00    +0.307 C 
ATOM     37  H   UNL     1      15.402  12.388  20.812  0.00  0.00    +0.156 HD
ENDROOT
BRANCH   9  28
ATOM     28  C   UNL     1      13.961  12.467  22.267  0.00  0.00    +0.077 A 
ATOM     29  C   UNL     1      13.004  13.266  21.643  0.00  0.00    +0.141 A 
ATOM     30  C   UNL     1      13.600  11.659  23.345  0.00  0.00    +0.027 A 
ATOM     31  C   UNL     1      11.685  13.259  22.098  0.00  0.00    +0.047 A 
ATOM     32  C   UNL     1      12.281  11.652  23.801  0.00  0.00    +0.002 A 
ATOM     34  C   UNL     1      11.324  12.451  23.177  0.00  0.00    +0.004 A 
BRANCH  29   6
ATOM      6  O   UNL     1      13.336  14.062  20.587  0.00  0.00    -0.493 OA
ATOM     36  C   UNL     1      12.919  13.628  19.294  0.00  0.00    +0.277 C 
ENDBRANCH  29   6
ENDBRANCH   9  28
BRANCH  10  15
ATOM     15  C   UNL     1      16.873   8.931  21.525  0.00  0.00    +0.061 C 
BRANCH  15  17
ATOM      8  N   UNL     1      17.136   7.016  20.100  0.00  0.00    -0.287 NA
ATOM     17  C   UNL     1      16.337   7.941  20.519  0.00  0.00    +0.044 C 
ATOM     19  C   UNL     1      14.932   8.080  20.058  0.00  0.00    +0.003 A 
ATOM     21  C   UNL     1      14.588   7.417  18.873  0.00  0.00    -0.033 A 
ATOM     22  C   UNL     1      15.646   6.636  18.152  0.00  0.00    +0.059 C 
ATOM     23  C   UNL     1      16.598   6.018  19.168  0.00  0.00    +0.146 C 
ATOM     24  C   UNL     1      13.983   8.839  20.745  0.00  0.00    +0.059 A 
ATOM     25  C   UNL     1      13.292   7.540  18.364  0.00  0.00    +0.053 A 
ATOM     26  C   UNL     1      12.687   8.944  20.237  0.00  0.00    +0.162 A 
ATOM     27  C   UNL     1      12.343   8.299  19.049  0.00  0.00    +0.162 A 
BRANCH  26   4
ATOM      4  O   UNL     1      11.764   9.685  20.913  0.00  0.00    -0.491 OA
ATOM     33  C   UNL     1      10.917   8.990  21.824  0.00  0.00    +0.277 C 
ENDBRANCH  26   4
BRANCH  27   5
ATOM      5  O   UNL     1      11.082   8.405  18.546  0.00  0.00    -0.491 OA
ATOM     35  C   UNL     1      10.958   8.528  17.130  0.00  0.00    +0.277 C 
ENDBRANCH  27   5
ENDBRANCH  15  17
ENDBRANCH  10  15
BRANCH  11  16
ATOM     16  C   UNL     1      19.796   8.183  21.964  0.00  0.00    +0.124 C 
BRANCH  16  20
ATOM      3  O   UNL     1      21.746   8.115  20.502  0.00  0.00    -0.251 OA
ATOM     20  C   UNL     1      20.669   7.660  20.856  0.00  0.00    +0.305 C 
BRANCH  20   1
ATOM      1  O   UNL     1      20.083   6.577  20.283  0.00  0.00    -0.481 OA
ATOM     38  H   UNL     1      19.363   6.834  19.668  0.00  0.00    +0.295 HD
ENDBRANCH  20   1
ENDBRANCH  16  20
ENDBRANCH  11  16
TORSDOF 9
ENDMDL
MODEL 9
REMARK VINA RESULT:      -5.4     17.442     21.442
REMARK  Name = 51136631
REMARK  12 active torsions:
REMARK  status: ('A' for Active; 'I' for Inactive)
REMARK    1  A    between atoms: O_1  and  C_20
REMARK    2  A    between atoms: O_4  and  C_26
REMARK    3  A    between atoms: O_4  and  C_33
REMARK    4  A    between atoms: O_5  and  C_27
REMARK    5  A    between atoms: O_5  and  C_35
REMARK    6  A    between atoms: O_6  and  C_29
REMARK    7  A    between atoms: O_6  and  C_36
REMARK    8  A    between atoms: N_9  and  C_28
REMARK    9  A    between atoms: C_10  and  C_15
REMARK   10  A    between atoms: C_11  and  C_16
REMARK   11  A    between atoms: C_15  and  C_17
REMARK   12  A    between atoms: C_16  and  C_20
REMARK                            x       y       z     vdW  Elec       q    Type
REMARK                         _______ _______ _______ _____ _____    ______ ____
ROOT
ATOM      2  O   UNL     1      -1.134  11.806   7.857  0.00  0.00    -0.252 OA
ATOM      7  N   UNL     1      -1.510  10.019   6.441  0.00  0.00    -0.285 N 
ATOM      9  N   UNL     1       0.181  11.591   5.958  0.00  0.00    -0.266 N 
ATOM     10  C   UNL     1      -2.445   9.090   4.341  0.00  0.00    +0.016 C 
ATOM     11  C   UNL     1      -3.662   8.574   5.153  0.00  0.00    +0.006 C 
ATOM     12  C   UNL     1      -3.890   9.402   6.431  0.00  0.00    +0.023 C 
ATOM     13  C   UNL     1      -1.217   9.190   5.261  0.00  0.00    +0.113 C 
ATOM     14  C   UNL     1      -2.611   9.514   7.262  0.00  0.00    +0.109 C 
ATOM     18  C   UNL     1      -0.828  11.189   6.834  0.00  0.00    +0.307 C 
ATOM     37  H   UNL     1       0.661  10.885   5.412  0.00  0.00    +0.156 HD
ENDROOT
BRANCH   9  28
ATOM     28  C   UNL     1       0.629  12.912   5.710  0.00  0.00    +0.077 A 
ATOM     29  C   UNL     1       1.872  13.341   6.175  0.00  0.00    +0.141 A 
ATOM     30  C   UNL     1      -0.187  13.786   4.993  0.00  0.00    +0.027 A 
ATOM     31  C   UNL     1       2.298  14.645   5.924  0.00  0.00    +0.047 A 
ATOM     32  C   UNL     1       0.239  15.091   4.743  0.00  0.00    +0.002 A 
ATOM     34  C   UNL     1       1.481  15.520   5.208  0.00  0.00    +0.004 A 
BRANCH  29   6
ATOM      6  O   UNL     1       2.686  12.502   6.877  0.00  0.00    -0.493 OA
ATOM     36  C   UNL     1       2.706  12.655   8.294  0.00  0.00    +0.277 C 
ENDBRANCH  29   6
ENDBRANCH   9  28
BRANCH  10  15
ATOM     15  C   UNL     1      -2.691  10.426   3.629  0.00  0.00    +0.061 C 
BRANCH  15  17
ATOM      8  N   UNL     1      -3.413   9.987   1.381  0.00  0.00    -0.287 NA
ATOM     17  C   UNL     1      -2.417  10.278   2.151  0.00  0.00    +0.044 C 
ATOM     19  C   UNL     1      -1.029  10.463   1.659  0.00  0.00    +0.003 A 
ATOM     21  C   UNL     1      -0.736   9.950   0.389  0.00  0.00    -0.033 A 
ATOM     22  C   UNL     1      -1.820   9.247  -0.372  0.00  0.00    +0.059 C 
ATOM     23  C   UNL     1      -3.160   9.902  -0.062  0.00  0.00    +0.146 C 
ATOM     24  C   UNL     1      -0.040  11.102   2.410  0.00  0.00    +0.059 A 
ATOM     25  C   UNL     1       0.564  10.057  -0.116  0.00  0.00    +0.053 A 
ATOM     26  C   UNL     1       1.251  11.217   1.891  0.00  0.00    +0.162 A 
ATOM     27  C   UNL     1       1.553  10.694   0.634  0.00  0.00    +0.162 A 
BRANCH  26   4
ATOM      4  O   UNL     1       2.212  11.842   2.628  0.00  0.00    -0.491 OA
ATOM     33  C   UNL     1       2.407  13.234   2.390  0.00  0.00    +0.277 C 
ENDBRANCH  26   4
BRANCH  27   5
ATOM      5  O   UNL     1       2.813  10.798   0.127  0.00  0.00    -0.491 OA
ATOM     35  C   UNL     1       3.740   9.774   0.483  0.00  0.00    +0.277 C 
ENDBRANCH  27   5
ENDBRANCH  15  17
ENDBRANCH  10  15
BRANCH  11  16
ATOM     16  C   UNL     1      -4.945   8.495   4.327  0.00  0.00    +0.124 C 
BRANCH  16  20
ATOM      3  O   UNL     1      -6.755   6.872   4.148  0.00  0.00    -0.251 OA
ATOM     20  C   UNL     1      -5.606   7.150   4.455  0.00  0.00    +0.305 C 
BRANCH  20   1
ATOM      1  O   UNL     1      -4.726   6.256   4.973  0.00  0.00    -0.481 OA
ATOM     38  H   UNL     1      -3.798   6.553   4.867  0.00  0.00    +0.295 HD
ENDBRANCH  20   1
ENDBRANCH  16  20
ENDBRANCH  11  16
TORSDOF 9
ENDMDL
MODEL 10
REMARK VINA RESULT:      -5.4     25.821     28.968
REMARK  Name = 51136631
REMARK  12 active torsions:
REMARK  status: ('A' for Active; 'I' for Inactive)
REMARK    1  A    between atoms: O_1  and  C_20
REMARK    2  A    between atoms: O_4  and  C_26
REMARK    3  A    between atoms: O_4  and  C_33
REMARK    4  A    between atoms: O_5  and  C_27
REMARK    5  A    between atoms: O_5  and  C_35
REMARK    6  A    between atoms: O_6  and  C_29
REMARK    7  A    between atoms: O_6  and  C_36
REMARK    8  A    between atoms: N_9  and  C_28
REMARK    9  A    between atoms: C_10  and  C_15
REMARK   10  A    between atoms: C_11  and  C_16
REMARK   11  A    between atoms: C_15  and  C_17
REMARK   12  A    between atoms: C_16  and  C_20
REMARK                            x       y       z     vdW  Elec       q    Type
REMARK                         _______ _______ _______ _____ _____    ______ ____
ROOT
ATOM      2  O   UNL     1     -15.504  12.438  26.530  0.00  0.00    -0.252 OA
ATOM      7  N   UNL     1     -16.306  10.777  25.136  0.00  0.00    -0.285 N 
ATOM      9  N   UNL     1     -14.667  10.286  26.760  0.00  0.00    -0.266 N 
ATOM     10  C   UNL     1     -16.035   9.296  23.167  0.00  0.00    +0.016 C 
ATOM     11  C   UNL     1     -16.930  10.270  22.356  0.00  0.00    +0.006 C 
ATOM     12  C   UNL     1     -16.893  11.696  22.933  0.00  0.00    +0.023 C 
ATOM     13  C   UNL     1     -16.394   9.388  24.659  0.00  0.00    +0.113 C 
ATOM     14  C   UNL     1     -17.193  11.703  24.432  0.00  0.00    +0.109 C 
ATOM     18  C   UNL     1     -15.491  11.253  26.185  0.00  0.00    +0.307 C 
ATOM     37  H   UNL     1     -14.973   9.320  26.756  0.00  0.00    +0.156 HD
ENDROOT
BRANCH   9  28
ATOM     28  C   UNL     1     -13.397  10.484  27.357  0.00  0.00    +0.077 A 
ATOM     29  C   UNL     1     -12.255  10.630  26.570  0.00  0.00    +0.141 A 
ATOM     30  C   UNL     1     -13.296  10.531  28.747  0.00  0.00    +0.027 A 
ATOM     31  C   UNL     1     -11.012  10.823  27.172  0.00  0.00    +0.047 A 
ATOM     32  C   UNL     1     -12.052  10.722  29.350  0.00  0.00    +0.002 A 
ATOM     34  C   UNL     1     -10.911  10.869  28.562  0.00  0.00    +0.004 A 
BRANCH  29   6
ATOM      6  O   UNL     1     -12.333  10.589  25.209  0.00  0.00    -0.493 OA
ATOM     36  C   UNL     1     -12.055  11.799  24.507  0.00  0.00    +0.277 C 
ENDBRANCH  29   6
ENDBRANCH   9  28
BRANCH  10  15
ATOM     15  C   UNL     1     -14.531   9.515  22.963  0.00  0.00    +0.061 C 
BRANCH  15  17
ATOM      8  N   UNL     1     -14.420   7.196  22.346  0.00  0.00    -0.287 NA
ATOM     17  C   UNL     1     -13.954   8.384  22.145  0.00  0.00    +0.044 C 
ATOM     19  C   UNL     1     -12.883   8.688  21.161  0.00  0.00    +0.003 A 
ATOM     21  C   UNL     1     -12.114   7.607  20.712  0.00  0.00    -0.033 A 
ATOM     22  C   UNL     1     -12.406   6.240  21.256  0.00  0.00    +0.059 C 
ATOM     23  C   UNL     1     -13.902   6.108  21.510  0.00  0.00    +0.146 C 
ATOM     24  C   UNL     1     -12.626   9.980  20.699  0.00  0.00    +0.059 A 
ATOM     25  C   UNL     1     -11.065   7.831  19.816  0.00  0.00    +0.053 A 
ATOM     26  C   UNL     1     -11.586  10.192  19.793  0.00  0.00    +0.162 A 
ATOM     27  C   UNL     1     -10.805   9.121  19.355  0.00  0.00    +0.162 A 
BRANCH  26   4
ATOM      4  O   UNL     1     -11.339  11.455  19.344  0.00  0.00    -0.491 OA
ATOM     33  C   UNL     1     -12.365  12.424  19.541  0.00  0.00    +0.277 C 
ENDBRANCH  26   4
BRANCH  27   5
ATOM      5  O   UNL     1      -9.785   9.325  18.477  0.00  0.00    -0.491 OA
ATOM     35  C   UNL     1     -10.111   9.302  17.088  0.00  0.00    +0.277 C 
ENDBRANCH  27   5
ENDBRANCH  15  17
ENDBRANCH  10  15
BRANCH  11  16
ATOM     16  C   UNL     1     -16.603  10.284  20.863  0.00  0.00    +0.124 C 
BRANCH  16  20
ATOM      3  O   UNL     1     -18.330   8.790  20.008  0.00  0.00    -0.251 OA
ATOM     20  C   UNL     1     -17.151   9.070  20.164  0.00  0.00    +0.305 C 
BRANCH  20   1
ATOM      1  O   UNL     1     -16.127   8.301  19.712  0.00  0.00    -0.481 OA
ATOM     38  H   UNL     1     -15.414   8.214  20.379  0.00  0.00    +0.295 HD
ENDBRANCH  20   1
ENDBRANCH  16  20
ENDBRANCH  11  16
TORSDOF 9
ENDMDL
