REMARK  Name = 11941650
REMARK  4 active torsions:
REMARK  status: ('A' for Active; 'I' for Inactive)
REMARK    1  A    between atoms: N_5  and  C_12
REMARK    2  A    between atoms: N_6  and  C_13
REMARK    3  A    between atoms: N_7  and  C_16
REMARK    4  A    between atoms: C_24  and  C_27
REMARK                            x       y       z     vdW  Elec       q    Type
REMARK                         _______ _______ _______ _____ _____    ______ ____
ROOT
ATOM      1  O   UNL     1       0.115   0.988   1.730  0.00  0.00    -0.370 OA
ATOM      2  O   UNL     1       0.025   3.707   0.202  0.00  0.00    -0.370 OA
ATOM     10  C   UNL     1      -0.479   2.394  -0.094  0.00  0.00    +0.171 C 
ATOM     11  C   UNL     1       0.539   1.394   0.418  0.00  0.00    +0.171 C 
ATOM     12  C   UNL     1      -1.718   2.109   0.723  0.00  0.00    +0.131 C 
ATOM     13  C   UNL     1       1.823   2.184   0.503  0.00  0.00    +0.130 C 
ATOM     14  C   UNL     1      -1.135   1.622   2.038  0.00  0.00    +0.185 C 
ATOM     15  C   UNL     1       1.330   3.591   0.789  0.00  0.00    +0.185 C 
ENDROOT
BRANCH  13   6
ATOM      6  N   UNL     1       2.515   2.144  -0.766  0.00  0.00    -0.306 N 
ATOM      8  N   UNL     1       3.563   0.107  -0.258  0.00  0.00    -0.211 NA
ATOM      9  N   UNL     1       3.954   1.208  -2.365  0.00  0.00    -0.223 NA
ATOM     23  C   UNL     1       3.369   1.123  -1.141  0.00  0.00    +0.216 A 
ATOM     24  C   UNL     1       4.401  -0.872  -0.655  0.00  0.00    +0.111 A 
ATOM     25  C   UNL     1       4.781   0.195  -2.699  0.00  0.00    +0.116 A 
ATOM     26  C   UNL     1       5.045  -0.881  -1.876  0.00  0.00    +0.051 A 
ATOM     32  H   UNL     1       2.337   2.869  -1.453  0.00  0.00    +0.149 HD
BRANCH  24  27
ATOM      4  O   UNL     1       3.894  -1.794   1.459  0.00  0.00    -0.461 OA
ATOM     27  C   UNL     1       4.587  -1.931   0.300  0.00  0.00    +0.153 A 
ATOM     28  C   UNL     1       5.328  -3.087   0.309  0.00  0.00    +0.051 A 
ATOM     29  C   UNL     1       5.075  -3.703   1.558  0.00  0.00    +0.042 A 
ATOM     30  C   UNL     1       4.197  -2.877   2.221  0.00  0.00    +0.196 A 
ENDBRANCH  24  27
ENDBRANCH  13   6
BRANCH  12   5
ATOM      3  O   UNL     1      -4.551   1.737   1.044  0.00  0.00    -0.253 OA
ATOM      5  N   UNL     1      -2.531   1.091   0.103  0.00  0.00    -0.292 N 
ATOM      7  N   UNL     1      -4.447  -0.079  -0.400  0.00  0.00    -0.297 N 
ATOM     19  C   UNL     1      -3.904   0.985   0.316  0.00  0.00    +0.300 C 
ATOM     31  H   UNL     1      -2.076   0.381  -0.464  0.00  0.00    +0.151 HD
ATOM     33  H   UNL     1      -3.810  -0.680  -0.913  0.00  0.00    +0.151 HD
BRANCH   7  16
ATOM     16  C   UNL     1      -5.851  -0.421  -0.365  0.00  0.00    +0.074 C 
ATOM     17  C   UNL     1      -6.309  -1.007  -1.705  0.00  0.00    +0.022 C 
ATOM     18  C   UNL     1      -6.156  -1.378   0.793  0.00  0.00    +0.022 C 
ATOM     20  C   UNL     1      -5.762  -2.414  -1.946  0.00  0.00    +0.002 C 
ATOM     21  C   UNL     1      -5.610  -2.785   0.548  0.00  0.00    +0.002 C 
ATOM     22  C   UNL     1      -6.088  -3.350  -0.786  0.00  0.00    +0.000 C 
ENDBRANCH   7  16
ENDBRANCH  12   5
TORSDOF 4
