MODEL 1
REMARK VINA RESULT:      -8.2      0.000      0.000
REMARK  Name = 7142435
REMARK  4 active torsions:
REMARK  status: ('A' for Active; 'I' for Inactive)
REMARK    1  A    between atoms: O_5  and  C_19
REMARK    2  A    between atoms: O_5  and  C_26
REMARK    3  A    between atoms: C_16  and  C_19
REMARK    4  A    between atoms: C_21  and  C_23
REMARK                            x       y       z     vdW  Elec       q    Type
REMARK                         _______ _______ _______ _____ _____    ______ ____
ROOT
ATOM      2  O   UNL     1      16.453   9.924  21.279  0.00  0.00    -0.273 OA
ATOM      3  O   UNL     1      18.000   5.470  18.889  0.00  0.00    -0.270 OA
ATOM      4  O   UNL     1      12.679   9.237  22.203  0.00  0.00    -0.272 OA
ATOM      6  N   UNL     1      16.649   6.816  20.199  0.00  0.00    -0.283 N 
ATOM      7  N   UNL     1      14.120   8.124  20.757  0.00  0.00    -0.295 N 
ATOM      8  N   UNL     1      18.480   8.889  21.248  0.00  0.00    -0.283 N 
ATOM      9  C   UNL     1      16.444   7.516  21.459  0.00  0.00    +0.180 C 
ATOM     10  C   UNL     1      14.962   7.617  21.844  0.00  0.00    +0.140 C 
ATOM     11  C   UNL     1      15.472   6.579  19.362  0.00  0.00    +0.128 C 
ATOM     12  C   UNL     1      14.506   7.754  19.393  0.00  0.00    +0.127 C 
ATOM     13  C   UNL     1      17.103   8.876  21.291  0.00  0.00    +0.239 C 
ATOM     14  C   UNL     1      17.860   6.223  19.854  0.00  0.00    +0.249 C 
ATOM     15  C   UNL     1      19.068   6.527  20.668  0.00  0.00    +0.059 A 
ATOM     16  C   UNL     1      13.012   8.919  21.060  0.00  0.00    +0.253 C 
ATOM     17  C   UNL     1      19.363   7.791  21.204  0.00  0.00    +0.046 A 
ATOM     18  C   UNL     1      20.038   5.509  20.729  0.00  0.00    +0.023 A 
ATOM     20  C   UNL     1      20.647   8.025  21.727  0.00  0.00    +0.024 A 
ATOM     21  C   UNL     1      21.289   5.745  21.296  0.00  0.00    -0.017 A 
ATOM     22  C   UNL     1      21.599   7.008  21.783  0.00  0.00    +0.010 A 
ATOM     35  H   UNL     1      18.911   9.804  21.360  0.00  0.00    +0.155 HD
ENDROOT
BRANCH  21  23
ATOM      1 CL   UNL     1      25.334   1.378  21.537  0.00  0.00    -0.084 Cl
ATOM     23  C   UNL     1      22.271   4.684  21.355  0.00  0.00    -0.018 A 
ATOM     24  C   UNL     1      22.136   3.659  22.291  0.00  0.00    +0.010 A 
ATOM     25  C   UNL     1      23.354   4.686  20.475  0.00  0.00    +0.010 A 
ATOM     27  C   UNL     1      23.083   2.637  22.348  0.00  0.00    +0.020 A 
ATOM     28  C   UNL     1      24.301   3.664  20.532  0.00  0.00    +0.020 A 
ATOM     29  C   UNL     1      24.165   2.639  21.468  0.00  0.00    +0.041 A 
ENDBRANCH  21  23
BRANCH  16  19
ATOM     19  C   UNL     1      12.196   9.397  19.884  0.00  0.00    +0.324 C 
BRANCH  19   5
ATOM      5  O   UNL     1      12.807  10.580  19.427  0.00  0.00    -0.483 OA
BRANCH   5  26
ATOM     26  C   UNL     1      13.222  10.611  18.114  0.00  0.00    +0.121 A 
ATOM     30  C   UNL     1      14.196  11.521  17.729  0.00  0.00    +0.045 A 
ATOM     31  C   UNL     1      12.659   9.734  17.200  0.00  0.00    +0.045 A 
ATOM     32  C   UNL     1      14.616  11.553  16.399  0.00  0.00    +0.004 A 
ATOM     33  C   UNL     1      13.079   9.766  15.870  0.00  0.00    +0.004 A 
ATOM     34  C   UNL     1      14.057  10.676  15.469  0.00  0.00    +0.000 A 
ENDBRANCH   5  26
ENDBRANCH  19   5
ENDBRANCH  16  19
TORSDOF 4
ENDMDL
MODEL 2
REMARK VINA RESULT:      -8.2     28.744     31.609
REMARK  Name = 7142435
REMARK  4 active torsions:
REMARK  status: ('A' for Active; 'I' for Inactive)
REMARK    1  A    between atoms: O_5  and  C_19
REMARK    2  A    between atoms: O_5  and  C_26
REMARK    3  A    between atoms: C_16  and  C_19
REMARK    4  A    between atoms: C_21  and  C_23
REMARK                            x       y       z     vdW  Elec       q    Type
REMARK                         _______ _______ _______ _____ _____    ______ ____
ROOT
ATOM      2  O   UNL     1      -4.790  -9.700  11.918  0.00  0.00    -0.273 OA
ATOM      3  O   UNL     1      -4.267 -14.118   9.063  0.00  0.00    -0.270 OA
ATOM      4  O   UNL     1      -1.858  -9.925  14.550  0.00  0.00    -0.272 OA
ATOM      6  N   UNL     1      -3.618 -12.450  10.528  0.00  0.00    -0.283 N 
ATOM      7  N   UNL     1      -2.779 -11.540  13.153  0.00  0.00    -0.295 N 
ATOM      8  N   UNL     1      -5.224 -10.100   9.720  0.00  0.00    -0.283 N 
ATOM      9  C   UNL     1      -3.196 -11.071  10.730  0.00  0.00    +0.180 C 
ATOM     10  C   UNL     1      -2.260 -10.910  11.935  0.00  0.00    +0.140 C 
ATOM     11  C   UNL     1      -3.357 -13.398  11.612  0.00  0.00    +0.128 C 
ATOM     12  C   UNL     1      -3.560 -12.768  12.981  0.00  0.00    +0.127 C 
ATOM     13  C   UNL     1      -4.475 -10.260  10.865  0.00  0.00    +0.239 C 
ATOM     14  C   UNL     1      -4.086 -12.924   9.306  0.00  0.00    +0.249 C 
ATOM     15  C   UNL     1      -4.420 -11.947   8.235  0.00  0.00    +0.059 A 
ATOM     16  C   UNL     1      -2.514 -10.957  14.394  0.00  0.00    +0.253 C 
ATOM     17  C   UNL     1      -5.033 -10.704   8.460  0.00  0.00    +0.046 A 
ATOM     18  C   UNL     1      -4.260 -12.407   6.915  0.00  0.00    +0.023 A 
ATOM     20  C   UNL     1      -5.535  -9.984   7.361  0.00  0.00    +0.024 A 
ATOM     21  C   UNL     1      -4.720 -11.657   5.834  0.00  0.00    -0.017 A 
ATOM     22  C   UNL     1      -5.370 -10.450   6.058  0.00  0.00    +0.010 A 
ATOM     35  H   UNL     1      -5.945  -9.384   9.766  0.00  0.00    +0.155 HD
ENDROOT
BRANCH  21  23
ATOM      1 CL   UNL     1      -3.988 -13.668   0.274  0.00  0.00    -0.084 Cl
ATOM     23  C   UNL     1      -4.542 -12.145   4.483  0.00  0.00    -0.018 A 
ATOM     24  C   UNL     1      -5.654 -12.378   3.674  0.00  0.00    +0.010 A 
ATOM     25  C   UNL     1      -3.259 -12.383   3.990  0.00  0.00    +0.010 A 
ATOM     27  C   UNL     1      -5.483 -12.849   2.372  0.00  0.00    +0.020 A 
ATOM     28  C   UNL     1      -3.088 -12.854   2.689  0.00  0.00    +0.020 A 
ATOM     29  C   UNL     1      -4.200 -13.087   1.880  0.00  0.00    +0.041 A 
ENDBRANCH  21  23
BRANCH  16  19
ATOM     19  C   UNL     1      -3.081 -11.670  15.597  0.00  0.00    +0.324 C 
BRANCH  19   5
ATOM      5  O   UNL     1      -3.255 -10.695  16.596  0.00  0.00    -0.483 OA
BRANCH   5  26
ATOM     26  C   UNL     1      -4.537 -10.473  17.047  0.00  0.00    +0.121 A 
ATOM     30  C   UNL     1      -5.433  -9.784  16.242  0.00  0.00    +0.045 A 
ATOM     31  C   UNL     1      -4.909 -10.940  18.298  0.00  0.00    +0.045 A 
ATOM     32  C   UNL     1      -6.731  -9.559  16.700  0.00  0.00    +0.004 A 
ATOM     33  C   UNL     1      -6.207 -10.715  18.756  0.00  0.00    +0.004 A 
ATOM     34  C   UNL     1      -7.119 -10.023  17.957  0.00  0.00    +0.000 A 
ENDBRANCH   5  26
ENDBRANCH  19   5
ENDBRANCH  16  19
TORSDOF 4
ENDMDL
MODEL 3
REMARK VINA RESULT:      -8.1     29.256     33.065
REMARK  Name = 7142435
REMARK  4 active torsions:
REMARK  status: ('A' for Active; 'I' for Inactive)
REMARK    1  A    between atoms: O_5  and  C_19
REMARK    2  A    between atoms: O_5  and  C_26
REMARK    3  A    between atoms: C_16  and  C_19
REMARK    4  A    between atoms: C_21  and  C_23
REMARK                            x       y       z     vdW  Elec       q    Type
REMARK                         _______ _______ _______ _____ _____    ______ ____
ROOT
ATOM      2  O   UNL     1     -14.361   3.974  22.441  0.00  0.00    -0.273 OA
ATOM      3  O   UNL     1     -14.547   9.225  23.014  0.00  0.00    -0.270 OA
ATOM      4  O   UNL     1     -18.153   2.885  22.486  0.00  0.00    -0.272 OA
ATOM      6  N   UNL     1     -15.365   7.111  22.552  0.00  0.00    -0.283 N 
ATOM      7  N   UNL     1     -17.133   4.879  23.109  0.00  0.00    -0.295 N 
ATOM      8  N   UNL     1     -13.000   5.600  21.615  0.00  0.00    -0.283 N 
ATOM      9  C   UNL     1     -15.435   5.981  21.637  0.00  0.00    +0.180 C 
ATOM     10  C   UNL     1     -16.768   5.226  21.733  0.00  0.00    +0.140 C 
ATOM     11  C   UNL     1     -16.387   7.196  23.596  0.00  0.00    +0.128 C 
ATOM     12  C   UNL     1     -16.743   5.827  24.156  0.00  0.00    +0.127 C 
ATOM     13  C   UNL     1     -14.237   5.105  21.965  0.00  0.00    +0.239 C 
ATOM     14  C   UNL     1     -14.492   8.179  22.365  0.00  0.00    +0.249 C 
ATOM     15  C   UNL     1     -13.409   8.055  21.353  0.00  0.00    +0.059 A 
ATOM     16  C   UNL     1     -17.820   3.689  23.359  0.00  0.00    +0.253 C 
ATOM     17  C   UNL     1     -12.682   6.878  21.111  0.00  0.00    +0.046 A 
ATOM     18  C   UNL     1     -12.996   9.257  20.748  0.00  0.00    +0.023 A 
ATOM     20  C   UNL     1     -11.519   6.947  20.325  0.00  0.00    +0.024 A 
ATOM     21  C   UNL     1     -11.867   9.297  19.931  0.00  0.00    -0.017 A 
ATOM     22  C   UNL     1     -11.120   8.144  19.730  0.00  0.00    +0.010 A 
ATOM     35  H   UNL     1     -12.239   4.926  21.632  0.00  0.00    +0.155 HD
ENDROOT
BRANCH  21  23
ATOM      1 CL   UNL     1     -10.194  14.420  17.393  0.00  0.00    -0.084 Cl
ATOM     23  C   UNL     1     -11.461  10.541  19.314  0.00  0.00    -0.018 A 
ATOM     24  C   UNL     1     -10.365  10.566  18.451  0.00  0.00    +0.010 A 
ATOM     25  C   UNL     1     -12.165  11.715  19.583  0.00  0.00    +0.010 A 
ATOM     27  C   UNL     1      -9.973  11.766  17.857  0.00  0.00    +0.020 A 
ATOM     28  C   UNL     1     -11.772  12.915  18.989  0.00  0.00    +0.020 A 
ATOM     29  C   UNL     1     -10.677  12.940  18.126  0.00  0.00    +0.041 A 
ENDBRANCH  21  23
BRANCH  16  19
ATOM     19  C   UNL     1     -18.162   3.409  24.802  0.00  0.00    +0.324 C 
BRANCH  19   5
ATOM      5  O   UNL     1     -17.422   2.272  25.175  0.00  0.00    -0.483 OA
BRANCH   5  26
ATOM     26  C   UNL     1     -16.917   2.237  26.456  0.00  0.00    +0.121 A 
ATOM     30  C   UNL     1     -16.245   3.345  26.954  0.00  0.00    +0.045 A 
ATOM     31  C   UNL     1     -17.088   1.097  27.225  0.00  0.00    +0.045 A 
ATOM     32  C   UNL     1     -15.734   3.309  28.251  0.00  0.00    +0.004 A 
ATOM     33  C   UNL     1     -16.576   1.061  28.522  0.00  0.00    +0.004 A 
ATOM     34  C   UNL     1     -15.898   2.167  29.035  0.00  0.00    +0.000 A 
ENDBRANCH   5  26
ENDBRANCH  19   5
ENDBRANCH  16  19
TORSDOF 4
ENDMDL
MODEL 4
REMARK VINA RESULT:      -8.1      3.946     10.390
REMARK  Name = 7142435
REMARK  4 active torsions:
REMARK  status: ('A' for Active; 'I' for Inactive)
REMARK    1  A    between atoms: O_5  and  C_19
REMARK    2  A    between atoms: O_5  and  C_26
REMARK    3  A    between atoms: C_16  and  C_19
REMARK    4  A    between atoms: C_21  and  C_23
REMARK                            x       y       z     vdW  Elec       q    Type
REMARK                         _______ _______ _______ _____ _____    ______ ____
ROOT
ATOM      2  O   UNL     1      20.585   7.924  23.145  0.00  0.00    -0.273 OA
ATOM      3  O   UNL     1      17.627   5.194  19.718  0.00  0.00    -0.270 OA
ATOM      4  O   UNL     1      24.265   7.450  21.801  0.00  0.00    -0.272 OA
ATOM      6  N   UNL     1      19.513   6.287  20.492  0.00  0.00    -0.283 N 
ATOM      7  N   UNL     1      22.301   6.313  21.298  0.00  0.00    -0.295 N 
ATOM      8  N   UNL     1      18.467   8.292  22.400  0.00  0.00    -0.283 N 
ATOM      9  C   UNL     1      20.182   7.545  20.795  0.00  0.00    +0.180 C 
ATOM     10  C   UNL     1      21.703   7.463  20.615  0.00  0.00    +0.140 C 
ATOM     11  C   UNL     1      20.352   5.096  20.357  0.00  0.00    +0.128 C 
ATOM     12  C   UNL     1      21.496   5.089  21.359  0.00  0.00    +0.127 C 
ATOM     13  C   UNL     1      19.774   7.901  22.216  0.00  0.00    +0.239 C 
ATOM     14  C   UNL     1      18.164   6.212  20.159  0.00  0.00    +0.249 C 
ATOM     15  C   UNL     1      17.302   7.407  20.369  0.00  0.00    +0.059 A 
ATOM     16  C   UNL     1      23.579   6.427  21.847  0.00  0.00    +0.253 C 
ATOM     17  C   UNL     1      17.411   8.278  21.465  0.00  0.00    +0.046 A 
ATOM     18  C   UNL     1      16.210   7.536  19.492  0.00  0.00    +0.023 A 
ATOM     20  C   UNL     1      16.386   9.213  21.695  0.00  0.00    +0.024 A 
ATOM     21  C   UNL     1      15.227   8.501  19.708  0.00  0.00    -0.017 A 
ATOM     22  C   UNL     1      15.308   9.331  20.818  0.00  0.00    +0.010 A 
ATOM     35  H   UNL     1      18.265   8.735  23.293  0.00  0.00    +0.155 HD
ENDROOT
BRANCH  21  23
ATOM      1 CL   UNL     1      10.642   8.997  15.938  0.00  0.00    -0.084 Cl
ATOM     23  C   UNL     1      14.113   8.621  18.792  0.00  0.00    -0.018 A 
ATOM     24  C   UNL     1      14.334   9.024  17.475  0.00  0.00    +0.010 A 
ATOM     25  C   UNL     1      12.819   8.334  19.226  0.00  0.00    +0.010 A 
ATOM     27  C   UNL     1      13.261   9.141  16.592  0.00  0.00    +0.020 A 
ATOM     28  C   UNL     1      11.746   8.451  18.343  0.00  0.00    +0.020 A 
ATOM     29  C   UNL     1      11.966   8.854  17.026  0.00  0.00    +0.041 A 
ENDBRANCH  21  23
BRANCH  16  19
ATOM     19  C   UNL     1      24.123   5.195  22.529  0.00  0.00    +0.324 C 
BRANCH  19   5
ATOM      5  O   UNL     1      24.964   4.560  21.598  0.00  0.00    -0.483 OA
BRANCH   5  26
ATOM     26  C   UNL     1      25.102   3.193  21.697  0.00  0.00    +0.121 A 
ATOM     30  C   UNL     1      24.104   2.370  21.196  0.00  0.00    +0.045 A 
ATOM     31  C   UNL     1      26.234   2.664  22.297  0.00  0.00    +0.045 A 
ATOM     32  C   UNL     1      24.244   0.986  21.298  0.00  0.00    +0.004 A 
ATOM     33  C   UNL     1      26.373   1.280  22.399  0.00  0.00    +0.004 A 
ATOM     34  C   UNL     1      25.378   0.440  21.900  0.00  0.00    +0.000 A 
ENDBRANCH   5  26
ENDBRANCH  19   5
ENDBRANCH  16  19
TORSDOF 4
ENDMDL
MODEL 5
REMARK VINA RESULT:      -7.9     29.915     33.994
REMARK  Name = 7142435
REMARK  4 active torsions:
REMARK  status: ('A' for Active; 'I' for Inactive)
REMARK    1  A    between atoms: O_5  and  C_19
REMARK    2  A    between atoms: O_5  and  C_26
REMARK    3  A    between atoms: C_16  and  C_19
REMARK    4  A    between atoms: C_21  and  C_23
REMARK                            x       y       z     vdW  Elec       q    Type
REMARK                         _______ _______ _______ _____ _____    ______ ____
ROOT
ATOM      2  O   UNL     1     -15.465   3.173  25.230  0.00  0.00    -0.273 OA
ATOM      3  O   UNL     1     -15.889   8.128  23.441  0.00  0.00    -0.270 OA
ATOM      4  O   UNL     1     -19.203   1.934  25.474  0.00  0.00    -0.272 OA
ATOM      6  N   UNL     1     -16.584   5.968  23.890  0.00  0.00    -0.283 N 
ATOM      7  N   UNL     1     -18.319   4.071  25.236  0.00  0.00    -0.295 N 
ATOM      8  N   UNL     1     -14.089   4.379  23.877  0.00  0.00    -0.283 N 
ATOM      9  C   UNL     1     -16.527   4.552  23.557  0.00  0.00    +0.180 C 
ATOM     10  C   UNL     1     -17.835   3.816  23.877  0.00  0.00    +0.140 C 
ATOM     11  C   UNL     1     -17.705   6.419  24.716  0.00  0.00    +0.128 C 
ATOM     12  C   UNL     1     -18.065   5.404  25.790  0.00  0.00    +0.127 C 
ATOM     13  C   UNL     1     -15.335   3.994  24.319  0.00  0.00    +0.239 C 
ATOM     14  C   UNL     1     -15.736   6.912  23.319  0.00  0.00    +0.249 C 
ATOM     15  C   UNL     1     -14.557   6.444  22.542  0.00  0.00    +0.059 A 
ATOM     16  C   UNL     1     -18.985   3.058  25.930  0.00  0.00    +0.253 C 
ATOM     17  C   UNL     1     -13.769   5.334  22.891  0.00  0.00    +0.046 A 
ATOM     18  C   UNL     1     -14.129   7.294  21.505  0.00  0.00    +0.023 A 
ATOM     20  C   UNL     1     -12.538   5.143  22.238  0.00  0.00    +0.024 A 
ATOM     21  C   UNL     1     -12.929   7.060  20.836  0.00  0.00    -0.017 A 
ATOM     22  C   UNL     1     -12.125   5.992  21.212  0.00  0.00    +0.010 A 
ATOM     35  H   UNL     1     -13.309   3.836  24.241  0.00  0.00    +0.155 HD
ENDROOT
BRANCH  21  23
ATOM      1 CL   UNL     1     -11.200  10.695  16.444  0.00  0.00    -0.084 Cl
ATOM     23  C   UNL     1     -12.509   7.943  19.769  0.00  0.00    -0.018 A 
ATOM     24  C   UNL     1     -11.212   8.456  19.759  0.00  0.00    +0.010 A 
ATOM     25  C   UNL     1     -13.401   8.281  18.751  0.00  0.00    +0.010 A 
ATOM     27  C   UNL     1     -10.807   9.308  18.731  0.00  0.00    +0.020 A 
ATOM     28  C   UNL     1     -12.996   9.132  17.723  0.00  0.00    +0.020 A 
ATOM     29  C   UNL     1     -11.699   9.646  17.713  0.00  0.00    +0.041 A 
ENDBRANCH  21  23
BRANCH  16  19
ATOM     19  C   UNL     1     -19.454   3.403  27.322  0.00  0.00    +0.324 C 
BRANCH  19   5
ATOM      5  O   UNL     1     -18.938   2.411  28.175  0.00  0.00    -0.483 OA
BRANCH   5  26
ATOM     26  C   UNL     1     -17.635   2.556  28.599  0.00  0.00    +0.121 A 
ATOM     30  C   UNL     1     -17.175   3.811  28.973  0.00  0.00    +0.045 A 
ATOM     31  C   UNL     1     -16.807   1.446  28.645  0.00  0.00    +0.045 A 
ATOM     32  C   UNL     1     -15.856   3.956  29.401  0.00  0.00    +0.004 A 
ATOM     33  C   UNL     1     -15.487   1.591  29.073  0.00  0.00    +0.004 A 
ATOM     34  C   UNL     1     -15.011   2.847  29.451  0.00  0.00    +0.000 A 
ENDBRANCH   5  26
ENDBRANCH  19   5
ENDBRANCH  16  19
TORSDOF 4
ENDMDL
MODEL 6
REMARK VINA RESULT:      -7.7     28.826     32.372
REMARK  Name = 7142435
REMARK  4 active torsions:
REMARK  status: ('A' for Active; 'I' for Inactive)
REMARK    1  A    between atoms: O_5  and  C_19
REMARK    2  A    between atoms: O_5  and  C_26
REMARK    3  A    between atoms: C_16  and  C_19
REMARK    4  A    between atoms: C_21  and  C_23
REMARK                            x       y       z     vdW  Elec       q    Type
REMARK                         _______ _______ _______ _____ _____    ______ ____
ROOT
ATOM      2  O   UNL     1      -5.353  -8.999  11.667  0.00  0.00    -0.273 OA
ATOM      3  O   UNL     1      -6.415 -11.333   7.044  0.00  0.00    -0.270 OA
ATOM      4  O   UNL     1      -1.511  -9.710  12.222  0.00  0.00    -0.272 OA
ATOM      6  N   UNL     1      -5.087 -10.430   8.709  0.00  0.00    -0.283 N 
ATOM      7  N   UNL     1      -3.040 -10.664  10.753  0.00  0.00    -0.295 N 
ATOM      8  N   UNL     1      -6.824  -8.431  10.027  0.00  0.00    -0.283 N 
ATOM      9  C   UNL     1      -4.587  -9.244   9.390  0.00  0.00    +0.180 C 
ATOM     10  C   UNL     1      -3.174  -9.440   9.957  0.00  0.00    +0.140 C 
ATOM     11  C   UNL     1      -4.348 -11.678   8.903  0.00  0.00    +0.128 C 
ATOM     12  C   UNL     1      -3.834 -11.820  10.327  0.00  0.00    +0.127 C 
ATOM     13  C   UNL     1      -5.612  -8.917  10.464  0.00  0.00    +0.239 C 
ATOM     14  C   UNL     1      -6.108 -10.382   7.765  0.00  0.00    +0.249 C 
ATOM     15  C   UNL     1      -6.903  -9.132   7.626  0.00  0.00    +0.059 A 
ATOM     16  C   UNL     1      -2.183 -10.676  11.855  0.00  0.00    +0.253 C 
ATOM     17  C   UNL     1      -7.295  -8.320   8.702  0.00  0.00    +0.046 A 
ATOM     18  C   UNL     1      -7.426  -8.878   6.344  0.00  0.00    +0.023 A 
ATOM     20  C   UNL     1      -8.255  -7.316   8.482  0.00  0.00    +0.024 A 
ATOM     21  C   UNL     1      -8.341  -7.847   6.135  0.00  0.00    -0.017 A 
ATOM     22  C   UNL     1      -8.766  -7.074   7.208  0.00  0.00    +0.010 A 
ATOM     35  H   UNL     1      -7.411  -8.011  10.745  0.00  0.00    +0.155 HD
ENDROOT
BRANCH  21  23
ATOM      1 CL   UNL     1     -10.497  -6.823   0.677  0.00  0.00    -0.084 Cl
ATOM     23  C   UNL     1      -8.865  -7.599   4.809  0.00  0.00    -0.018 A 
ATOM     24  C   UNL     1      -8.089  -7.890   3.687  0.00  0.00    +0.010 A 
ATOM     25  C   UNL     1     -10.145  -7.068   4.654  0.00  0.00    +0.010 A 
ATOM     27  C   UNL     1      -8.593  -7.649   2.409  0.00  0.00    +0.020 A 
ATOM     28  C   UNL     1     -10.650  -6.828   3.376  0.00  0.00    +0.020 A 
ATOM     29  C   UNL     1      -9.874  -7.119   2.254  0.00  0.00    +0.041 A 
ENDBRANCH  21  23
BRANCH  16  19
ATOM     19  C   UNL     1      -2.100 -11.976  12.618  0.00  0.00    +0.324 C 
BRANCH  19   5
ATOM      5  O   UNL     1      -1.729 -11.645  13.934  0.00  0.00    -0.483 OA
BRANCH   5  26
ATOM     26  C   UNL     1      -2.702 -11.729  14.906  0.00  0.00    +0.121 A 
ATOM     30  C   UNL     1      -2.730 -10.788  15.925  0.00  0.00    +0.045 A 
ATOM     31  C   UNL     1      -3.635 -12.752  14.849  0.00  0.00    +0.045 A 
ATOM     32  C   UNL     1      -3.714 -10.874  16.909  0.00  0.00    +0.004 A 
ATOM     33  C   UNL     1      -4.619 -12.838  15.834  0.00  0.00    +0.004 A 
ATOM     34  C   UNL     1      -4.659 -11.899  16.865  0.00  0.00    +0.000 A 
ENDBRANCH   5  26
ENDBRANCH  19   5
ENDBRANCH  16  19
TORSDOF 4
ENDMDL
MODEL 7
REMARK VINA RESULT:      -7.6      4.398     10.305
REMARK  Name = 7142435
REMARK  4 active torsions:
REMARK  status: ('A' for Active; 'I' for Inactive)
REMARK    1  A    between atoms: O_5  and  C_19
REMARK    2  A    between atoms: O_5  and  C_26
REMARK    3  A    between atoms: C_16  and  C_19
REMARK    4  A    between atoms: C_21  and  C_23
REMARK                            x       y       z     vdW  Elec       q    Type
REMARK                         _______ _______ _______ _____ _____    ______ ____
ROOT
ATOM      2  O   UNL     1      22.665   4.514  20.459  0.00  0.00    -0.273 OA
ATOM      3  O   UNL     1      19.689   8.424  22.406  0.00  0.00    -0.270 OA
ATOM      4  O   UNL     1      24.739   3.265  23.575  0.00  0.00    -0.272 OA
ATOM      6  N   UNL     1      21.046   6.552  22.481  0.00  0.00    -0.283 N 
ATOM      7  N   UNL     1      23.498   5.203  23.249  0.00  0.00    -0.295 N 
ATOM      8  N   UNL     1      20.571   5.202  19.892  0.00  0.00    -0.283 N 
ATOM      9  C   UNL     1      21.194   5.118  22.275  0.00  0.00    +0.180 C 
ATOM     10  C   UNL     1      22.219   4.488  23.227  0.00  0.00    +0.140 C 
ATOM     11  C   UNL     1      22.051   7.219  23.309  0.00  0.00    +0.128 C 
ATOM     12  C   UNL     1      23.445   6.658  23.076  0.00  0.00    +0.127 C 
ATOM     13  C   UNL     1      21.564   4.944  20.811  0.00  0.00    +0.239 C 
ATOM     14  C   UNL     1      19.917   7.259  22.077  0.00  0.00    +0.249 C 
ATOM     15  C   UNL     1      18.937   6.597  21.175  0.00  0.00    +0.059 A 
ATOM     16  C   UNL     1      24.683   4.487  23.429  0.00  0.00    +0.253 C 
ATOM     17  C   UNL     1      19.288   5.738  20.120  0.00  0.00    +0.046 A 
ATOM     18  C   UNL     1      17.602   7.023  21.302  0.00  0.00    +0.023 A 
ATOM     20  C   UNL     1      18.306   5.382  19.179  0.00  0.00    +0.024 A 
ATOM     21  C   UNL     1      16.631   6.620  20.387  0.00  0.00    -0.017 A 
ATOM     22  C   UNL     1      16.986   5.810  19.316  0.00  0.00    +0.010 A 
ATOM     35  H   UNL     1      20.755   4.873  18.946  0.00  0.00    +0.155 HD
ENDROOT
BRANCH  21  23
ATOM      1 CL   UNL     1      10.996   8.451  21.007  0.00  0.00    -0.084 Cl
ATOM     23  C   UNL     1      15.262   7.064  20.537  0.00  0.00    -0.018 A 
ATOM     24  C   UNL     1      14.367   6.938  19.475  0.00  0.00    +0.010 A 
ATOM     25  C   UNL     1      14.838   7.619  21.745  0.00  0.00    +0.010 A 
ATOM     27  C   UNL     1      13.048   7.368  19.620  0.00  0.00    +0.020 A 
ATOM     28  C   UNL     1      13.519   8.048  21.890  0.00  0.00    +0.020 A 
ATOM     29  C   UNL     1      12.624   7.922  20.828  0.00  0.00    +0.041 A 
ENDBRANCH  21  23
BRANCH  16  19
ATOM     19  C   UNL     1      25.955   5.299  23.443  0.00  0.00    +0.324 C 
BRANCH  19   5
ATOM      5  O   UNL     1      26.882   4.605  22.645  0.00  0.00    -0.483 OA
BRANCH   5  26
ATOM     26  C   UNL     1      26.806   4.788  21.281  0.00  0.00    +0.121 A 
ATOM     30  C   UNL     1      26.836   6.076  20.764  0.00  0.00    +0.045 A 
ATOM     31  C   UNL     1      26.701   3.684  20.450  0.00  0.00    +0.045 A 
ATOM     32  C   UNL     1      26.759   6.260  19.384  0.00  0.00    +0.004 A 
ATOM     33  C   UNL     1      26.624   3.869  19.070  0.00  0.00    +0.004 A 
ATOM     34  C   UNL     1      26.652   5.158  18.536  0.00  0.00    +0.000 A 
ENDBRANCH   5  26
ENDBRANCH  19   5
ENDBRANCH  16  19
TORSDOF 4
ENDMDL
MODEL 8
REMARK VINA RESULT:      -7.4     26.854     30.196
REMARK  Name = 7142435
REMARK  4 active torsions:
REMARK  status: ('A' for Active; 'I' for Inactive)
REMARK    1  A    between atoms: O_5  and  C_19
REMARK    2  A    between atoms: O_5  and  C_26
REMARK    3  A    between atoms: C_16  and  C_19
REMARK    4  A    between atoms: C_21  and  C_23
REMARK                            x       y       z     vdW  Elec       q    Type
REMARK                         _______ _______ _______ _____ _____    ______ ____
ROOT
ATOM      2  O   UNL     1      -3.259  11.774  36.561  0.00  0.00    -0.273 OA
ATOM      3  O   UNL     1      -7.552   8.961  37.828  0.00  0.00    -0.270 OA
ATOM      4  O   UNL     1      -0.262   9.337  37.370  0.00  0.00    -0.272 OA
ATOM      6  N   UNL     1      -5.326   9.317  37.309  0.00  0.00    -0.283 N 
ATOM      7  N   UNL     1      -2.504   9.250  37.981  0.00  0.00    -0.295 N 
ATOM      8  N   UNL     1      -5.344  11.766  35.649  0.00  0.00    -0.283 N 
ATOM      9  C   UNL     1      -4.320   9.621  36.300  0.00  0.00    +0.180 C 
ATOM     10  C   UNL     1      -2.959   8.986  36.614  0.00  0.00    +0.140 C 
ATOM     11  C   UNL     1      -4.860   8.735  38.568  0.00  0.00    +0.128 C 
ATOM     12  C   UNL     1      -3.537   9.335  39.017  0.00  0.00    +0.127 C 
ATOM     13  C   UNL     1      -4.258  11.138  36.218  0.00  0.00    +0.239 C 
ATOM     14  C   UNL     1      -6.693   9.392  37.057  0.00  0.00    +0.249 C 
ATOM     15  C   UNL     1      -7.160  10.051  35.808  0.00  0.00    +0.059 A 
ATOM     16  C   UNL     1      -1.139   9.406  38.233  0.00  0.00    +0.253 C 
ATOM     17  C   UNL     1      -6.572  11.199  35.252  0.00  0.00    +0.046 A 
ATOM     18  C   UNL     1      -8.374   9.574  35.281  0.00  0.00    +0.023 A 
ATOM     20  C   UNL     1      -7.251  11.881  34.226  0.00  0.00    +0.024 A 
ATOM     21  C   UNL     1      -9.009  10.236  34.230  0.00  0.00    -0.017 A 
ATOM     22  C   UNL     1      -8.453  11.398  33.712  0.00  0.00    +0.010 A 
ATOM     35  H   UNL     1      -5.201  12.742  35.398  0.00  0.00    +0.155 HD
ENDROOT
BRANCH  21  23
ATOM      1 CL   UNL     1     -14.138   8.143  32.041  0.00  0.00    -0.084 Cl
ATOM     23  C   UNL     1     -10.254   9.727  33.698  0.00  0.00    -0.018 A 
ATOM     24  C   UNL     1     -10.377   9.473  32.333  0.00  0.00    +0.010 A 
ATOM     25  C   UNL     1     -11.333   9.491  34.552  0.00  0.00    +0.010 A 
ATOM     27  C   UNL     1     -11.578   8.984  31.820  0.00  0.00    +0.020 A 
ATOM     28  C   UNL     1     -12.534   9.002  34.039  0.00  0.00    +0.020 A 
ATOM     29  C   UNL     1     -12.657   8.748  32.673  0.00  0.00    +0.041 A 
ENDBRANCH  21  23
BRANCH  16  19
ATOM     19  C   UNL     1      -0.755   9.672  39.668  0.00  0.00    +0.324 C 
BRANCH  19   5
ATOM      5  O   UNL     1       0.035   8.583  40.079  0.00  0.00    -0.483 OA
BRANCH   5  26
ATOM     26  C   UNL     1      -0.621   7.422  40.428  0.00  0.00    +0.121 A 
ATOM     30  C   UNL     1      -1.464   7.420  41.530  0.00  0.00    +0.045 A 
ATOM     31  C   UNL     1      -0.425   6.276  39.672  0.00  0.00    +0.045 A 
ATOM     32  C   UNL     1      -2.126   6.244  41.882  0.00  0.00    +0.004 A 
ATOM     33  C   UNL     1      -1.088   5.101  40.025  0.00  0.00    +0.004 A 
ATOM     34  C   UNL     1      -1.938   5.084  41.130  0.00  0.00    +0.000 A 
ENDBRANCH   5  26
ENDBRANCH  19   5
ENDBRANCH  16  19
TORSDOF 4
ENDMDL
MODEL 9
REMARK VINA RESULT:      -7.4     30.254     32.873
REMARK  Name = 7142435
REMARK  4 active torsions:
REMARK  status: ('A' for Active; 'I' for Inactive)
REMARK    1  A    between atoms: O_5  and  C_19
REMARK    2  A    between atoms: O_5  and  C_26
REMARK    3  A    between atoms: C_16  and  C_19
REMARK    4  A    between atoms: C_21  and  C_23
REMARK                            x       y       z     vdW  Elec       q    Type
REMARK                         _______ _______ _______ _____ _____    ______ ____
ROOT
ATOM      2  O   UNL     1      -9.342 -12.625  20.772  0.00  0.00    -0.273 OA
ATOM      3  O   UNL     1      -8.063  -8.802  17.353  0.00  0.00    -0.270 OA
ATOM      4  O   UNL     1     -13.211 -13.150  20.197  0.00  0.00    -0.272 OA
ATOM      6  N   UNL     1      -9.362 -10.485  18.266  0.00  0.00    -0.283 N 
ATOM      7  N   UNL     1     -11.792 -11.429  19.540  0.00  0.00    -0.295 N 
ATOM      8  N   UNL     1      -7.418 -12.261  19.613  0.00  0.00    -0.283 N 
ATOM      9  C   UNL     1      -9.577 -11.909  18.479  0.00  0.00    +0.180 C 
ATOM     10  C   UNL     1     -11.064 -12.272  18.588  0.00  0.00    +0.140 C 
ATOM     11  C   UNL     1     -10.505  -9.594  18.474  0.00  0.00    +0.128 C 
ATOM     12  C   UNL     1     -11.361 -10.033  19.652  0.00  0.00    +0.127 C 
ATOM     13  C   UNL     1      -8.791 -12.266  19.729  0.00  0.00    +0.239 C 
ATOM     14  C   UNL     1      -8.191  -9.973  17.715  0.00  0.00    +0.249 C 
ATOM     15  C   UNL     1      -7.011 -10.868  17.575  0.00  0.00    +0.059 A 
ATOM     16  C   UNL     1     -12.840 -11.978  20.283  0.00  0.00    +0.253 C 
ATOM     17  C   UNL     1      -6.636 -11.837  18.520  0.00  0.00    +0.046 A 
ATOM     18  C   UNL     1      -6.141 -10.573  16.508  0.00  0.00    +0.023 A 
ATOM     20  C   UNL     1      -5.369 -12.437  18.412  0.00  0.00    +0.024 A 
ATOM     21  C   UNL     1      -4.909 -11.214  16.389  0.00  0.00    -0.017 A 
ATOM     22  C   UNL     1      -4.516 -12.137  17.350  0.00  0.00    +0.010 A 
ATOM     35  H   UNL     1      -6.913 -12.711  20.374  0.00  0.00    +0.155 HD
ENDROOT
BRANCH  21  23
ATOM      1 CL   UNL     1      -1.294  -9.925  11.834  0.00  0.00    -0.084 Cl
ATOM     23  C   UNL     1      -4.031 -10.900  15.283  0.00  0.00    -0.018 A 
ATOM     24  C   UNL     1      -4.542 -10.828  13.987  0.00  0.00    +0.010 A 
ATOM     25  C   UNL     1      -2.675 -10.670  15.512  0.00  0.00    +0.010 A 
ATOM     27  C   UNL     1      -3.695 -10.527  12.920  0.00  0.00    +0.020 A 
ATOM     28  C   UNL     1      -1.828 -10.369  14.445  0.00  0.00    +0.020 A 
ATOM     29  C   UNL     1      -2.339 -10.297  13.149  0.00  0.00    +0.041 A 
ENDBRANCH  21  23
BRANCH  16  19
ATOM     19  C   UNL     1     -13.540 -11.042  21.238  0.00  0.00    +0.324 C 
BRANCH  19   5
ATOM      5  O   UNL     1     -14.919 -11.206  21.020  0.00  0.00    -0.483 OA
BRANCH   5  26
ATOM     26  C   UNL     1     -15.726 -10.105  21.210  0.00  0.00    +0.121 A 
ATOM     30  C   UNL     1     -15.264  -8.850  20.838  0.00  0.00    +0.045 A 
ATOM     31  C   UNL     1     -16.983 -10.270  21.769  0.00  0.00    +0.045 A 
ATOM     32  C   UNL     1     -16.080  -7.736  21.031  0.00  0.00    +0.004 A 
ATOM     33  C   UNL     1     -17.800  -9.156  21.962  0.00  0.00    +0.004 A 
ATOM     34  C   UNL     1     -17.348  -7.888  21.593  0.00  0.00    +0.000 A 
ENDBRANCH   5  26
ENDBRANCH  19   5
ENDBRANCH  16  19
TORSDOF 4
ENDMDL
MODEL 10
REMARK VINA RESULT:      -7.3     28.747     32.358
REMARK  Name = 7142435
REMARK  4 active torsions:
REMARK  status: ('A' for Active; 'I' for Inactive)
REMARK    1  A    between atoms: O_5  and  C_19
REMARK    2  A    between atoms: O_5  and  C_26
REMARK    3  A    between atoms: C_16  and  C_19
REMARK    4  A    between atoms: C_21  and  C_23
REMARK                            x       y       z     vdW  Elec       q    Type
REMARK                         _______ _______ _______ _____ _____    ______ ____
ROOT
ATOM      2  O   UNL     1     -13.130   5.418  21.942  0.00  0.00    -0.273 OA
ATOM      3  O   UNL     1     -13.837  10.655  21.837  0.00  0.00    -0.270 OA
ATOM      4  O   UNL     1     -16.801   3.970  21.900  0.00  0.00    -0.272 OA
ATOM      6  N   UNL     1     -14.423   8.430  21.598  0.00  0.00    -0.283 N 
ATOM      7  N   UNL     1     -16.015   6.116  22.326  0.00  0.00    -0.295 N 
ATOM      8  N   UNL     1     -11.869   7.061  21.000  0.00  0.00    -0.283 N 
ATOM      9  C   UNL     1     -14.324   7.197  20.830  0.00  0.00    +0.180 C 
ATOM     10  C   UNL     1     -15.586   6.330  20.941  0.00  0.00    +0.140 C 
ATOM     11  C   UNL     1     -15.520   8.537  22.560  0.00  0.00    +0.128 C 
ATOM     12  C   UNL     1     -15.789   7.217  23.266  0.00  0.00    +0.127 C 
ATOM     13  C   UNL     1     -13.077   6.490  21.336  0.00  0.00    +0.239 C 
ATOM     14  C   UNL     1     -13.640   9.549  21.330  0.00  0.00    +0.249 C 
ATOM     15  C   UNL     1     -12.482   9.414  20.407  0.00  0.00    +0.059 A 
ATOM     16  C   UNL     1     -16.606   4.902  22.682  0.00  0.00    +0.253 C 
ATOM     17  C   UNL     1     -11.635   8.294  20.359  0.00  0.00    +0.046 A 
ATOM     18  C   UNL     1     -12.138  10.569  19.681  0.00  0.00    +0.023 A 
ATOM     20  C   UNL     1     -10.429   8.384  19.641  0.00  0.00    +0.024 A 
ATOM     21  C   UNL     1     -10.962  10.623  18.934  0.00  0.00    -0.017 A 
ATOM     22  C   UNL     1     -10.100   9.535  18.925  0.00  0.00    +0.010 A 
ATOM     35  H   UNL     1     -11.052   6.472  21.147  0.00  0.00    +0.155 HD
ENDROOT
BRANCH  21  23
ATOM      1 CL   UNL     1      -9.588  15.544  15.871  0.00  0.00    -0.084 Cl
ATOM     23  C   UNL     1     -10.628  11.819  18.191  0.00  0.00    -0.018 A 
ATOM     24  C   UNL     1     -11.237  13.032  18.511  0.00  0.00    +0.010 A 
ATOM     25  C   UNL     1      -9.698  11.758  17.153  0.00  0.00    +0.010 A 
ATOM     27  C   UNL     1     -10.916  14.185  17.794  0.00  0.00    +0.020 A 
ATOM     28  C   UNL     1      -9.377  12.910  16.435  0.00  0.00    +0.020 A 
ATOM     29  C   UNL     1      -9.986  14.123  16.756  0.00  0.00    +0.041 A 
ENDBRANCH  21  23
BRANCH  16  19
ATOM     19  C   UNL     1     -17.023   4.764  24.126  0.00  0.00    +0.324 C 
BRANCH  19   5
ATOM      5  O   UNL     1     -17.286   3.399  24.338  0.00  0.00    -0.483 OA
BRANCH   5  26
ATOM     26  C   UNL     1     -16.948   2.872  25.566  0.00  0.00    +0.121 A 
ATOM     30  C   UNL     1     -17.067   1.506  25.777  0.00  0.00    +0.045 A 
ATOM     31  C   UNL     1     -16.496   3.716  26.568  0.00  0.00    +0.045 A 
ATOM     32  C   UNL     1     -16.725   0.973  27.020  0.00  0.00    +0.004 A 
ATOM     33  C   UNL     1     -16.155   3.183  27.811  0.00  0.00    +0.004 A 
ATOM     34  C   UNL     1     -16.270   1.811  28.038  0.00  0.00    +0.000 A 
ENDBRANCH   5  26
ENDBRANCH  19   5
ENDBRANCH  16  19
TORSDOF 4
ENDMDL
