MODEL 1
REMARK VINA RESULT:      -8.0      0.000      0.000
REMARK  Name = 56774638
REMARK  8 active torsions:
REMARK  status: ('A' for Active; 'I' for Inactive)
REMARK    1  A    between atoms: O_2  and  C_16
REMARK    2  A    between atoms: N_5  and  C_11
REMARK    3  A    between atoms: N_6  and  C_25
REMARK    4  A    between atoms: N_7  and  C_27
REMARK    5  A    between atoms: C_8  and  C_11
REMARK    6  A    between atoms: C_15  and  C_16
REMARK    7  A    between atoms: C_16  and  C_20
REMARK    8  A    between atoms: C_27  and  C_28
REMARK                            x       y       z     vdW  Elec       q    Type
REMARK                         _______ _______ _______ _____ _____    ______ ____
ROOT
ATOM     16  C   UNL     1      14.372   6.788  19.901  0.00  0.00    +0.167 C 
ENDROOT
BRANCH  16  15
ATOM      1  O   UNL     1      14.338   8.303  17.389  0.00  0.00    -0.369 OA
ATOM      3  O   UNL     1      10.775   8.272  17.973  0.00  0.00    -0.273 OA
ATOM      5  N   UNL     1      12.514   8.364  19.517  0.00  0.00    -0.291 N 
ATOM     15  C   UNL     1      13.959   8.255  19.749  0.00  0.00    +0.135 C 
ATOM     17  C   UNL     1      14.721   8.923  18.611  0.00  0.00    +0.185 C 
ATOM     18  C   UNL     1      11.976   8.356  18.231  0.00  0.00    +0.242 C 
ATOM     19  C   UNL     1      12.980   8.553  17.101  0.00  0.00    +0.255 C 
BRANCH   5  11
ATOM     11  C   UNL     1      11.639   8.295  20.681  0.00  0.00    +0.112 C 
BRANCH  11   8
ATOM      8  C   UNL     1      11.878   9.479  21.615  0.00  0.00    +0.006 C 
ATOM      9  C   UNL     1      11.954  10.790  20.821  0.00  0.00    +0.005 C 
ATOM     10  C   UNL     1      10.785   9.553  22.688  0.00  0.00    +0.005 C 
ATOM     12  C   UNL     1      12.140  11.996  21.738  0.00  0.00    +0.000 C 
ATOM     13  C   UNL     1      10.973  10.762  23.604  0.00  0.00    +0.000 C 
ATOM     14  C   UNL     1      11.056  12.061  22.809  0.00  0.00    +0.000 C 
ENDBRANCH  11   8
ENDBRANCH   5  11
ENDBRANCH  16  15
BRANCH  16  20
ATOM     20  C   UNL     1      15.868   6.636  20.021  0.00  0.00    -0.017 A 
ATOM     21  C   UNL     1      16.580   5.952  19.036  0.00  0.00    +0.008 A 
ATOM     22  C   UNL     1      16.538   7.183  21.115  0.00  0.00    +0.008 A 
ATOM     23  C   UNL     1      17.964   5.814  19.146  0.00  0.00    +0.024 A 
ATOM     24  C   UNL     1      17.921   7.044  21.225  0.00  0.00    +0.024 A 
ATOM     25  C   UNL     1      18.634   6.360  20.241  0.00  0.00    +0.035 A 
BRANCH  25   6
ATOM      4  O   UNL     1      20.323   3.895  20.520  0.00  0.00    -0.253 OA
ATOM      6  N   UNL     1      20.019   6.221  20.350  0.00  0.00    -0.269 N 
ATOM      7  N   UNL     1      22.140   5.324  20.561  0.00  0.00    -0.299 N 
ATOM     26  C   UNL     1      20.773   5.038  20.480  0.00  0.00    +0.304 C 
ATOM     30  H   UNL     1      20.550   7.088  20.333  0.00  0.00    +0.156 HD
ATOM     31  H   UNL     1      22.438   6.293  20.510  0.00  0.00    +0.150 HD
BRANCH   7  27
ATOM     27  C   UNL     1      23.153   4.303  20.699  0.00  0.00    +0.102 C 
ATOM     28  C   UNL     1      23.532   4.092  22.150  0.00  0.00    +0.024 C 
ENDBRANCH   7  27
ENDBRANCH  25   6
ENDBRANCH  16  20
BRANCH  16   2
ATOM      2  O   UNL     1      13.744   6.240  21.056  0.00  0.00    -0.385 OA
ATOM     29  H   UNL     1      13.531   5.309  20.873  0.00  0.00    +0.210 HD
ENDBRANCH  16   2
TORSDOF 7
ENDMDL
MODEL 2
REMARK VINA RESULT:      -7.4      2.184      3.276
REMARK  Name = 56774638
REMARK  8 active torsions:
REMARK  status: ('A' for Active; 'I' for Inactive)
REMARK    1  A    between atoms: O_2  and  C_16
REMARK    2  A    between atoms: N_5  and  C_11
REMARK    3  A    between atoms: N_6  and  C_25
REMARK    4  A    between atoms: N_7  and  C_27
REMARK    5  A    between atoms: C_8  and  C_11
REMARK    6  A    between atoms: C_15  and  C_16
REMARK    7  A    between atoms: C_16  and  C_20
REMARK    8  A    between atoms: C_27  and  C_28
REMARK                            x       y       z     vdW  Elec       q    Type
REMARK                         _______ _______ _______ _____ _____    ______ ____
ROOT
ATOM     16  C   UNL     1      14.368   6.831  20.102  0.00  0.00    +0.167 C 
ENDROOT
BRANCH  16  15
ATOM      1  O   UNL     1      11.911   7.552  18.669  0.00  0.00    -0.369 OA
ATOM      3  O   UNL     1      11.574   9.894  21.396  0.00  0.00    -0.273 OA
ATOM      5  N   UNL     1      13.507   9.130  20.349  0.00  0.00    -0.291 N 
ATOM     15  C   UNL     1      14.098   8.171  19.409  0.00  0.00    +0.135 C 
ATOM     17  C   UNL     1      13.183   7.989  18.204  0.00  0.00    +0.185 C 
ATOM     18  C   UNL     1      12.127   9.240  20.511  0.00  0.00    +0.242 C 
ATOM     19  C   UNL     1      11.285   8.551  19.443  0.00  0.00    +0.255 C 
BRANCH   5  11
ATOM     11  C   UNL     1      14.411   9.838  21.245  0.00  0.00    +0.112 C 
BRANCH  11   8
ATOM      8  C   UNL     1      15.702  10.225  20.526  0.00  0.00    +0.006 C 
ATOM      9  C   UNL     1      15.592  11.639  19.939  0.00  0.00    +0.005 C 
ATOM     10  C   UNL     1      16.903  10.119  21.473  0.00  0.00    +0.005 C 
ATOM     12  C   UNL     1      16.889  12.070  19.260  0.00  0.00    +0.000 C 
ATOM     13  C   UNL     1      18.200  10.553  20.792  0.00  0.00    +0.000 C 
ATOM     14  C   UNL     1      18.083  11.955  20.202  0.00  0.00    +0.000 C 
ENDBRANCH  11   8
ENDBRANCH   5  11
ENDBRANCH  16  15
BRANCH  16  20
ATOM     20  C   UNL     1      15.842   6.517  20.157  0.00  0.00    -0.017 A 
ATOM     21  C   UNL     1      16.500   6.057  19.016  0.00  0.00    +0.008 A 
ATOM     22  C   UNL     1      16.547   6.687  21.349  0.00  0.00    +0.008 A 
ATOM     23  C   UNL     1      17.863   5.767  19.067  0.00  0.00    +0.024 A 
ATOM     24  C   UNL     1      17.910   6.397  21.399  0.00  0.00    +0.024 A 
ATOM     25  C   UNL     1      18.568   5.937  20.259  0.00  0.00    +0.035 A 
BRANCH  25   6
ATOM      4  O   UNL     1      20.925   7.746  20.688  0.00  0.00    -0.253 OA
ATOM      6  N   UNL     1      19.933   5.647  20.309  0.00  0.00    -0.269 N 
ATOM      7  N   UNL     1      22.229   5.847  20.495  0.00  0.00    -0.299 N 
ATOM     26  C   UNL     1      21.010   6.532  20.513  0.00  0.00    +0.304 C 
ATOM     30  H   UNL     1      20.179   4.669  20.181  0.00  0.00    +0.156 HD
ATOM     31  H   UNL     1      22.220   4.841  20.356  0.00  0.00    +0.150 HD
BRANCH   7  27
ATOM     27  C   UNL     1      23.504   6.501  20.679  0.00  0.00    +0.102 C 
ATOM     28  C   UNL     1      24.655   5.578  20.335  0.00  0.00    +0.024 C 
ENDBRANCH   7  27
ENDBRANCH  25   6
ENDBRANCH  16  20
BRANCH  16   2
ATOM      2  O   UNL     1      13.840   6.871  21.423  0.00  0.00    -0.385 OA
ATOM     29  H   UNL     1      13.306   6.070  21.562  0.00  0.00    +0.210 HD
ENDBRANCH  16   2
TORSDOF 7
ENDMDL
MODEL 3
REMARK VINA RESULT:      -7.3      1.639      2.046
REMARK  Name = 56774638
REMARK  8 active torsions:
REMARK  status: ('A' for Active; 'I' for Inactive)
REMARK    1  A    between atoms: O_2  and  C_16
REMARK    2  A    between atoms: N_5  and  C_11
REMARK    3  A    between atoms: N_6  and  C_25
REMARK    4  A    between atoms: N_7  and  C_27
REMARK    5  A    between atoms: C_8  and  C_11
REMARK    6  A    between atoms: C_15  and  C_16
REMARK    7  A    between atoms: C_16  and  C_20
REMARK    8  A    between atoms: C_27  and  C_28
REMARK                            x       y       z     vdW  Elec       q    Type
REMARK                         _______ _______ _______ _____ _____    ______ ____
ROOT
ATOM     16  C   UNL     1      14.635   7.009  19.298  0.00  0.00    +0.167 C 
ENDROOT
BRANCH  16  15
ATOM      1  O   UNL     1      13.136   7.941  16.955  0.00  0.00    -0.369 OA
ATOM      3  O   UNL     1      10.551   8.479  19.417  0.00  0.00    -0.273 OA
ATOM      5  N   UNL     1      12.858   8.684  19.643  0.00  0.00    -0.291 N 
ATOM     15  C   UNL     1      14.177   8.449  19.045  0.00  0.00    +0.135 C 
ATOM     17  C   UNL     1      14.136   8.757  17.554  0.00  0.00    +0.185 C 
ATOM     18  C   UNL     1      11.681   8.467  18.929  0.00  0.00    +0.242 C 
ATOM     19  C   UNL     1      11.853   8.289  17.424  0.00  0.00    +0.255 C 
BRANCH   5  11
ATOM     11  C   UNL     1      12.808   8.977  21.070  0.00  0.00    +0.112 C 
BRANCH  11   8
ATOM      8  C   UNL     1      12.948  10.476  21.326  0.00  0.00    +0.006 C 
ATOM      9  C   UNL     1      11.575  11.110  21.591  0.00  0.00    +0.005 C 
ATOM     10  C   UNL     1      13.907  10.741  22.493  0.00  0.00    +0.005 C 
ATOM     12  C   UNL     1      11.693  12.600  21.902  0.00  0.00    +0.000 C 
ATOM     13  C   UNL     1      14.020  12.233  22.803  0.00  0.00    +0.000 C 
ATOM     14  C   UNL     1      12.653  12.860  23.057  0.00  0.00    +0.000 C 
ENDBRANCH  11   8
ENDBRANCH   5  11
ENDBRANCH  16  15
BRANCH  16  20
ATOM     20  C   UNL     1      16.073   6.950  19.751  0.00  0.00    -0.017 A 
ATOM     21  C   UNL     1      16.554   7.885  20.667  0.00  0.00    +0.008 A 
ATOM     22  C   UNL     1      16.919   5.958  19.255  0.00  0.00    +0.008 A 
ATOM     23  C   UNL     1      17.884   7.829  21.086  0.00  0.00    +0.024 A 
ATOM     24  C   UNL     1      18.248   5.903  19.674  0.00  0.00    +0.024 A 
ATOM     25  C   UNL     1      18.730   6.838  20.590  0.00  0.00    +0.035 A 
BRANCH  25   6
ATOM      4  O   UNL     1      19.892   6.186  23.279  0.00  0.00    -0.253 OA
ATOM      6  N   UNL     1      20.060   6.783  21.010  0.00  0.00    -0.269 N 
ATOM      7  N   UNL     1      21.960   6.524  22.303  0.00  0.00    -0.299 N 
ATOM     26  C   UNL     1      20.563   6.471  22.289  0.00  0.00    +0.304 C 
ATOM     30  H   UNL     1      20.755   6.996  20.299  0.00  0.00    +0.156 HD
ATOM     31  H   UNL     1      22.447   6.757  21.443  0.00  0.00    +0.150 HD
BRANCH   7  27
ATOM     27  C   UNL     1      22.749   6.249  23.482  0.00  0.00    +0.102 C 
ATOM     28  C   UNL     1      23.005   7.509  24.283  0.00  0.00    +0.024 C 
ENDBRANCH   7  27
ENDBRANCH  25   6
ENDBRANCH  16  20
BRANCH  16   2
ATOM      2  O   UNL     1      13.800   6.417  20.287  0.00  0.00    -0.385 OA
ATOM     29  H   UNL     1      12.931   6.851  20.251  0.00  0.00    +0.210 HD
ENDBRANCH  16   2
TORSDOF 7
ENDMDL
MODEL 4
REMARK VINA RESULT:      -7.1     26.291     29.273
REMARK  Name = 56774638
REMARK  8 active torsions:
REMARK  status: ('A' for Active; 'I' for Inactive)
REMARK    1  A    between atoms: O_2  and  C_16
REMARK    2  A    between atoms: N_5  and  C_11
REMARK    3  A    between atoms: N_6  and  C_25
REMARK    4  A    between atoms: N_7  and  C_27
REMARK    5  A    between atoms: C_8  and  C_11
REMARK    6  A    between atoms: C_15  and  C_16
REMARK    7  A    between atoms: C_16  and  C_20
REMARK    8  A    between atoms: C_27  and  C_28
REMARK                            x       y       z     vdW  Elec       q    Type
REMARK                         _______ _______ _______ _____ _____    ______ ____
ROOT
ATOM     16  C   UNL     1     -12.464   8.815  19.276  0.00  0.00    +0.167 C 
ENDROOT
BRANCH  16  15
ATOM      1  O   UNL     1     -10.035   9.988  18.119  0.00  0.00    -0.369 OA
ATOM      3  O   UNL     1     -11.806  13.074  18.736  0.00  0.00    -0.273 OA
ATOM      5  N   UNL     1     -11.830  11.097  19.965  0.00  0.00    -0.291 N 
ATOM     15  C   UNL     1     -11.446   9.682  20.024  0.00  0.00    +0.135 C 
ATOM     17  C   UNL     1     -10.045   9.498  19.455  0.00  0.00    +0.185 C 
ATOM     18  C   UNL     1     -11.389  11.933  18.941  0.00  0.00    +0.242 C 
ATOM     19  C   UNL     1     -10.249  11.382  18.092  0.00  0.00    +0.255 C 
BRANCH   5  11
ATOM     11  C   UNL     1     -12.839  11.561  20.909  0.00  0.00    +0.112 C 
BRANCH  11   8
ATOM      8  C   UNL     1     -12.788  10.752  22.204  0.00  0.00    +0.006 C 
ATOM      9  C   UNL     1     -12.204  11.594  23.346  0.00  0.00    +0.005 C 
ATOM     10  C   UNL     1     -14.182  10.227  22.570  0.00  0.00    +0.005 C 
ATOM     12  C   UNL     1     -12.192  10.825  24.665  0.00  0.00    +0.000 C 
ATOM     13  C   UNL     1     -14.167   9.460  23.891  0.00  0.00    +0.000 C 
ATOM     14  C   UNL     1     -13.578  10.297  25.022  0.00  0.00    +0.000 C 
ENDBRANCH  11   8
ENDBRANCH   5  11
ENDBRANCH  16  15
BRANCH  16  20
ATOM     20  C   UNL     1     -12.950   7.665  20.122  0.00  0.00    -0.017 A 
ATOM     21  C   UNL     1     -12.038   6.901  20.849  0.00  0.00    +0.008 A 
ATOM     22  C   UNL     1     -14.312   7.369  20.178  0.00  0.00    +0.008 A 
ATOM     23  C   UNL     1     -12.489   5.838  21.633  0.00  0.00    +0.024 A 
ATOM     24  C   UNL     1     -14.762   6.307  20.962  0.00  0.00    +0.024 A 
ATOM     25  C   UNL     1     -13.851   5.542  21.690  0.00  0.00    +0.035 A 
BRANCH  25   6
ATOM      4  O   UNL     1     -16.116   5.398  23.652  0.00  0.00    -0.253 OA
ATOM      6  N   UNL     1     -14.300   4.479  22.474  0.00  0.00    -0.269 N 
ATOM      7  N   UNL     1     -15.501   3.194  23.976  0.00  0.00    -0.299 N 
ATOM     26  C   UNL     1     -15.374   4.456  23.387  0.00  0.00    +0.304 C 
ATOM     30  H   UNL     1     -13.785   3.608  22.372  0.00  0.00    +0.156 HD
ATOM     31  H   UNL     1     -14.856   2.460  23.699  0.00  0.00    +0.150 HD
BRANCH   7  27
ATOM     27  C   UNL     1     -16.518   2.878  24.953  0.00  0.00    +0.102 C 
ATOM     28  C   UNL     1     -16.050   3.188  26.359  0.00  0.00    +0.024 C 
ENDBRANCH   7  27
ENDBRANCH  25   6
ENDBRANCH  16  20
BRANCH  16   2
ATOM      2  O   UNL     1     -13.570   9.620  18.885  0.00  0.00    -0.385 OA
ATOM     29  H   UNL     1     -14.321   9.033  18.690  0.00  0.00    +0.210 HD
ENDBRANCH  16   2
TORSDOF 7
ENDMDL
MODEL 5
REMARK VINA RESULT:      -6.8      1.948      3.118
REMARK  Name = 56774638
REMARK  8 active torsions:
REMARK  status: ('A' for Active; 'I' for Inactive)
REMARK    1  A    between atoms: O_2  and  C_16
REMARK    2  A    between atoms: N_5  and  C_11
REMARK    3  A    between atoms: N_6  and  C_25
REMARK    4  A    between atoms: N_7  and  C_27
REMARK    5  A    between atoms: C_8  and  C_11
REMARK    6  A    between atoms: C_15  and  C_16
REMARK    7  A    between atoms: C_16  and  C_20
REMARK    8  A    between atoms: C_27  and  C_28
REMARK                            x       y       z     vdW  Elec       q    Type
REMARK                         _______ _______ _______ _____ _____    ______ ____
ROOT
ATOM     16  C   UNL     1      14.120   7.065  20.654  0.00  0.00    +0.167 C 
ENDROOT
BRANCH  16  15
ATOM      1  O   UNL     1      11.481   7.427  19.422  0.00  0.00    -0.369 OA
ATOM      3  O   UNL     1      11.322  10.214  21.712  0.00  0.00    -0.273 OA
ATOM      5  N   UNL     1      13.165   9.339  20.591  0.00  0.00    -0.291 N 
ATOM     15  C   UNL     1      13.699   8.245  19.772  0.00  0.00    +0.135 C 
ATOM     17  C   UNL     1      12.666   7.816  18.738  0.00  0.00    +0.185 C 
ATOM     18  C   UNL     1      11.808   9.429  20.897  0.00  0.00    +0.242 C 
ATOM     19  C   UNL     1      10.892   8.528  20.076  0.00  0.00    +0.255 C 
BRANCH   5  11
ATOM     11  C   UNL     1      14.123  10.230  21.233  0.00  0.00    +0.112 C 
BRANCH  11   8
ATOM      8  C   UNL     1      14.520  11.370  20.298  0.00  0.00    +0.006 C 
ATOM      9  C   UNL     1      15.911  11.121  19.700  0.00  0.00    +0.005 C 
ATOM     10  C   UNL     1      13.474  11.553  19.191  0.00  0.00    +0.005 C 
ATOM     12  C   UNL     1      16.309  12.222  18.719  0.00  0.00    +0.000 C 
ATOM     13  C   UNL     1      13.876  12.654  18.210  0.00  0.00    +0.000 C 
ATOM     14  C   UNL     1      15.262  12.407  17.625  0.00  0.00    +0.000 C 
ENDBRANCH  11   8
ENDBRANCH   5  11
ENDBRANCH  16  15
BRANCH  16  20
ATOM     20  C   UNL     1      15.557   6.675  20.419  0.00  0.00    -0.017 A 
ATOM     21  C   UNL     1      16.485   6.776  21.456  0.00  0.00    +0.008 A 
ATOM     22  C   UNL     1      15.958   6.212  19.166  0.00  0.00    +0.008 A 
ATOM     23  C   UNL     1      17.815   6.414  21.240  0.00  0.00    +0.024 A 
ATOM     24  C   UNL     1      17.287   5.851  18.950  0.00  0.00    +0.024 A 
ATOM     25  C   UNL     1      18.216   5.951  19.986  0.00  0.00    +0.035 A 
BRANCH  25   6
ATOM      4  O   UNL     1      20.506   5.730  21.913  0.00  0.00    -0.253 OA
ATOM      6  N   UNL     1      19.546   5.589  19.770  0.00  0.00    -0.269 N 
ATOM      7  N   UNL     1      21.784   5.099  20.092  0.00  0.00    -0.299 N 
ATOM     26  C   UNL     1      20.593   5.498  20.709  0.00  0.00    +0.304 C 
ATOM     30  H   UNL     1      19.789   5.361  18.810  0.00  0.00    +0.156 HD
ATOM     31  H   UNL     1      21.776   4.916  19.094  0.00  0.00    +0.150 HD
BRANCH   7  27
ATOM     27  C   UNL     1      23.024   4.923  20.811  0.00  0.00    +0.102 C 
ATOM     28  C   UNL     1      23.352   3.457  20.999  0.00  0.00    +0.024 C 
ENDBRANCH   7  27
ENDBRANCH  25   6
ENDBRANCH  16  20
BRANCH  16   2
ATOM      2  O   UNL     1      13.938   7.413  22.022  0.00  0.00    -0.385 OA
ATOM     29  H   UNL     1      14.734   7.146  22.513  0.00  0.00    +0.210 HD
ENDBRANCH  16   2
TORSDOF 7
ENDMDL
MODEL 6
REMARK VINA RESULT:      -6.7     27.282     30.210
REMARK  Name = 56774638
REMARK  8 active torsions:
REMARK  status: ('A' for Active; 'I' for Inactive)
REMARK    1  A    between atoms: O_2  and  C_16
REMARK    2  A    between atoms: N_5  and  C_11
REMARK    3  A    between atoms: N_6  and  C_25
REMARK    4  A    between atoms: N_7  and  C_27
REMARK    5  A    between atoms: C_8  and  C_11
REMARK    6  A    between atoms: C_15  and  C_16
REMARK    7  A    between atoms: C_16  and  C_20
REMARK    8  A    between atoms: C_27  and  C_28
REMARK                            x       y       z     vdW  Elec       q    Type
REMARK                         _______ _______ _______ _____ _____    ______ ____
ROOT
ATOM     16  C   UNL     1      -3.562 -10.668  15.849  0.00  0.00    +0.167 C 
ENDROOT
BRANCH  16  15
ATOM      1  O   UNL     1      -1.844 -10.841  13.477  0.00  0.00    -0.369 OA
ATOM      3  O   UNL     1      -2.016 -14.375  14.197  0.00  0.00    -0.273 OA
ATOM      5  N   UNL     1      -3.638 -12.734  14.503  0.00  0.00    -0.291 N 
ATOM     15  C   UNL     1      -3.950 -11.300  14.508  0.00  0.00    +0.135 C 
ATOM     17  C   UNL     1      -3.242 -10.608  13.351  0.00  0.00    +0.185 C 
ATOM     18  C   UNL     1      -2.404 -13.213  14.068  0.00  0.00    +0.242 C 
ATOM     19  C   UNL     1      -1.543 -12.208  13.311  0.00  0.00    +0.255 C 
BRANCH   5  11
ATOM     11  C   UNL     1      -4.592 -13.633  15.141  0.00  0.00    +0.112 C 
BRANCH  11   8
ATOM      8  C   UNL     1      -6.022 -13.299  14.722  0.00  0.00    +0.006 C 
ATOM      9  C   UNL     1      -6.481 -14.217  13.581  0.00  0.00    +0.005 C 
ATOM     10  C   UNL     1      -6.975 -13.396  15.920  0.00  0.00    +0.005 C 
ATOM     12  C   UNL     1      -7.927 -13.939  13.180  0.00  0.00    +0.000 C 
ATOM     13  C   UNL     1      -8.422 -13.119  15.514  0.00  0.00    +0.000 C 
ATOM     14  C   UNL     1      -8.871 -14.029  14.374  0.00  0.00    +0.000 C 
ENDBRANCH  11   8
ENDBRANCH   5  11
ENDBRANCH  16  15
BRANCH  16  20
ATOM     20  C   UNL     1      -4.746 -10.548  16.775  0.00  0.00    -0.017 A 
ATOM     21  C   UNL     1      -5.874  -9.831  16.375  0.00  0.00    +0.008 A 
ATOM     22  C   UNL     1      -4.714 -11.155  18.030  0.00  0.00    +0.008 A 
ATOM     23  C   UNL     1      -6.970  -9.721  17.232  0.00  0.00    +0.024 A 
ATOM     24  C   UNL     1      -5.809 -11.045  18.886  0.00  0.00    +0.024 A 
ATOM     25  C   UNL     1      -6.937 -10.329  18.487  0.00  0.00    +0.035 A 
BRANCH  25   6
ATOM      4  O   UNL     1      -9.676 -11.542  18.302  0.00  0.00    -0.253 OA
ATOM      6  N   UNL     1      -8.034 -10.218  19.343  0.00  0.00    -0.269 N 
ATOM      7  N   UNL     1     -10.132 -10.451  20.289  0.00  0.00    -0.299 N 
ATOM     26  C   UNL     1      -9.307 -10.808  19.217  0.00  0.00    +0.304 C 
ATOM     30  H   UNL     1      -7.893  -9.636  20.165  0.00  0.00    +0.156 HD
ATOM     31  H   UNL     1      -9.754  -9.849  21.013  0.00  0.00    +0.150 HD
BRANCH   7  27
ATOM     27  C   UNL     1     -11.495 -10.910  20.422  0.00  0.00    +0.102 C 
ATOM     28  C   UNL     1     -12.484  -9.795  20.154  0.00  0.00    +0.024 C 
ENDBRANCH   7  27
ENDBRANCH  25   6
ENDBRANCH  16  20
BRANCH  16   2
ATOM      2  O   UNL     1      -2.553 -11.459  16.467  0.00  0.00    -0.385 OA
ATOM     29  H   UNL     1      -1.858 -10.863  16.797  0.00  0.00    +0.210 HD
ENDBRANCH  16   2
TORSDOF 7
ENDMDL
MODEL 7
REMARK VINA RESULT:      -6.7     27.432     29.828
REMARK  Name = 56774638
REMARK  8 active torsions:
REMARK  status: ('A' for Active; 'I' for Inactive)
REMARK    1  A    between atoms: O_2  and  C_16
REMARK    2  A    between atoms: N_5  and  C_11
REMARK    3  A    between atoms: N_6  and  C_25
REMARK    4  A    between atoms: N_7  and  C_27
REMARK    5  A    between atoms: C_8  and  C_11
REMARK    6  A    between atoms: C_15  and  C_16
REMARK    7  A    between atoms: C_16  and  C_20
REMARK    8  A    between atoms: C_27  and  C_28
REMARK                            x       y       z     vdW  Elec       q    Type
REMARK                         _______ _______ _______ _____ _____    ______ ____
ROOT
ATOM     16  C   UNL     1      -7.468 -11.431  19.180  0.00  0.00    +0.167 C 
ENDROOT
BRANCH  16  15
ATOM      1  O   UNL     1      -8.700 -14.094  19.150  0.00  0.00    -0.369 OA
ATOM      3  O   UNL     1     -11.241 -12.416  21.091  0.00  0.00    -0.273 OA
ATOM      5  N   UNL     1      -9.923 -11.581  19.364  0.00  0.00    -0.291 N 
ATOM     15  C   UNL     1      -8.777 -11.802  18.475  0.00  0.00    +0.135 C 
ATOM     17  C   UNL     1      -8.754 -13.251  18.005  0.00  0.00    +0.185 C 
ATOM     18  C   UNL     1     -10.402 -12.584  20.205  0.00  0.00    +0.242 C 
ATOM     19  C   UNL     1      -9.882 -13.986  19.912  0.00  0.00    +0.255 C 
BRANCH   5  11
ATOM     11  C   UNL     1     -10.434 -10.220  19.478  0.00  0.00    +0.112 C 
BRANCH  11   8
ATOM      8  C   UNL     1     -10.699  -9.619  18.099  0.00  0.00    +0.006 C 
ATOM      9  C   UNL     1     -12.170  -9.203  17.964  0.00  0.00    +0.005 C 
ATOM     10  C   UNL     1      -9.767  -8.429  17.838  0.00  0.00    +0.005 C 
ATOM     12  C   UNL     1     -12.449  -8.549  16.612  0.00  0.00    +0.000 C 
ATOM     13  C   UNL     1     -10.051  -7.776  16.486  0.00  0.00    +0.000 C 
ATOM     14  C   UNL     1     -11.516  -7.371  16.353  0.00  0.00    +0.000 C 
ENDBRANCH  11   8
ENDBRANCH   5  11
ENDBRANCH  16  15
BRANCH  16  20
ATOM     20  C   UNL     1      -6.367 -11.130  18.194  0.00  0.00    -0.017 A 
ATOM     21  C   UNL     1      -5.123 -11.745  18.329  0.00  0.00    +0.008 A 
ATOM     22  C   UNL     1      -6.595 -10.237  17.147  0.00  0.00    +0.008 A 
ATOM     23  C   UNL     1      -4.105 -11.467  17.416  0.00  0.00    +0.024 A 
ATOM     24  C   UNL     1      -5.578  -9.959  16.235  0.00  0.00    +0.024 A 
ATOM     25  C   UNL     1      -4.333 -10.574  16.369  0.00  0.00    +0.035 A 
BRANCH  25   6
ATOM      4  O   UNL     1      -3.905 -11.574  13.572  0.00  0.00    -0.253 OA
ATOM      6  N   UNL     1      -3.314 -10.297  15.456  0.00  0.00    -0.269 N 
ATOM      7  N   UNL     1      -1.997 -10.270  13.556  0.00  0.00    -0.299 N 
ATOM     26  C   UNL     1      -3.152 -10.791  14.147  0.00  0.00    +0.304 C 
ATOM     30  H   UNL     1      -2.597  -9.653  15.780  0.00  0.00    +0.156 HD
ATOM     31  H   UNL     1      -1.428  -9.619  14.089  0.00  0.00    +0.150 HD
BRANCH   7  27
ATOM     27  C   UNL     1      -1.578 -10.603  12.214  0.00  0.00    +0.102 C 
ATOM     28  C   UNL     1      -2.205  -9.678  11.192  0.00  0.00    +0.024 C 
ENDBRANCH   7  27
ENDBRANCH  25   6
ENDBRANCH  16  20
BRANCH  16   2
ATOM      2  O   UNL     1      -7.687 -10.297  20.011  0.00  0.00    -0.385 OA
ATOM     29  H   UNL     1      -6.822  -9.906  20.227  0.00  0.00    +0.210 HD
ENDBRANCH  16   2
TORSDOF 7
ENDMDL
MODEL 8
REMARK VINA RESULT:      -6.6     27.896     30.358
REMARK  Name = 56774638
REMARK  8 active torsions:
REMARK  status: ('A' for Active; 'I' for Inactive)
REMARK    1  A    between atoms: O_2  and  C_16
REMARK    2  A    between atoms: N_5  and  C_11
REMARK    3  A    between atoms: N_6  and  C_25
REMARK    4  A    between atoms: N_7  and  C_27
REMARK    5  A    between atoms: C_8  and  C_11
REMARK    6  A    between atoms: C_15  and  C_16
REMARK    7  A    between atoms: C_16  and  C_20
REMARK    8  A    between atoms: C_27  and  C_28
REMARK                            x       y       z     vdW  Elec       q    Type
REMARK                         _______ _______ _______ _____ _____    ______ ____
ROOT
ATOM     16  C   UNL     1      -9.310 -11.748  19.799  0.00  0.00    +0.167 C 
ENDROOT
BRANCH  16  15
ATOM      1  O   UNL     1     -12.032 -12.788  20.148  0.00  0.00    -0.369 OA
ATOM      3  O   UNL     1     -12.927  -9.405  19.257  0.00  0.00    -0.273 OA
ATOM      5  N   UNL     1     -11.134 -10.692  18.517  0.00  0.00    -0.291 N 
ATOM     15  C   UNL     1     -10.350 -11.921  18.687  0.00  0.00    +0.135 C 
ATOM     17  C   UNL     1     -11.277 -13.094  18.981  0.00  0.00    +0.185 C 
ATOM     18  C   UNL     1     -12.316 -10.474  19.222  0.00  0.00    +0.242 C 
ATOM     19  C   UNL     1     -12.899 -11.700  19.917  0.00  0.00    +0.255 C 
BRANCH   5  11
ATOM     11  C   UNL     1     -10.544  -9.621  17.724  0.00  0.00    +0.112 C 
BRANCH  11   8
ATOM      8  C   UNL     1      -9.760 -10.186  16.540  0.00  0.00    +0.006 C 
ATOM      9  C   UNL     1     -10.551 -10.016  15.236  0.00  0.00    +0.005 C 
ATOM     10  C   UNL     1      -8.382  -9.520  16.436  0.00  0.00    +0.005 C 
ATOM     12  C   UNL     1      -9.765 -10.524  14.030  0.00  0.00    +0.000 C 
ATOM     13  C   UNL     1      -7.600 -10.030  15.226  0.00  0.00    +0.000 C 
ATOM     14  C   UNL     1      -8.393  -9.867  13.933  0.00  0.00    +0.000 C 
ENDBRANCH  11   8
ENDBRANCH   5  11
ENDBRANCH  16  15
BRANCH  16  20
ATOM     20  C   UNL     1      -7.904 -11.743  19.255  0.00  0.00    -0.017 A 
ATOM     21  C   UNL     1      -7.027 -10.713  19.597  0.00  0.00    +0.008 A 
ATOM     22  C   UNL     1      -7.480 -12.769  18.410  0.00  0.00    +0.008 A 
ATOM     23  C   UNL     1      -5.726 -10.710  19.094  0.00  0.00    +0.024 A 
ATOM     24  C   UNL     1      -6.180 -12.766  17.908  0.00  0.00    +0.024 A 
ATOM     25  C   UNL     1      -5.302 -11.736  18.250  0.00  0.00    +0.035 A 
BRANCH  25   6
ATOM      4  O   UNL     1      -4.241 -10.777  15.612  0.00  0.00    -0.253 OA
ATOM      6  N   UNL     1      -4.000 -11.732  17.747  0.00  0.00    -0.269 N 
ATOM      7  N   UNL     1      -2.162 -11.441  16.374  0.00  0.00    -0.299 N 
ATOM     26  C   UNL     1      -3.545 -11.270  16.497  0.00  0.00    +0.304 C 
ATOM     30  H   UNL     1      -3.289 -12.113  18.367  0.00  0.00    +0.156 HD
ATOM     31  H   UNL     1      -1.651 -11.847  17.152  0.00  0.00    +0.150 HD
BRANCH   7  27
ATOM     27  C   UNL     1      -1.421 -11.056  15.196  0.00  0.00    +0.102 C 
ATOM     28  C   UNL     1      -0.976  -9.611  15.268  0.00  0.00    +0.024 C 
ENDBRANCH   7  27
ENDBRANCH  25   6
ENDBRANCH  16  20
BRANCH  16   2
ATOM      2  O   UNL     1      -9.558 -10.527  20.489  0.00  0.00    -0.385 OA
ATOM     29  H   UNL     1      -9.095  -9.812  20.019  0.00  0.00    +0.210 HD
ENDBRANCH  16   2
TORSDOF 7
ENDMDL
MODEL 9
REMARK VINA RESULT:      -6.5      2.092      3.613
REMARK  Name = 56774638
REMARK  8 active torsions:
REMARK  status: ('A' for Active; 'I' for Inactive)
REMARK    1  A    between atoms: O_2  and  C_16
REMARK    2  A    between atoms: N_5  and  C_11
REMARK    3  A    between atoms: N_6  and  C_25
REMARK    4  A    between atoms: N_7  and  C_27
REMARK    5  A    between atoms: C_8  and  C_11
REMARK    6  A    between atoms: C_15  and  C_16
REMARK    7  A    between atoms: C_16  and  C_20
REMARK    8  A    between atoms: C_27  and  C_28
REMARK                            x       y       z     vdW  Elec       q    Type
REMARK                         _______ _______ _______ _____ _____    ______ ____
ROOT
ATOM     16  C   UNL     1      14.070   7.684  21.502  0.00  0.00    +0.167 C 
ENDROOT
BRANCH  16  15
ATOM      1  O   UNL     1      11.175   7.537  21.959  0.00  0.00    -0.369 OA
ATOM      3  O   UNL     1      11.064   9.115  18.713  0.00  0.00    -0.273 OA
ATOM      5  N   UNL     1      12.585   7.558  19.536  0.00  0.00    -0.291 N 
ATOM     15  C   UNL     1      13.082   6.825  20.706  0.00  0.00    +0.135 C 
ATOM     17  C   UNL     1      11.914   6.382  21.578  0.00  0.00    +0.185 C 
ATOM     18  C   UNL     1      11.437   8.345  19.599  0.00  0.00    +0.242 C 
ATOM     19  C   UNL     1      10.571   8.141  20.837  0.00  0.00    +0.255 C 
BRANCH   5  11
ATOM     11  C   UNL     1      13.432   7.586  18.350  0.00  0.00    +0.112 C 
BRANCH  11   8
ATOM      8  C   UNL     1      13.543   9.004  17.791  0.00  0.00    +0.006 C 
ATOM      9  C   UNL     1      14.784   9.711  18.351  0.00  0.00    +0.005 C 
ATOM     10  C   UNL     1      13.570   8.982  16.258  0.00  0.00    +0.005 C 
ATOM     12  C   UNL     1      14.947  11.112  17.767  0.00  0.00    +0.000 C 
ATOM     13  C   UNL     1      13.735  10.385  15.677  0.00  0.00    +0.000 C 
ATOM     14  C   UNL     1      14.966  11.087  16.242  0.00  0.00    +0.000 C 
ENDBRANCH  11   8
ENDBRANCH   5  11
ENDBRANCH  16  15
BRANCH  16  20
ATOM     20  C   UNL     1      15.499   7.392  21.122  0.00  0.00    -0.017 A 
ATOM     21  C   UNL     1      15.803   6.256  20.371  0.00  0.00    +0.008 A 
ATOM     22  C   UNL     1      16.518   8.258  21.520  0.00  0.00    +0.008 A 
ATOM     23  C   UNL     1      17.125   5.986  20.019  0.00  0.00    +0.024 A 
ATOM     24  C   UNL     1      17.839   7.988  21.167  0.00  0.00    +0.024 A 
ATOM     25  C   UNL     1      18.143   6.852  20.417  0.00  0.00    +0.035 A 
BRANCH  25   6
ATOM      4  O   UNL     1      20.420   5.804  22.068  0.00  0.00    -0.253 OA
ATOM      6  N   UNL     1      19.466   6.581  20.063  0.00  0.00    -0.269 N 
ATOM      7  N   UNL     1      21.690   5.952  20.143  0.00  0.00    -0.299 N 
ATOM     26  C   UNL     1      20.507   6.088  20.876  0.00  0.00    +0.304 C 
ATOM     30  H   UNL     1      19.708   6.765  19.093  0.00  0.00    +0.156 HD
ATOM     31  H   UNL     1      21.683   6.197  19.157  0.00  0.00    +0.150 HD
BRANCH   7  27
ATOM     27  C   UNL     1      22.923   5.467  20.718  0.00  0.00    +0.102 C 
ATOM     28  C   UNL     1      23.747   6.598  21.298  0.00  0.00    +0.024 C 
ENDBRANCH   7  27
ENDBRANCH  25   6
ENDBRANCH  16  20
BRANCH  16   2
ATOM      2  O   UNL     1      13.788   9.060  21.271  0.00  0.00    -0.385 OA
ATOM     29  H   UNL     1      14.174   9.311  20.414  0.00  0.00    +0.210 HD
ENDBRANCH  16   2
TORSDOF 7
ENDMDL
MODEL 10
REMARK VINA RESULT:      -6.4      2.960      7.917
REMARK  Name = 56774638
REMARK  8 active torsions:
REMARK  status: ('A' for Active; 'I' for Inactive)
REMARK    1  A    between atoms: O_2  and  C_16
REMARK    2  A    between atoms: N_5  and  C_11
REMARK    3  A    between atoms: N_6  and  C_25
REMARK    4  A    between atoms: N_7  and  C_27
REMARK    5  A    between atoms: C_8  and  C_11
REMARK    6  A    between atoms: C_15  and  C_16
REMARK    7  A    between atoms: C_16  and  C_20
REMARK    8  A    between atoms: C_27  and  C_28
REMARK                            x       y       z     vdW  Elec       q    Type
REMARK                         _______ _______ _______ _____ _____    ______ ____
ROOT
ATOM     16  C   UNL     1      19.569   6.286  21.243  0.00  0.00    +0.167 C 
ENDROOT
BRANCH  16  15
ATOM      1  O   UNL     1      21.866   6.191  23.068  0.00  0.00    -0.369 OA
ATOM      3  O   UNL     1      22.842   9.141  21.228  0.00  0.00    -0.273 OA
ATOM      5  N   UNL     1      20.708   8.404  21.794  0.00  0.00    -0.291 N 
ATOM     15  C   UNL     1      19.887   7.314  22.334  0.00  0.00    +0.135 C 
ATOM     17  C   UNL     1      20.598   6.661  23.512  0.00  0.00    +0.185 C 
ATOM     18  C   UNL     1      22.101   8.350  21.812  0.00  0.00    +0.242 C 
ATOM     19  C   UNL     1      22.701   7.266  22.701  0.00  0.00    +0.255 C 
BRANCH   5  11
ATOM     11  C   UNL     1      20.024   9.466  21.068  0.00  0.00    +0.112 C 
BRANCH  11   8
ATOM      8  C   UNL     1      18.870  10.036  21.891  0.00  0.00    +0.006 C 
ATOM      9  C   UNL     1      19.308  11.309  22.628  0.00  0.00    +0.005 C 
ATOM     10  C   UNL     1      17.652  10.311  21.001  0.00  0.00    +0.005 C 
ATOM     12  C   UNL     1      18.157  11.928  23.417  0.00  0.00    +0.000 C 
ATOM     13  C   UNL     1      16.503  10.932  21.794  0.00  0.00    +0.000 C 
ATOM     14  C   UNL     1      16.944  12.192  22.531  0.00  0.00    +0.000 C 
ENDBRANCH  11   8
ENDBRANCH   5  11
ENDBRANCH  16  15
BRANCH  16  20
ATOM     20  C   UNL     1      18.137   6.385  20.781  0.00  0.00    -0.017 A 
ATOM     21  C   UNL     1      17.803   6.045  19.470  0.00  0.00    +0.008 A 
ATOM     22  C   UNL     1      17.148   6.815  21.665  0.00  0.00    +0.008 A 
ATOM     23  C   UNL     1      16.478   6.135  19.043  0.00  0.00    +0.024 A 
ATOM     24  C   UNL     1      15.824   6.905  21.238  0.00  0.00    +0.024 A 
ATOM     25  C   UNL     1      15.488   6.565  19.927  0.00  0.00    +0.035 A 
BRANCH  25   6
ATOM      4  O   UNL     1      13.843   8.965  19.192  0.00  0.00    -0.253 OA
ATOM      6  N   UNL     1      14.163   6.655  19.499  0.00  0.00    -0.269 N 
ATOM      7  N   UNL     1      12.124   7.475  18.779  0.00  0.00    -0.299 N 
ATOM     26  C   UNL     1      13.427   7.809  19.163  0.00  0.00    +0.304 C 
ATOM     30  H   UNL     1      13.666   5.771  19.420  0.00  0.00    +0.156 HD
ATOM     31  H   UNL     1      11.855   6.496  18.770  0.00  0.00    +0.150 HD
BRANCH   7  27
ATOM     27  C   UNL     1      11.143   8.458  18.381  0.00  0.00    +0.102 C 
ATOM     28  C   UNL     1      11.078   8.597  16.874  0.00  0.00    +0.024 C 
ENDBRANCH   7  27
ENDBRANCH  25   6
ENDBRANCH  16  20
BRANCH  16   2
ATOM      2  O   UNL     1      20.442   6.489  20.137  0.00  0.00    -0.385 OA
ATOM     29  H   UNL     1      19.899   6.622  19.341  0.00  0.00    +0.210 HD
ENDBRANCH  16   2
TORSDOF 7
ENDMDL
