MODEL 1
REMARK VINA RESULT:      -7.4      0.000      0.000
REMARK  Name = 45783463
REMARK  11 active torsions:
REMARK  status: ('A' for Active; 'I' for Inactive)
REMARK    1  A    between atoms: O_5  and  C_22
REMARK    2  A    between atoms: O_5  and  C_29
REMARK    3  A    between atoms: O_6  and  C_27
REMARK    4  A    between atoms: O_6  and  C_31
REMARK    5  A    between atoms: O_7  and  C_32
REMARK    6  A    between atoms: O_7  and  C_33
REMARK    7  A    between atoms: N_8  and  C_16
REMARK    8  A    between atoms: C_12  and  C_17
REMARK    9  A    between atoms: C_16  and  C_18
REMARK   10  A    between atoms: C_21  and  C_25
REMARK   11  A    between atoms: C_31  and  C_32
REMARK                            x       y       z     vdW  Elec       q    Type
REMARK                         _______ _______ _______ _____ _____    ______ ____
ROOT
ATOM      8  N   UNL     1     -17.441   3.123  27.390  0.00  0.00    -0.287 NA
ATOM     12  C   UNL     1     -16.529   2.291  26.580  0.00  0.00    +0.146 C 
ATOM     13  C   UNL     1     -17.247   0.936  26.449  0.00  0.00    +0.030 C 
ATOM     14  C   UNL     1     -18.523   1.081  27.266  0.00  0.00    +0.017 C 
ATOM     15  C   UNL     1     -18.200   2.201  28.234  0.00  0.00    +0.085 C 
ENDROOT
BRANCH  12  17
ATOM      4  O   UNL     1     -16.536   2.188  24.138  0.00  0.00    -0.336 OA
ATOM      9  N   UNL     1     -15.653   4.071  24.971  0.00  0.00    -0.189 NA
ATOM     10  N   UNL     1     -16.150   2.959  23.034  0.00  0.00    -0.054 NA
ATOM     17  C   UNL     1     -16.208   2.916  25.238  0.00  0.00    +0.245 A 
ATOM     21  C   UNL     1     -15.638   4.053  23.607  0.00  0.00    +0.221 A 
BRANCH  21  25
ATOM     11  N   UNL     1     -15.932   6.204  22.684  0.00  0.00    -0.252 NA
ATOM     25  C   UNL     1     -15.106   5.146  22.845  0.00  0.00    +0.115 A 
ATOM     26  C   UNL     1     -13.823   5.077  22.326  0.00  0.00    +0.077 A 
ATOM     27  C   UNL     1     -13.358   6.165  21.595  0.00  0.00    +0.124 A 
ATOM     28  C   UNL     1     -15.446   7.242  21.968  0.00  0.00    +0.115 A 
ATOM     30  C   UNL     1     -14.179   7.272  21.408  0.00  0.00    +0.065 A 
BRANCH  27   6
ATOM      6  O   UNL     1     -12.105   6.147  21.065  0.00  0.00    -0.490 OA
BRANCH   6  31
ATOM     31  C   UNL     1     -11.613   7.370  20.518  0.00  0.00    +0.257 C 
BRANCH  31  32
ATOM     32  C   UNL     1     -11.536   7.241  19.010  0.00  0.00    +0.200 C 
BRANCH  32   7
ATOM      7  O   UNL     1     -10.856   8.373  18.480  0.00  0.00    -0.380 OA
ATOM     33  C   UNL     1     -10.500   8.177  17.119  0.00  0.00    +0.194 C 
ENDBRANCH  32   7
ENDBRANCH  31  32
ENDBRANCH   6  31
ENDBRANCH  27   6
ENDBRANCH  21  25
ENDBRANCH  12  17
BRANCH   8  16
ATOM     16  C   UNL     1     -16.751   4.141  28.171  0.00  0.00    +0.120 C 
BRANCH  16  18
ATOM     18  C   UNL     1     -16.089   3.558  29.391  0.00  0.00    -0.030 A 
ATOM     19  C   UNL     1     -15.055   2.633  29.249  0.00  0.00    +0.051 A 
ATOM     20  C   UNL     1     -16.510   3.942  30.664  0.00  0.00    +0.005 A 
ATOM     22  C   UNL     1     -14.442   2.092  30.378  0.00  0.00    +0.130 A 
ATOM     23  C   UNL     1     -15.898   3.401  31.795  0.00  0.00    +0.004 A 
ATOM     24  C   UNL     1     -14.863   2.476  31.652  0.00  0.00    +0.046 A 
BRANCH  22   5
ATOM      5  O   UNL     1     -13.434   1.188  30.239  0.00  0.00    -0.406 OA
BRANCH   5  29
ATOM      1  F   UNL     1     -14.408  -0.362  28.869  0.00  0.00    -0.133 F 
ATOM      2  F   UNL     1     -14.620  -0.559  31.036  0.00  0.00    -0.133 F 
ATOM      3  F   UNL     1     -12.682  -0.968  30.111  0.00  0.00    -0.133 F 
ATOM     29  C   UNL     1     -13.776  -0.180  30.049  0.00  0.00    +0.575 C 
ENDBRANCH   5  29
ENDBRANCH  22   5
ENDBRANCH  16  18
ENDBRANCH   8  16
TORSDOF 10
ENDMDL
MODEL 2
REMARK VINA RESULT:      -7.2     28.932     32.745
REMARK  Name = 45783463
REMARK  11 active torsions:
REMARK  status: ('A' for Active; 'I' for Inactive)
REMARK    1  A    between atoms: O_5  and  C_22
REMARK    2  A    between atoms: O_5  and  C_29
REMARK    3  A    between atoms: O_6  and  C_27
REMARK    4  A    between atoms: O_6  and  C_31
REMARK    5  A    between atoms: O_7  and  C_32
REMARK    6  A    between atoms: O_7  and  C_33
REMARK    7  A    between atoms: N_8  and  C_16
REMARK    8  A    between atoms: C_12  and  C_17
REMARK    9  A    between atoms: C_16  and  C_18
REMARK   10  A    between atoms: C_21  and  C_25
REMARK   11  A    between atoms: C_31  and  C_32
REMARK                            x       y       z     vdW  Elec       q    Type
REMARK                         _______ _______ _______ _____ _____    ______ ____
ROOT
ATOM      8  N   UNL     1      14.920   8.754  20.077  0.00  0.00    -0.287 NA
ATOM     12  C   UNL     1      14.923   7.393  19.502  0.00  0.00    +0.146 C 
ATOM     13  C   UNL     1      14.451   7.581  18.050  0.00  0.00    +0.030 C 
ATOM     14  C   UNL     1      14.149   9.067  17.918  0.00  0.00    +0.017 C 
ATOM     15  C   UNL     1      13.902   9.508  19.347  0.00  0.00    +0.085 C 
ENDROOT
BRANCH  12  17
ATOM      4  O   UNL     1      16.587   5.841  18.610  0.00  0.00    -0.336 OA
ATOM      9  N   UNL     1      17.217   6.872  20.497  0.00  0.00    -0.189 NA
ATOM     10  N   UNL     1      17.869   5.362  18.907  0.00  0.00    -0.054 NA
ATOM     17  C   UNL     1      16.279   6.725  19.595  0.00  0.00    +0.245 A 
ATOM     21  C   UNL     1      18.172   6.015  20.033  0.00  0.00    +0.221 A 
BRANCH  21  25
ATOM     11  N   UNL     1      19.707   6.761  21.662  0.00  0.00    -0.252 NA
ATOM     25  C   UNL     1      19.421   5.838  20.716  0.00  0.00    +0.115 A 
ATOM     26  C   UNL     1      20.249   4.775  20.393  0.00  0.00    +0.077 A 
ATOM     27  C   UNL     1      21.449   4.652  21.087  0.00  0.00    +0.124 A 
ATOM     28  C   UNL     1      20.880   6.609  22.314  0.00  0.00    +0.115 A 
ATOM     30  C   UNL     1      21.778   5.582  22.067  0.00  0.00    +0.065 A 
BRANCH  27   6
ATOM      6  O   UNL     1      22.296   3.625  20.808  0.00  0.00    -0.490 OA
BRANCH   6  31
ATOM     31  C   UNL     1      23.689   3.931  20.742  0.00  0.00    +0.257 C 
BRANCH  31  32
ATOM     32  C   UNL     1      24.442   2.708  20.257  0.00  0.00    +0.200 C 
BRANCH  32   7
ATOM      7  O   UNL     1      23.805   1.540  20.760  0.00  0.00    -0.380 OA
ATOM     33  C   UNL     1      24.614   0.880  21.723  0.00  0.00    +0.194 C 
ENDBRANCH  32   7
ENDBRANCH  31  32
ENDBRANCH   6  31
ENDBRANCH  27   6
ENDBRANCH  21  25
ENDBRANCH  12  17
BRANCH   8  16
ATOM     16  C   UNL     1      14.689   8.770  21.516  0.00  0.00    +0.120 C 
BRANCH  16  18
ATOM     18  C   UNL     1      13.227   8.904  21.847  0.00  0.00    -0.030 A 
ATOM     19  C   UNL     1      12.715  10.133  22.263  0.00  0.00    +0.051 A 
ATOM     20  C   UNL     1      12.382   7.799  21.738  0.00  0.00    +0.005 A 
ATOM     22  C   UNL     1      11.361  10.259  22.570  0.00  0.00    +0.130 A 
ATOM     23  C   UNL     1      11.027   7.923  22.046  0.00  0.00    +0.004 A 
ATOM     24  C   UNL     1      10.516   9.153  22.461  0.00  0.00    +0.046 A 
BRANCH  22   5
ATOM      5  O   UNL     1      10.863  11.458  22.977  0.00  0.00    -0.406 OA
BRANCH   5  29
ATOM      1  F   UNL     1      10.096  12.702  24.735  0.00  0.00    -0.133 F 
ATOM      2  F   UNL     1      12.250  12.474  24.439  0.00  0.00    -0.133 F 
ATOM      3  F   UNL     1      11.083  10.767  25.146  0.00  0.00    -0.133 F 
ATOM     29  C   UNL     1      11.058  11.844  24.332  0.00  0.00    +0.575 C 
ENDBRANCH   5  29
ENDBRANCH  22   5
ENDBRANCH  16  18
ENDBRANCH   8  16
TORSDOF 10
ENDMDL
MODEL 3
REMARK VINA RESULT:      -7.1     19.032     21.572
REMARK  Name = 45783463
REMARK  11 active torsions:
REMARK  status: ('A' for Active; 'I' for Inactive)
REMARK    1  A    between atoms: O_5  and  C_22
REMARK    2  A    between atoms: O_5  and  C_29
REMARK    3  A    between atoms: O_6  and  C_27
REMARK    4  A    between atoms: O_6  and  C_31
REMARK    5  A    between atoms: O_7  and  C_32
REMARK    6  A    between atoms: O_7  and  C_33
REMARK    7  A    between atoms: N_8  and  C_16
REMARK    8  A    between atoms: C_12  and  C_17
REMARK    9  A    between atoms: C_16  and  C_18
REMARK   10  A    between atoms: C_21  and  C_25
REMARK   11  A    between atoms: C_31  and  C_32
REMARK                            x       y       z     vdW  Elec       q    Type
REMARK                         _______ _______ _______ _____ _____    ______ ____
ROOT
ATOM      8  N   UNL     1      -3.114 -10.597  14.339  0.00  0.00    -0.287 NA
ATOM     12  C   UNL     1      -3.003 -11.289  15.638  0.00  0.00    +0.146 C 
ATOM     13  C   UNL     1      -1.693 -10.763  16.251  0.00  0.00    +0.030 C 
ATOM     14  C   UNL     1      -1.108  -9.830  15.200  0.00  0.00    +0.017 C 
ATOM     15  C   UNL     1      -1.748 -10.302  13.909  0.00  0.00    +0.085 C 
ENDROOT
BRANCH  12  17
ATOM      4  O   UNL     1      -4.061 -11.382  17.840  0.00  0.00    -0.336 OA
ATOM      9  N   UNL     1      -5.380 -10.563  16.226  0.00  0.00    -0.189 NA
ATOM     10  N   UNL     1      -5.282 -11.075  18.453  0.00  0.00    -0.054 NA
ATOM     17  C   UNL     1      -4.204 -11.049  16.530  0.00  0.00    +0.245 A 
ATOM     21  C   UNL     1      -6.007 -10.598  17.437  0.00  0.00    +0.221 A 
BRANCH  21  25
ATOM     11  N   UNL     1      -8.089 -10.803  18.528  0.00  0.00    -0.252 NA
ATOM     25  C   UNL     1      -7.359 -10.145  17.598  0.00  0.00    +0.115 A 
ATOM     26  C   UNL     1      -7.842  -9.100  16.829  0.00  0.00    +0.077 A 
ATOM     27  C   UNL     1      -9.160  -8.702  17.026  0.00  0.00    +0.124 A 
ATOM     28  C   UNL     1      -9.365 -10.389  18.691  0.00  0.00    +0.115 A 
ATOM     30  C   UNL     1      -9.943  -9.354  17.973  0.00  0.00    +0.065 A 
BRANCH  27   6
ATOM      6  O   UNL     1      -9.682  -7.680  16.296  0.00  0.00    -0.490 OA
BRANCH   6  31
ATOM     31  C   UNL     1     -11.099  -7.512  16.332  0.00  0.00    +0.257 C 
BRANCH  31  32
ATOM     32  C   UNL     1     -11.422  -6.031  16.303  0.00  0.00    +0.200 C 
BRANCH  32   7
ATOM      7  O   UNL     1     -11.648  -5.631  14.956  0.00  0.00    -0.380 OA
ATOM     33  C   UNL     1     -12.560  -6.500  14.301  0.00  0.00    +0.194 C 
ENDBRANCH  32   7
ENDBRANCH  31  32
ENDBRANCH   6  31
ENDBRANCH  27   6
ENDBRANCH  21  25
ENDBRANCH  12  17
BRANCH   8  16
ATOM     16  C   UNL     1      -3.850 -11.363  13.340  0.00  0.00    +0.120 C 
BRANCH  16  18
ATOM     18  C   UNL     1      -4.535 -10.469  12.341  0.00  0.00    -0.030 A 
ATOM     19  C   UNL     1      -4.121 -10.465  11.009  0.00  0.00    +0.051 A 
ATOM     20  C   UNL     1      -5.583  -9.644  12.747  0.00  0.00    +0.005 A 
ATOM     22  C   UNL     1      -4.755  -9.638  10.083  0.00  0.00    +0.130 A 
ATOM     23  C   UNL     1      -6.218  -8.815  11.821  0.00  0.00    +0.004 A 
ATOM     24  C   UNL     1      -5.804  -8.812  10.489  0.00  0.00    +0.046 A 
BRANCH  22   5
ATOM      5  O   UNL     1      -4.349  -9.634   8.784  0.00  0.00    -0.406 OA
BRANCH   5  29
ATOM      1  F   UNL     1      -6.029  -9.314   7.266  0.00  0.00    -0.133 F 
ATOM      2  F   UNL     1      -5.958 -11.173   8.413  0.00  0.00    -0.133 F 
ATOM      3  F   UNL     1      -4.480 -10.833   6.840  0.00  0.00    -0.133 F 
ATOM     29  C   UNL     1      -5.199 -10.230   7.810  0.00  0.00    +0.575 C 
ENDBRANCH   5  29
ENDBRANCH  22   5
ENDBRANCH  16  18
ENDBRANCH   8  16
TORSDOF 10
ENDMDL
MODEL 4
REMARK VINA RESULT:      -7.0     28.372     32.581
REMARK  Name = 45783463
REMARK  11 active torsions:
REMARK  status: ('A' for Active; 'I' for Inactive)
REMARK    1  A    between atoms: O_5  and  C_22
REMARK    2  A    between atoms: O_5  and  C_29
REMARK    3  A    between atoms: O_6  and  C_27
REMARK    4  A    between atoms: O_6  and  C_31
REMARK    5  A    between atoms: O_7  and  C_32
REMARK    6  A    between atoms: O_7  and  C_33
REMARK    7  A    between atoms: N_8  and  C_16
REMARK    8  A    between atoms: C_12  and  C_17
REMARK    9  A    between atoms: C_16  and  C_18
REMARK   10  A    between atoms: C_21  and  C_25
REMARK   11  A    between atoms: C_31  and  C_32
REMARK                            x       y       z     vdW  Elec       q    Type
REMARK                         _______ _______ _______ _____ _____    ______ ____
ROOT
ATOM      8  N   UNL     1      19.773   8.549  22.085  0.00  0.00    -0.287 NA
ATOM     12  C   UNL     1      19.844   7.226  21.434  0.00  0.00    +0.146 C 
ATOM     13  C   UNL     1      20.116   6.239  22.584  0.00  0.00    +0.030 C 
ATOM     14  C   UNL     1      20.243   7.103  23.829  0.00  0.00    +0.017 C 
ATOM     15  C   UNL     1      20.612   8.467  23.281  0.00  0.00    +0.085 C 
ENDROOT
BRANCH  12  17
ATOM      4  O   UNL     1      18.701   5.929  19.706  0.00  0.00    -0.336 OA
ATOM      9  N   UNL     1      17.384   7.395  20.770  0.00  0.00    -0.189 NA
ATOM     10  N   UNL     1      17.430   5.795  19.136  0.00  0.00    -0.054 NA
ATOM     17  C   UNL     1      18.587   6.890  20.660  0.00  0.00    +0.245 A 
ATOM     21  C   UNL     1      16.709   6.692  19.815  0.00  0.00    +0.221 A 
BRANCH  21  25
ATOM     11  N   UNL     1      15.005   7.400  18.344  0.00  0.00    -0.252 NA
ATOM     25  C   UNL     1      15.313   6.909  19.566  0.00  0.00    +0.115 A 
ATOM     26  C   UNL     1      14.376   6.623  20.545  0.00  0.00    +0.077 A 
ATOM     27  C   UNL     1      13.036   6.853  20.251  0.00  0.00    +0.124 A 
ATOM     28  C   UNL     1      13.694   7.611  18.095  0.00  0.00    +0.115 A 
ATOM     30  C   UNL     1      12.680   7.357  19.004  0.00  0.00    +0.065 A 
BRANCH  27   6
ATOM      6  O   UNL     1      12.078   6.586  21.179  0.00  0.00    -0.490 OA
BRANCH   6  31
ATOM     31  C   UNL     1      11.018   7.534  21.309  0.00  0.00    +0.257 C 
BRANCH  31  32
ATOM     32  C   UNL     1      11.271   8.393  22.532  0.00  0.00    +0.200 C 
BRANCH  32   7
ATOM      7  O   UNL     1      10.512   9.592  22.423  0.00  0.00    -0.380 OA
ATOM     33  C   UNL     1      10.878  10.532  23.424  0.00  0.00    +0.194 C 
ENDBRANCH  32   7
ENDBRANCH  31  32
ENDBRANCH   6  31
ENDBRANCH  27   6
ENDBRANCH  21  25
ENDBRANCH  12  17
BRANCH   8  16
ATOM     16  C   UNL     1      20.173   9.644  21.209  0.00  0.00    +0.120 C 
BRANCH  16  18
ATOM     18  C   UNL     1      19.056  10.629  20.998  0.00  0.00    -0.030 A 
ATOM     19  C   UNL     1      17.855  10.482  21.692  0.00  0.00    +0.051 A 
ATOM     20  C   UNL     1      19.220  11.690  20.107  0.00  0.00    +0.005 A 
ATOM     22  C   UNL     1      16.819  11.395  21.497  0.00  0.00    +0.130 A 
ATOM     23  C   UNL     1      18.184  12.604  19.911  0.00  0.00    +0.004 A 
ATOM     24  C   UNL     1      16.984  12.457  20.606  0.00  0.00    +0.046 A 
BRANCH  22   5
ATOM      5  O   UNL     1      15.647  11.250  22.174  0.00  0.00    -0.406 OA
BRANCH   5  29
ATOM      1  F   UNL     1      13.454  10.988  21.583  0.00  0.00    -0.133 F 
ATOM      2  F   UNL     1      14.547   9.296  22.434  0.00  0.00    -0.133 F 
ATOM      3  F   UNL     1      15.010   9.952  20.401  0.00  0.00    -0.133 F 
ATOM     29  C   UNL     1      14.659  10.380  21.633  0.00  0.00    +0.575 C 
ENDBRANCH   5  29
ENDBRANCH  22   5
ENDBRANCH  16  18
ENDBRANCH   8  16
TORSDOF 10
ENDMDL
MODEL 5
REMARK VINA RESULT:      -7.0     32.586     36.825
REMARK  Name = 45783463
REMARK  11 active torsions:
REMARK  status: ('A' for Active; 'I' for Inactive)
REMARK    1  A    between atoms: O_5  and  C_22
REMARK    2  A    between atoms: O_5  and  C_29
REMARK    3  A    between atoms: O_6  and  C_27
REMARK    4  A    between atoms: O_6  and  C_31
REMARK    5  A    between atoms: O_7  and  C_32
REMARK    6  A    between atoms: O_7  and  C_33
REMARK    7  A    between atoms: N_8  and  C_16
REMARK    8  A    between atoms: C_12  and  C_17
REMARK    9  A    between atoms: C_16  and  C_18
REMARK   10  A    between atoms: C_21  and  C_25
REMARK   11  A    between atoms: C_31  and  C_32
REMARK                            x       y       z     vdW  Elec       q    Type
REMARK                         _______ _______ _______ _____ _____    ______ ____
ROOT
ATOM      8  N   UNL     1      10.495   5.942   5.231  0.00  0.00    -0.287 NA
ATOM     12  C   UNL     1      11.024   6.831   6.285  0.00  0.00    +0.146 C 
ATOM     13  C   UNL     1      10.588   6.173   7.606  0.00  0.00    +0.030 C 
ATOM     14  C   UNL     1       9.770   4.957   7.195  0.00  0.00    +0.017 C 
ATOM     15  C   UNL     1       9.309   5.296   5.791  0.00  0.00    +0.085 C 
ENDROOT
BRANCH  12  17
ATOM      4  O   UNL     1      13.254   6.597   7.257  0.00  0.00    -0.336 OA
ATOM      9  N   UNL     1      13.238   7.532   5.222  0.00  0.00    -0.189 NA
ATOM     10  N   UNL     1      14.591   6.869   6.943  0.00  0.00    -0.054 NA
ATOM     17  C   UNL     1      12.524   7.017   6.191  0.00  0.00    +0.245 A 
ATOM     21  C   UNL     1      14.500   7.420   5.729  0.00  0.00    +0.221 A 
BRANCH  21  25
ATOM     11  N   UNL     1      15.561   7.756   3.649  0.00  0.00    -0.252 NA
ATOM     25  C   UNL     1      15.648   7.865   4.994  0.00  0.00    +0.115 A 
ATOM     26  C   UNL     1      16.754   8.366   5.662  0.00  0.00    +0.077 A 
ATOM     27  C   UNL     1      17.840   8.783   4.900  0.00  0.00    +0.124 A 
ATOM     28  C   UNL     1      16.636   8.170   2.942  0.00  0.00    +0.115 A 
ATOM     30  C   UNL     1      17.789   8.686   3.514  0.00  0.00    +0.065 A 
BRANCH  27   6
ATOM      6  O   UNL     1      18.949   9.283   5.509  0.00  0.00    -0.490 OA
BRANCH   6  31
ATOM     31  C   UNL     1      19.645   8.417   6.406  0.00  0.00    +0.257 C 
BRANCH  31  32
ATOM     32  C   UNL     1      20.982   8.046   5.796  0.00  0.00    +0.200 C 
BRANCH  32   7
ATOM      7  O   UNL     1      20.843   6.826   5.078  0.00  0.00    -0.380 OA
ATOM     33  C   UNL     1      21.156   6.994   3.702  0.00  0.00    +0.194 C 
ENDBRANCH  32   7
ENDBRANCH  31  32
ENDBRANCH   6  31
ENDBRANCH  27   6
ENDBRANCH  21  25
ENDBRANCH  12  17
BRANCH   8  16
ATOM     16  C   UNL     1      10.203   6.639   3.984  0.00  0.00    +0.120 C 
BRANCH  16  18
ATOM     18  C   UNL     1      10.609   5.830   2.781  0.00  0.00    -0.030 A 
ATOM     19  C   UNL     1      11.660   4.917   2.877  0.00  0.00    +0.051 A 
ATOM     20  C   UNL     1       9.936   5.992   1.571  0.00  0.00    +0.005 A 
ATOM     22  C   UNL     1      12.036   4.167   1.763  0.00  0.00    +0.130 A 
ATOM     23  C   UNL     1      10.313   5.243   0.456  0.00  0.00    +0.004 A 
ATOM     24  C   UNL     1      11.362   4.330   0.552  0.00  0.00    +0.046 A 
BRANCH  22   5
ATOM      5  O   UNL     1      13.062   3.278   1.857  0.00  0.00    -0.406 OA
BRANCH   5  29
ATOM      1  F   UNL     1      14.474   5.058   1.603  0.00  0.00    -0.133 F 
ATOM      2  F   UNL     1      14.609   3.373   0.217  0.00  0.00    -0.133 F 
ATOM      3  F   UNL     1      15.306   3.123   2.273  0.00  0.00    -0.133 F 
ATOM     29  C   UNL     1      14.369   3.716   1.503  0.00  0.00    +0.575 C 
ENDBRANCH   5  29
ENDBRANCH  22   5
ENDBRANCH  16  18
ENDBRANCH   8  16
TORSDOF 10
ENDMDL
MODEL 6
REMARK VINA RESULT:      -6.9      4.784     10.040
REMARK  Name = 45783463
REMARK  11 active torsions:
REMARK  status: ('A' for Active; 'I' for Inactive)
REMARK    1  A    between atoms: O_5  and  C_22
REMARK    2  A    between atoms: O_5  and  C_29
REMARK    3  A    between atoms: O_6  and  C_27
REMARK    4  A    between atoms: O_6  and  C_31
REMARK    5  A    between atoms: O_7  and  C_32
REMARK    6  A    between atoms: O_7  and  C_33
REMARK    7  A    between atoms: N_8  and  C_16
REMARK    8  A    between atoms: C_12  and  C_17
REMARK    9  A    between atoms: C_16  and  C_18
REMARK   10  A    between atoms: C_21  and  C_25
REMARK   11  A    between atoms: C_31  and  C_32
REMARK                            x       y       z     vdW  Elec       q    Type
REMARK                         _______ _______ _______ _____ _____    ______ ____
ROOT
ATOM      8  N   UNL     1     -16.555   5.310  20.830  0.00  0.00    -0.287 NA
ATOM     12  C   UNL     1     -17.796   4.809  21.454  0.00  0.00    +0.146 C 
ATOM     13  C   UNL     1     -18.542   4.089  20.316  0.00  0.00    +0.030 C 
ATOM     14  C   UNL     1     -17.675   4.291  19.081  0.00  0.00    +0.017 C 
ATOM     15  C   UNL     1     -16.860   5.523  19.416  0.00  0.00    +0.085 C 
ENDROOT
BRANCH  12  17
ATOM      4  O   UNL     1     -17.054   2.664  22.362  0.00  0.00    -0.336 OA
ATOM      9  N   UNL     1     -17.687   4.146  23.918  0.00  0.00    -0.189 NA
ATOM     10  N   UNL     1     -16.886   2.027  23.597  0.00  0.00    -0.054 NA
ATOM     17  C   UNL     1     -17.528   3.907  22.640  0.00  0.00    +0.245 A 
ATOM     21  C   UNL     1     -17.281   2.964  24.465  0.00  0.00    +0.221 A 
BRANCH  21  25
ATOM     11  N   UNL     1     -18.030   3.615  26.605  0.00  0.00    -0.252 NA
ATOM     25  C   UNL     1     -17.279   2.753  25.884  0.00  0.00    +0.115 A 
ATOM     26  C   UNL     1     -16.538   1.720  26.435  0.00  0.00    +0.077 A 
ATOM     27  C   UNL     1     -16.572   1.561  27.817  0.00  0.00    +0.124 A 
ATOM     28  C   UNL     1     -18.037   3.430  27.944  0.00  0.00    +0.115 A 
ATOM     30  C   UNL     1     -17.333   2.428  28.593  0.00  0.00    +0.065 A 
BRANCH  27   6
ATOM      6  O   UNL     1     -15.862   0.561  28.406  0.00  0.00    -0.490 OA
BRANCH   6  31
ATOM     31  C   UNL     1     -15.943   0.458  29.828  0.00  0.00    +0.257 C 
BRANCH  31  32
ATOM     32  C   UNL     1     -14.548   0.261  30.388  0.00  0.00    +0.200 C 
BRANCH  32   7
ATOM      7  O   UNL     1     -13.682   1.246  29.837  0.00  0.00    -0.380 OA
ATOM     33  C   UNL     1     -13.638   2.412  30.647  0.00  0.00    +0.194 C 
ENDBRANCH  32   7
ENDBRANCH  31  32
ENDBRANCH   6  31
ENDBRANCH  27   6
ENDBRANCH  21  25
ENDBRANCH  12  17
BRANCH   8  16
ATOM     16  C   UNL     1     -16.037   6.515  21.467  0.00  0.00    +0.120 C 
BRANCH  16  18
ATOM     18  C   UNL     1     -14.554   6.667  21.256  0.00  0.00    -0.030 A 
ATOM     19  C   UNL     1     -14.059   7.767  20.555  0.00  0.00    +0.051 A 
ATOM     20  C   UNL     1     -13.675   5.709  21.760  0.00  0.00    +0.005 A 
ATOM     22  C   UNL     1     -12.686   7.909  20.358  0.00  0.00    +0.130 A 
ATOM     23  C   UNL     1     -12.301   5.850  21.564  0.00  0.00    +0.004 A 
ATOM     24  C   UNL     1     -11.806   6.950  20.864  0.00  0.00    +0.046 A 
BRANCH  22   5
ATOM      5  O   UNL     1     -12.203   8.981  19.673  0.00  0.00    -0.406 OA
BRANCH   5  29
ATOM      1  F   UNL     1     -12.312   7.679  17.796  0.00  0.00    -0.133 F 
ATOM      2  F   UNL     1     -10.410   8.599  18.358  0.00  0.00    -0.133 F 
ATOM      3  F   UNL     1     -12.013   9.858  17.569  0.00  0.00    -0.133 F 
ATOM     29  C   UNL     1     -11.750   8.780  18.340  0.00  0.00    +0.575 C 
ENDBRANCH   5  29
ENDBRANCH  22   5
ENDBRANCH  16  18
ENDBRANCH   8  16
TORSDOF 10
ENDMDL
MODEL 7
REMARK VINA RESULT:      -6.9      4.667      9.401
REMARK  Name = 45783463
REMARK  11 active torsions:
REMARK  status: ('A' for Active; 'I' for Inactive)
REMARK    1  A    between atoms: O_5  and  C_22
REMARK    2  A    between atoms: O_5  and  C_29
REMARK    3  A    between atoms: O_6  and  C_27
REMARK    4  A    between atoms: O_6  and  C_31
REMARK    5  A    between atoms: O_7  and  C_32
REMARK    6  A    between atoms: O_7  and  C_33
REMARK    7  A    between atoms: N_8  and  C_16
REMARK    8  A    between atoms: C_12  and  C_17
REMARK    9  A    between atoms: C_16  and  C_18
REMARK   10  A    between atoms: C_21  and  C_25
REMARK   11  A    between atoms: C_31  and  C_32
REMARK                            x       y       z     vdW  Elec       q    Type
REMARK                         _______ _______ _______ _____ _____    ______ ____
ROOT
ATOM      8  N   UNL     1     -12.152   9.592  20.896  0.00  0.00    -0.287 NA
ATOM     12  C   UNL     1     -12.640   8.481  20.054  0.00  0.00    +0.146 C 
ATOM     13  C   UNL     1     -11.479   8.182  19.088  0.00  0.00    +0.030 C 
ATOM     14  C   UNL     1     -10.410   9.213  19.421  0.00  0.00    +0.017 C 
ATOM     15  C   UNL     1     -11.187  10.332  20.083  0.00  0.00    +0.085 C 
ENDROOT
BRANCH  12  17
ATOM      4  O   UNL     1     -12.062   6.399  21.197  0.00  0.00    -0.336 OA
ATOM      9  N   UNL     1     -14.234   6.930  21.310  0.00  0.00    -0.189 NA
ATOM     10  N   UNL     1     -12.674   5.380  21.936  0.00  0.00    -0.054 NA
ATOM     17  C   UNL     1     -13.050   7.271  20.868  0.00  0.00    +0.245 A 
ATOM     21  C   UNL     1     -13.954   5.763  21.959  0.00  0.00    +0.221 A 
BRANCH  21  25
ATOM     11  N   UNL     1     -16.096   4.776  21.901  0.00  0.00    -0.252 NA
ATOM     25  C   UNL     1     -14.975   5.006  22.623  0.00  0.00    +0.115 A 
ATOM     26  C   UNL     1     -14.783   4.561  23.921  0.00  0.00    +0.077 A 
ATOM     27  C   UNL     1     -15.807   3.833  24.517  0.00  0.00    +0.124 A 
ATOM     28  C   UNL     1     -17.069   4.066  22.514  0.00  0.00    +0.115 A 
ATOM     30  C   UNL     1     -16.975   3.576  23.806  0.00  0.00    +0.065 A 
BRANCH  27   6
ATOM      6  O   UNL     1     -15.667   3.373  25.789  0.00  0.00    -0.490 OA
BRANCH   6  31
ATOM     31  C   UNL     1     -16.823   3.411  26.626  0.00  0.00    +0.257 C 
BRANCH  31  32
ATOM     32  C   UNL     1     -16.413   3.859  28.015  0.00  0.00    +0.200 C 
BRANCH  32   7
ATOM      7  O   UNL     1     -15.304   3.079  28.446  0.00  0.00    -0.380 OA
ATOM     33  C   UNL     1     -15.724   1.859  29.039  0.00  0.00    +0.194 C 
ENDBRANCH  32   7
ENDBRANCH  31  32
ENDBRANCH   6  31
ENDBRANCH  27   6
ENDBRANCH  21  25
ENDBRANCH  12  17
BRANCH   8  16
ATOM     16  C   UNL     1     -13.221  10.448  21.395  0.00  0.00    +0.120 C 
BRANCH  16  18
ATOM     18  C   UNL     1     -13.293  10.436  22.898  0.00  0.00    -0.030 A 
ATOM     19  C   UNL     1     -12.211  10.892  23.652  0.00  0.00    +0.051 A 
ATOM     20  C   UNL     1     -14.440   9.968  23.539  0.00  0.00    +0.005 A 
ATOM     22  C   UNL     1     -12.277  10.881  25.045  0.00  0.00    +0.130 A 
ATOM     23  C   UNL     1     -14.507   9.956  24.932  0.00  0.00    +0.004 A 
ATOM     24  C   UNL     1     -13.426  10.413  25.686  0.00  0.00    +0.046 A 
BRANCH  22   5
ATOM      5  O   UNL     1     -11.221  11.325  25.780  0.00  0.00    -0.406 OA
BRANCH   5  29
ATOM      1  F   UNL     1     -10.741  10.935  27.982  0.00  0.00    -0.133 F 
ATOM      2  F   UNL     1      -9.326  10.293  26.444  0.00  0.00    -0.133 F 
ATOM      3  F   UNL     1     -11.215   9.218  26.671  0.00  0.00    -0.133 F 
ATOM     29  C   UNL     1     -10.640  10.438  26.730  0.00  0.00    +0.575 C 
ENDBRANCH   5  29
ENDBRANCH  22   5
ENDBRANCH  16  18
ENDBRANCH   8  16
TORSDOF 10
ENDMDL
MODEL 8
REMARK VINA RESULT:      -6.9     18.362     20.152
REMARK  Name = 45783463
REMARK  11 active torsions:
REMARK  status: ('A' for Active; 'I' for Inactive)
REMARK    1  A    between atoms: O_5  and  C_22
REMARK    2  A    between atoms: O_5  and  C_29
REMARK    3  A    between atoms: O_6  and  C_27
REMARK    4  A    between atoms: O_6  and  C_31
REMARK    5  A    between atoms: O_7  and  C_32
REMARK    6  A    between atoms: O_7  and  C_33
REMARK    7  A    between atoms: N_8  and  C_16
REMARK    8  A    between atoms: C_12  and  C_17
REMARK    9  A    between atoms: C_16  and  C_18
REMARK   10  A    between atoms: C_21  and  C_25
REMARK   11  A    between atoms: C_31  and  C_32
REMARK                            x       y       z     vdW  Elec       q    Type
REMARK                         _______ _______ _______ _____ _____    ______ ____
ROOT
ATOM      8  N   UNL     1      -6.680 -10.892  17.516  0.00  0.00    -0.287 NA
ATOM     12  C   UNL     1      -5.263 -11.025  17.911  0.00  0.00    +0.146 C 
ATOM     13  C   UNL     1      -5.174 -12.403  18.591  0.00  0.00    +0.030 C 
ATOM     14  C   UNL     1      -6.597 -12.942  18.586  0.00  0.00    +0.017 C 
ATOM     15  C   UNL     1      -7.450 -11.695  18.466  0.00  0.00    +0.085 C 
ENDROOT
BRANCH  12  17
ATOM      4  O   UNL     1      -2.994 -11.049  17.002  0.00  0.00    -0.336 OA
ATOM      9  N   UNL     1      -4.583 -10.636  15.480  0.00  0.00    -0.189 NA
ATOM     10  N   UNL     1      -2.329 -10.882  15.781  0.00  0.00    -0.054 NA
ATOM     17  C   UNL     1      -4.317 -10.889  16.736  0.00  0.00    +0.245 A 
ATOM     21  C   UNL     1      -3.333 -10.640  14.933  0.00  0.00    +0.221 A 
BRANCH  21  25
ATOM     11  N   UNL     1      -1.831 -10.297  13.146  0.00  0.00    -0.252 NA
ATOM     25  C   UNL     1      -3.123 -10.404  13.534  0.00  0.00    +0.115 A 
ATOM     26  C   UNL     1      -4.202 -10.297  12.673  0.00  0.00    +0.077 A 
ATOM     27  C   UNL     1      -3.940 -10.066  11.326  0.00  0.00    +0.124 A 
ATOM     28  C   UNL     1      -1.616 -10.072  11.832  0.00  0.00    +0.115 A 
ATOM     30  C   UNL     1      -2.625  -9.950  10.889  0.00  0.00    +0.065 A 
BRANCH  27   6
ATOM      6  O   UNL     1      -4.967  -9.954  10.440  0.00  0.00    -0.490 OA
BRANCH   6  31
ATOM     31  C   UNL     1      -4.625  -9.692   9.080  0.00  0.00    +0.257 C 
BRANCH  31  32
ATOM     32  C   UNL     1      -5.891  -9.685   8.245  0.00  0.00    +0.200 C 
BRANCH  32   7
ATOM      7  O   UNL     1      -7.000  -9.389   9.085  0.00  0.00    -0.380 OA
ATOM     33  C   UNL     1      -7.434  -8.046   8.920  0.00  0.00    +0.194 C 
ENDBRANCH  32   7
ENDBRANCH  31  32
ENDBRANCH   6  31
ENDBRANCH  27   6
ENDBRANCH  21  25
ENDBRANCH  12  17
BRANCH   8  16
ATOM     16  C   UNL     1      -7.137  -9.509  17.470  0.00  0.00    +0.120 C 
BRANCH  16  18
ATOM     18  C   UNL     1      -8.206  -9.306  16.431  0.00  0.00    -0.030 A 
ATOM     19  C   UNL     1      -9.304  -8.492  16.708  0.00  0.00    +0.051 A 
ATOM     20  C   UNL     1      -8.101  -9.933  15.189  0.00  0.00    +0.005 A 
ATOM     22  C   UNL     1     -10.295  -8.303  15.746  0.00  0.00    +0.130 A 
ATOM     23  C   UNL     1      -9.092  -9.746  14.226  0.00  0.00    +0.004 A 
ATOM     24  C   UNL     1     -10.189  -8.931  14.503  0.00  0.00    +0.046 A 
BRANCH  22   5
ATOM      5  O   UNL     1     -11.367  -7.509  16.018  0.00  0.00    -0.406 OA
BRANCH   5  29
ATOM      1  F   UNL     1     -11.208  -5.497  17.092  0.00  0.00    -0.133 F 
ATOM      2  F   UNL     1     -12.260  -5.614  15.179  0.00  0.00    -0.133 F 
ATOM      3  F   UNL     1     -10.082  -5.796  15.213  0.00  0.00    -0.133 F 
ATOM     29  C   UNL     1     -11.213  -6.101  15.884  0.00  0.00    +0.575 C 
ENDBRANCH   5  29
ENDBRANCH  22   5
ENDBRANCH  16  18
ENDBRANCH   8  16
TORSDOF 10
ENDMDL
MODEL 9
REMARK VINA RESULT:      -6.9     29.926     34.267
REMARK  Name = 45783463
REMARK  11 active torsions:
REMARK  status: ('A' for Active; 'I' for Inactive)
REMARK    1  A    between atoms: O_5  and  C_22
REMARK    2  A    between atoms: O_5  and  C_29
REMARK    3  A    between atoms: O_6  and  C_27
REMARK    4  A    between atoms: O_6  and  C_31
REMARK    5  A    between atoms: O_7  and  C_32
REMARK    6  A    between atoms: O_7  and  C_33
REMARK    7  A    between atoms: N_8  and  C_16
REMARK    8  A    between atoms: C_12  and  C_17
REMARK    9  A    between atoms: C_16  and  C_18
REMARK   10  A    between atoms: C_21  and  C_25
REMARK   11  A    between atoms: C_31  and  C_32
REMARK                            x       y       z     vdW  Elec       q    Type
REMARK                         _______ _______ _______ _____ _____    ______ ____
ROOT
ATOM      8  N   UNL     1       8.437   8.324   4.053  0.00  0.00    -0.287 NA
ATOM     12  C   UNL     1       8.582   8.031   2.613  0.00  0.00    +0.146 C 
ATOM     13  C   UNL     1       8.141   9.325   1.905  0.00  0.00    +0.030 C 
ATOM     14  C   UNL     1       7.709  10.263   3.022  0.00  0.00    +0.017 C 
ATOM     15  C   UNL     1       7.378   9.326   4.166  0.00  0.00    +0.085 C 
ENDROOT
BRANCH  12  17
ATOM      4  O   UNL     1      10.952   8.566   2.346  0.00  0.00    -0.336 OA
ATOM      9  N   UNL     1      10.429   6.450   1.831  0.00  0.00    -0.189 NA
ATOM     10  N   UNL     1      12.150   7.952   1.958  0.00  0.00    -0.054 NA
ATOM     17  C   UNL     1       9.990   7.612   2.243  0.00  0.00    +0.245 A 
ATOM     21  C   UNL     1      11.759   6.708   1.668  0.00  0.00    +0.221 A 
BRANCH  21  25
ATOM     11  N   UNL     1      13.903   5.729   1.778  0.00  0.00    -0.252 NA
ATOM     25  C   UNL     1      12.672   5.697   1.218  0.00  0.00    +0.115 A 
ATOM     26  C   UNL     1      12.276   4.769   0.269  0.00  0.00    +0.077 A 
ATOM     27  C   UNL     1      13.202   3.812  -0.133  0.00  0.00    +0.124 A 
ATOM     28  C   UNL     1      14.776   4.784   1.363  0.00  0.00    +0.115 A 
ATOM     30  C   UNL     1      14.478   3.813   0.420  0.00  0.00    +0.065 A 
BRANCH  27   6
ATOM      6  O   UNL     1      12.860   2.879  -1.062  0.00  0.00    -0.490 OA
BRANCH   6  31
ATOM     31  C   UNL     1      11.675   3.120  -1.820  0.00  0.00    +0.257 C 
BRANCH  31  32
ATOM     32  C   UNL     1      11.328   1.871  -2.606  0.00  0.00    +0.200 C 
BRANCH  32   7
ATOM      7  O   UNL     1       9.915   1.792  -2.754  0.00  0.00    -0.380 OA
ATOM     33  C   UNL     1       9.474   2.485  -3.913  0.00  0.00    +0.194 C 
ENDBRANCH  32   7
ENDBRANCH  31  32
ENDBRANCH   6  31
ENDBRANCH  27   6
ENDBRANCH  21  25
ENDBRANCH  12  17
BRANCH   8  16
ATOM     16  C   UNL     1       8.159   7.139   4.855  0.00  0.00    +0.120 C 
BRANCH  16  18
ATOM     18  C   UNL     1       9.271   6.847   5.827  0.00  0.00    -0.030 A 
ATOM     19  C   UNL     1       9.143   5.799   6.739  0.00  0.00    +0.051 A 
ATOM     20  C   UNL     1      10.429   7.624   5.818  0.00  0.00    +0.005 A 
ATOM     22  C   UNL     1      10.172   5.528   7.640  0.00  0.00    +0.130 A 
ATOM     23  C   UNL     1      11.459   7.354   6.719  0.00  0.00    +0.004 A 
ATOM     24  C   UNL     1      11.331   6.306   7.630  0.00  0.00    +0.046 A 
BRANCH  22   5
ATOM      5  O   UNL     1      10.046   4.506   8.530  0.00  0.00    -0.406 OA
BRANCH   5  29
ATOM      1  F   UNL     1       8.630   3.741  10.154  0.00  0.00    -0.133 F 
ATOM      2  F   UNL     1       8.634   5.868   9.646  0.00  0.00    -0.133 F 
ATOM      3  F   UNL     1      10.331   5.028  10.738  0.00  0.00    -0.133 F 
ATOM     29  C   UNL     1       9.417   4.772   9.778  0.00  0.00    +0.575 C 
ENDBRANCH   5  29
ENDBRANCH  22   5
ENDBRANCH  16  18
ENDBRANCH   8  16
TORSDOF 10
ENDMDL
MODEL 10
REMARK VINA RESULT:      -6.7     30.079     33.734
REMARK  Name = 45783463
REMARK  11 active torsions:
REMARK  status: ('A' for Active; 'I' for Inactive)
REMARK    1  A    between atoms: O_5  and  C_22
REMARK    2  A    between atoms: O_5  and  C_29
REMARK    3  A    between atoms: O_6  and  C_27
REMARK    4  A    between atoms: O_6  and  C_31
REMARK    5  A    between atoms: O_7  and  C_32
REMARK    6  A    between atoms: O_7  and  C_33
REMARK    7  A    between atoms: N_8  and  C_16
REMARK    8  A    between atoms: C_12  and  C_17
REMARK    9  A    between atoms: C_16  and  C_18
REMARK   10  A    between atoms: C_21  and  C_25
REMARK   11  A    between atoms: C_31  and  C_32
REMARK                            x       y       z     vdW  Elec       q    Type
REMARK                         _______ _______ _______ _____ _____    ______ ____
ROOT
ATOM      8  N   UNL     1      10.733  10.172   7.997  0.00  0.00    -0.287 NA
ATOM     12  C   UNL     1      11.780  10.789   7.158  0.00  0.00    +0.146 C 
ATOM     13  C   UNL     1      12.583  11.678   8.124  0.00  0.00    +0.030 C 
ATOM     14  C   UNL     1      11.879  11.544   9.466  0.00  0.00    +0.017 C 
ATOM     15  C   UNL     1      10.477  11.109   9.091  0.00  0.00    +0.085 C 
ENDROOT
BRANCH  12  17
ATOM      4  O   UNL     1      13.247   8.835   7.244  0.00  0.00    -0.336 OA
ATOM      9  N   UNL     1      12.900   9.626   5.178  0.00  0.00    -0.189 NA
ATOM     10  N   UNL     1      13.976   8.007   6.383  0.00  0.00    -0.054 NA
ATOM     17  C   UNL     1      12.642   9.761   6.455  0.00  0.00    +0.245 A 
ATOM     21  C   UNL     1      13.722   8.538   5.183  0.00  0.00    +0.221 A 
BRANCH  21  25
ATOM     11  N   UNL     1      15.534   8.390   3.679  0.00  0.00    -0.252 NA
ATOM     25  C   UNL     1      14.271   8.004   3.970  0.00  0.00    +0.115 A 
ATOM     26  C   UNL     1      13.518   7.152   3.178  0.00  0.00    +0.077 A 
ATOM     27  C   UNL     1      14.099   6.664   2.012  0.00  0.00    +0.124 A 
ATOM     28  C   UNL     1      16.065   7.896   2.538  0.00  0.00    +0.115 A 
ATOM     30  C   UNL     1      15.396   7.038   1.679  0.00  0.00    +0.065 A 
BRANCH  27   6
ATOM      6  O   UNL     1      13.401   5.824   1.202  0.00  0.00    -0.490 OA
BRANCH   6  31
ATOM     31  C   UNL     1      12.838   4.658   1.804  0.00  0.00    +0.257 C 
BRANCH  31  32
ATOM     32  C   UNL     1      11.544   4.312   1.093  0.00  0.00    +0.200 C 
BRANCH  32   7
ATOM      7  O   UNL     1      10.579   3.905   2.056  0.00  0.00    -0.380 OA
ATOM     33  C   UNL     1      10.830   4.492   3.325  0.00  0.00    +0.194 C 
ENDBRANCH  32   7
ENDBRANCH  31  32
ENDBRANCH   6  31
ENDBRANCH  27   6
ENDBRANCH  21  25
ENDBRANCH  12  17
BRANCH   8  16
ATOM     16  C   UNL     1       9.520   9.847   7.258  0.00  0.00    +0.120 C 
BRANCH  16  18
ATOM     18  C   UNL     1       9.387   8.367   7.022  0.00  0.00    -0.030 A 
ATOM     19  C   UNL     1       9.935   7.463   7.933  0.00  0.00    +0.051 A 
ATOM     20  C   UNL     1       8.716   7.897   5.894  0.00  0.00    +0.005 A 
ATOM     22  C   UNL     1       9.812   6.091   7.716  0.00  0.00    +0.130 A 
ATOM     23  C   UNL     1       8.593   6.524   5.675  0.00  0.00    +0.004 A 
ATOM     24  C   UNL     1       9.140   5.621   6.587  0.00  0.00    +0.046 A 
BRANCH  22   5
ATOM      5  O   UNL     1      10.348   5.211   8.605  0.00  0.00    -0.406 OA
BRANCH   5  29
ATOM      1  F   UNL     1       8.447   5.415   9.860  0.00  0.00    -0.133 F 
ATOM      2  F   UNL     1      10.179   4.371  10.693  0.00  0.00    -0.133 F 
ATOM      3  F   UNL     1       9.020   3.417   9.105  0.00  0.00    -0.133 F 
ATOM     29  C   UNL     1       9.483   4.602   9.556  0.00  0.00    +0.575 C 
ENDBRANCH   5  29
ENDBRANCH  22   5
ENDBRANCH  16  18
ENDBRANCH   8  16
TORSDOF 10
ENDMDL
