MODEL 1
REMARK VINA RESULT:      -6.3      0.000      0.000
REMARK  Name = 40777837
REMARK  11 active torsions:
REMARK  status: ('A' for Active; 'I' for Inactive)
REMARK    1  A    between atoms: O_3  and  C_8
REMARK    2  A    between atoms: O_4  and  C_9
REMARK    3  A    between atoms: N_6  and  C_12
REMARK    4  A    between atoms: N_6  and  C_15
REMARK    5  A    between atoms: N_7  and  C_16
REMARK    6  A    between atoms: C_10  and  C_12
REMARK    7  A    between atoms: C_11  and  C_13
REMARK    8  A    between atoms: C_13  and  C_14
REMARK    9  A    between atoms: C_15  and  C_17
REMARK   10  A    between atoms: C_16  and  C_18
REMARK   11  A    between atoms: C_16  and  C_19
REMARK                            x       y       z     vdW  Elec       q    Type
REMARK                         _______ _______ _______ _____ _____    ______ ____
ROOT
ATOM      2  O   UNL     1      12.981   8.347  21.705  0.00  0.00    -0.366 OA
ATOM      8  C   UNL     1      11.717   6.562  20.770  0.00  0.00    +0.175 C 
ATOM      9  C   UNL     1      10.774   7.626  21.292  0.00  0.00    +0.175 C 
ATOM     10  C   UNL     1      13.038   7.320  20.689  0.00  0.00    +0.163 C 
ATOM     11  C   UNL     1      11.664   8.361  22.282  0.00  0.00    +0.158 C 
ENDROOT
BRANCH   8   3
ATOM      3  O   UNL     1      11.865   5.516  21.730  0.00  0.00    -0.387 OA
ATOM     25  H   UNL     1      12.280   5.903  22.520  0.00  0.00    +0.210 HD
ENDBRANCH   8   3
BRANCH   9   4
ATOM      4  O   UNL     1       9.621   7.097  21.909  0.00  0.00    -0.387 OA
ATOM     26  H   UNL     1       9.505   7.560  22.757  0.00  0.00    +0.210 HD
ENDBRANCH   9   4
BRANCH  10  12
ATOM     12  C   UNL     1      13.251   8.006  19.346  0.00  0.00    +0.115 C 
BRANCH  12   6
ATOM      6  N   UNL     1      14.648   7.939  18.941  0.00  0.00    -0.309 NA
ATOM     27  H   UNL     1      14.707   7.992  17.924  0.00  0.00    +0.122 HD
BRANCH   6  15
ATOM     15  C   UNL     1      15.269   6.708  19.408  0.00  0.00    +0.116 C 
BRANCH  15  17
ATOM      1  F   UNL     1      20.289   7.659  21.784  0.00  0.00    -0.205 F 
ATOM     17  C   UNL     1      16.611   6.962  20.043  0.00  0.00    -0.033 A 
ATOM     20  C   UNL     1      17.687   6.124  19.755  0.00  0.00    +0.008 A 
ATOM     21  C   UNL     1      16.775   8.035  20.918  0.00  0.00    +0.008 A 
ATOM     22  C   UNL     1      18.931   6.359  20.343  0.00  0.00    +0.038 A 
ATOM     23  C   UNL     1      18.018   8.270  21.506  0.00  0.00    +0.038 A 
ATOM     24  C   UNL     1      19.095   7.432  21.220  0.00  0.00    +0.123 A 
ENDBRANCH  15  17
ENDBRANCH   6  15
ENDBRANCH  12   6
ENDBRANCH  10  12
BRANCH  11  13
ATOM     13  C   UNL     1      11.229   9.794  22.532  0.00  0.00    +0.130 C 
BRANCH  13  14
ATOM      5  O   UNL     1      13.013  11.232  23.308  0.00  0.00    -0.276 OA
ATOM      7  N   UNL     1      12.567  11.107  21.030  0.00  0.00    -0.313 N 
ATOM     14  C   UNL     1      12.367  10.785  22.364  0.00  0.00    +0.216 C 
ATOM     28  H   UNL     1      12.013  10.634  20.322  0.00  0.00    +0.149 HD
BRANCH   7  16
ATOM     16  C   UNL     1      13.586  12.031  20.586  0.00  0.00    +0.067 C 
ATOM     18  C   UNL     1      13.124  12.769  19.336  0.00  0.00    +0.027 C 
ATOM     19  C   UNL     1      14.900  11.300  20.342  0.00  0.00    +0.027 C 
ENDBRANCH   7  16
ENDBRANCH  13  14
ENDBRANCH  11  13
TORSDOF 9
ENDMDL
MODEL 2
REMARK VINA RESULT:      -5.8     30.540     31.704
REMARK  Name = 40777837
REMARK  11 active torsions:
REMARK  status: ('A' for Active; 'I' for Inactive)
REMARK    1  A    between atoms: O_3  and  C_8
REMARK    2  A    between atoms: O_4  and  C_9
REMARK    3  A    between atoms: N_6  and  C_12
REMARK    4  A    between atoms: N_6  and  C_15
REMARK    5  A    between atoms: N_7  and  C_16
REMARK    6  A    between atoms: C_10  and  C_12
REMARK    7  A    between atoms: C_11  and  C_13
REMARK    8  A    between atoms: C_13  and  C_14
REMARK    9  A    between atoms: C_15  and  C_17
REMARK   10  A    between atoms: C_16  and  C_18
REMARK   11  A    between atoms: C_16  and  C_19
REMARK                            x       y       z     vdW  Elec       q    Type
REMARK                         _______ _______ _______ _____ _____    ______ ____
ROOT
ATOM      2  O   UNL     1     -13.681   2.614  31.541  0.00  0.00    -0.366 OA
ATOM      8  C   UNL     1     -14.266   0.964  29.931  0.00  0.00    +0.175 C 
ATOM      9  C   UNL     1     -14.936   0.639  31.249  0.00  0.00    +0.175 C 
ATOM     10  C   UNL     1     -13.881   2.426  30.121  0.00  0.00    +0.163 C 
ATOM     11  C   UNL     1     -14.069   1.412  32.230  0.00  0.00    +0.158 C 
ENDROOT
BRANCH   8   3
ATOM      3  O   UNL     1     -13.065   0.205  29.785  0.00  0.00    -0.387 OA
ATOM     25  H   UNL     1     -12.741   0.000  30.679  0.00  0.00    +0.210 HD
ENDBRANCH   8   3
BRANCH   9   4
ATOM      4  O   UNL     1     -14.961  -0.741  31.540  0.00  0.00    -0.387 OA
ATOM     26  H   UNL     1     -15.283  -1.201  30.745  0.00  0.00    +0.210 HD
ENDBRANCH   9   4
BRANCH  10  12
ATOM     12  C   UNL     1     -14.970   3.392  29.673  0.00  0.00    +0.115 C 
BRANCH  12   6
ATOM      6  N   UNL     1     -15.193   3.301  28.237  0.00  0.00    -0.309 NA
ATOM     27  H   UNL     1     -14.399   3.709  27.746  0.00  0.00    +0.122 HD
BRANCH   6  15
ATOM     15  C   UNL     1     -16.418   3.990  27.855  0.00  0.00    +0.116 C 
BRANCH  15  17
ATOM      1  F   UNL     1     -16.972   4.335  22.258  0.00  0.00    -0.205 F 
ATOM     17  C   UNL     1     -16.566   4.082  26.359  0.00  0.00    -0.033 A 
ATOM     20  C   UNL     1     -15.941   3.144  25.538  0.00  0.00    +0.008 A 
ATOM     21  C   UNL     1     -17.328   5.105  25.796  0.00  0.00    +0.008 A 
ATOM     22  C   UNL     1     -16.078   3.229  24.152  0.00  0.00    +0.038 A 
ATOM     23  C   UNL     1     -17.465   5.191  24.410  0.00  0.00    +0.038 A 
ATOM     24  C   UNL     1     -16.840   4.254  23.589  0.00  0.00    +0.123 A 
ENDBRANCH  15  17
ENDBRANCH   6  15
ENDBRANCH  12   6
ENDBRANCH  10  12
BRANCH  11  13
ATOM     13  C   UNL     1     -14.790   1.771  33.517  0.00  0.00    +0.130 C 
BRANCH  13  14
ATOM      5  O   UNL     1     -16.404   3.545  33.206  0.00  0.00    -0.276 OA
ATOM      7  N   UNL     1     -14.270   4.074  33.961  0.00  0.00    -0.313 N 
ATOM     14  C   UNL     1     -15.269   3.211  33.535  0.00  0.00    +0.216 C 
ATOM     28  H   UNL     1     -13.383   3.685  34.265  0.00  0.00    +0.149 HD
BRANCH   7  16
ATOM     16  C   UNL     1     -14.456   5.503  34.070  0.00  0.00    +0.067 C 
ATOM     18  C   UNL     1     -14.020   6.193  32.784  0.00  0.00    +0.027 C 
ATOM     19  C   UNL     1     -13.700   6.050  35.273  0.00  0.00    +0.027 C 
ENDBRANCH   7  16
ENDBRANCH  13  14
ENDBRANCH  11  13
TORSDOF 9
ENDMDL
MODEL 3
REMARK VINA RESULT:      -5.7     26.556     28.590
REMARK  Name = 40777837
REMARK  11 active torsions:
REMARK  status: ('A' for Active; 'I' for Inactive)
REMARK    1  A    between atoms: O_3  and  C_8
REMARK    2  A    between atoms: O_4  and  C_9
REMARK    3  A    between atoms: N_6  and  C_12
REMARK    4  A    between atoms: N_6  and  C_15
REMARK    5  A    between atoms: N_7  and  C_16
REMARK    6  A    between atoms: C_10  and  C_12
REMARK    7  A    between atoms: C_11  and  C_13
REMARK    8  A    between atoms: C_13  and  C_14
REMARK    9  A    between atoms: C_15  and  C_17
REMARK   10  A    between atoms: C_16  and  C_18
REMARK   11  A    between atoms: C_16  and  C_19
REMARK                            x       y       z     vdW  Elec       q    Type
REMARK                         _______ _______ _______ _____ _____    ______ ____
ROOT
ATOM      2  O   UNL     1      -4.022 -11.968  14.500  0.00  0.00    -0.366 OA
ATOM      8  C   UNL     1      -3.749 -11.062  16.681  0.00  0.00    +0.175 C 
ATOM      9  C   UNL     1      -2.485 -10.832  15.880  0.00  0.00    +0.175 C 
ATOM     10  C   UNL     1      -4.765 -11.375  15.589  0.00  0.00    +0.163 C 
ATOM     11  C   UNL     1      -2.617 -11.889  14.795  0.00  0.00    +0.158 C 
ENDROOT
BRANCH   8   3
ATOM      3  O   UNL     1      -3.611 -12.220  17.504  0.00  0.00    -0.387 OA
ATOM     25  H   UNL     1      -4.486 -12.640  17.563  0.00  0.00    +0.210 HD
ENDBRANCH   8   3
BRANCH   9   4
ATOM      4  O   UNL     1      -1.305 -10.996  16.637  0.00  0.00    -0.387 OA
ATOM     26  H   UNL     1      -0.735 -11.621  16.156  0.00  0.00    +0.210 HD
ENDBRANCH   9   4
BRANCH  10  12
ATOM     12  C   UNL     1      -5.467 -10.135  15.053  0.00  0.00    +0.115 C 
BRANCH  12   6
ATOM      6  N   UNL     1      -5.813  -9.221  16.134  0.00  0.00    -0.309 NA
ATOM     27  H   UNL     1      -5.220  -9.413  16.940  0.00  0.00    +0.122 HD
BRANCH   6  15
ATOM     15  C   UNL     1      -7.214  -9.362  16.506  0.00  0.00    +0.116 C 
BRANCH  15  17
ATOM      1  F   UNL     1      -7.937 -13.249  20.521  0.00  0.00    -0.205 F 
ATOM     17  C   UNL     1      -7.407 -10.401  17.579  0.00  0.00    -0.033 A 
ATOM     20  C   UNL     1      -8.373 -11.394  17.421  0.00  0.00    +0.008 A 
ATOM     21  C   UNL     1      -6.620 -10.369  18.730  0.00  0.00    +0.008 A 
ATOM     22  C   UNL     1      -8.553 -12.357  18.415  0.00  0.00    +0.038 A 
ATOM     23  C   UNL     1      -6.800 -11.331  19.724  0.00  0.00    +0.038 A 
ATOM     24  C   UNL     1      -7.766 -12.324  19.567  0.00  0.00    +0.123 A 
ENDBRANCH  15  17
ENDBRANCH   6  15
ENDBRANCH  12   6
ENDBRANCH  10  12
BRANCH  11  13
ATOM     13  C   UNL     1      -1.846 -11.552  13.531  0.00  0.00    +0.130 C 
BRANCH  13  14
ATOM      5  O   UNL     1      -2.931 -12.512  11.593  0.00  0.00    -0.276 OA
ATOM      7  N   UNL     1      -3.270 -10.266  12.085  0.00  0.00    -0.313 N 
ATOM     14  C   UNL     1      -2.732 -11.526  12.298  0.00  0.00    +0.216 C 
ATOM     28  H   UNL     1      -3.087  -9.533  12.765  0.00  0.00    +0.149 HD
BRANCH   7  16
ATOM     16  C   UNL     1      -4.149  -9.960  10.980  0.00  0.00    +0.067 C 
ATOM     18  C   UNL     1      -3.398  -9.183   9.905  0.00  0.00    +0.027 C 
ATOM     19  C   UNL     1      -5.371  -9.190  11.465  0.00  0.00    +0.027 C 
ENDBRANCH   7  16
ENDBRANCH  13  14
ENDBRANCH  11  13
TORSDOF 9
ENDMDL
MODEL 4
REMARK VINA RESULT:      -5.6     19.184     21.018
REMARK  Name = 40777837
REMARK  11 active torsions:
REMARK  status: ('A' for Active; 'I' for Inactive)
REMARK    1  A    between atoms: O_3  and  C_8
REMARK    2  A    between atoms: O_4  and  C_9
REMARK    3  A    between atoms: N_6  and  C_12
REMARK    4  A    between atoms: N_6  and  C_15
REMARK    5  A    between atoms: N_7  and  C_16
REMARK    6  A    between atoms: C_10  and  C_12
REMARK    7  A    between atoms: C_11  and  C_13
REMARK    8  A    between atoms: C_13  and  C_14
REMARK    9  A    between atoms: C_15  and  C_17
REMARK   10  A    between atoms: C_16  and  C_18
REMARK   11  A    between atoms: C_16  and  C_19
REMARK                            x       y       z     vdW  Elec       q    Type
REMARK                         _______ _______ _______ _____ _____    ______ ____
ROOT
ATOM      2  O   UNL     1      13.548   3.220  -0.204  0.00  0.00    -0.366 OA
ATOM      8  C   UNL     1      14.643   4.121   1.705  0.00  0.00    +0.175 C 
ATOM      9  C   UNL     1      15.068   4.891   0.472  0.00  0.00    +0.175 C 
ATOM     10  C   UNL     1      13.384   3.413   1.220  0.00  0.00    +0.163 C 
ATOM     11  C   UNL     1      14.741   3.899  -0.633  0.00  0.00    +0.158 C 
ENDROOT
BRANCH   8   3
ATOM      3  O   UNL     1      15.615   3.126   2.028  0.00  0.00    -0.387 OA
ATOM     25  H   UNL     1      15.924   3.305   2.932  0.00  0.00    +0.210 HD
ENDBRANCH   8   3
BRANCH   9   4
ATOM      4  O   UNL     1      16.434   5.245   0.477  0.00  0.00    -0.387 OA
ATOM     26  H   UNL     1      16.875   4.698   1.150  0.00  0.00    +0.210 HD
ENDBRANCH   9   4
BRANCH  10  12
ATOM     12  C   UNL     1      12.118   4.232   1.435  0.00  0.00    +0.115 C 
BRANCH  12   6
ATOM      6  N   UNL     1      12.069   4.774   2.786  0.00  0.00    -0.309 NA
ATOM     27  H   UNL     1      12.622   4.184   3.406  0.00  0.00    +0.122 HD
BRANCH   6  15
ATOM     15  C   UNL     1      10.697   4.849   3.268  0.00  0.00    +0.116 C 
BRANCH  15  17
ATOM      1  F   UNL     1      10.460   6.287   8.711  0.00  0.00    -0.205 F 
ATOM     17  C   UNL     1      10.633   5.233   4.723  0.00  0.00    -0.033 A 
ATOM     20  C   UNL     1      11.431   6.271   5.204  0.00  0.00    +0.008 A 
ATOM     21  C   UNL     1       9.777   4.551   5.587  0.00  0.00    +0.008 A 
ATOM     22  C   UNL     1      11.373   6.627   6.552  0.00  0.00    +0.038 A 
ATOM     23  C   UNL     1       9.719   4.907   6.934  0.00  0.00    +0.038 A 
ATOM     24  C   UNL     1      10.517   5.944   7.417  0.00  0.00    +0.123 A 
ENDBRANCH  15  17
ENDBRANCH   6  15
ENDBRANCH  12   6
ENDBRANCH  10  12
BRANCH  11  13
ATOM     13  C   UNL     1      14.500   4.557  -1.980  0.00  0.00    +0.130 C 
BRANCH  13  14
ATOM      5  O   UNL     1      12.301   5.561  -2.053  0.00  0.00    -0.276 OA
ATOM      7  N   UNL     1      12.627   3.478  -3.030  0.00  0.00    -0.313 N 
ATOM     14  C   UNL     1      13.027   4.615  -2.344  0.00  0.00    +0.216 C 
ATOM     28  H   UNL     1      13.325   2.779  -3.270  0.00  0.00    +0.149 HD
BRANCH   7  16
ATOM     16  C   UNL     1      11.275   3.271  -3.494  0.00  0.00    +0.067 C 
ATOM     18  C   UNL     1      10.666   2.046  -2.826  0.00  0.00    +0.027 C 
ATOM     19  C   UNL     1      11.244   3.145  -5.012  0.00  0.00    +0.027 C 
ENDBRANCH   7  16
ENDBRANCH  13  14
ENDBRANCH  11  13
TORSDOF 9
ENDMDL
MODEL 5
REMARK VINA RESULT:      -5.6     26.023     28.332
REMARK  Name = 40777837
REMARK  11 active torsions:
REMARK  status: ('A' for Active; 'I' for Inactive)
REMARK    1  A    between atoms: O_3  and  C_8
REMARK    2  A    between atoms: O_4  and  C_9
REMARK    3  A    between atoms: N_6  and  C_12
REMARK    4  A    between atoms: N_6  and  C_15
REMARK    5  A    between atoms: N_7  and  C_16
REMARK    6  A    between atoms: C_10  and  C_12
REMARK    7  A    between atoms: C_11  and  C_13
REMARK    8  A    between atoms: C_13  and  C_14
REMARK    9  A    between atoms: C_15  and  C_17
REMARK   10  A    between atoms: C_16  and  C_18
REMARK   11  A    between atoms: C_16  and  C_19
REMARK                            x       y       z     vdW  Elec       q    Type
REMARK                         _______ _______ _______ _____ _____    ______ ____
ROOT
ATOM      2  O   UNL     1      -6.539 -11.816  16.816  0.00  0.00    -0.366 OA
ATOM      8  C   UNL     1      -8.393 -10.777  17.881  0.00  0.00    +0.175 C 
ATOM      9  C   UNL     1      -7.137 -10.508  18.683  0.00  0.00    +0.175 C 
ATOM     10  C   UNL     1      -7.824 -11.216  16.537  0.00  0.00    +0.163 C 
ATOM     11  C   UNL     1      -6.226 -11.628  18.207  0.00  0.00    +0.158 C 
ENDROOT
BRANCH   8   3
ATOM      3  O   UNL     1      -9.112 -11.877  18.439  0.00  0.00    -0.387 OA
ATOM     25  H   UNL     1     -10.046 -11.615  18.496  0.00  0.00    +0.210 HD
ENDBRANCH   8   3
BRANCH   9   4
ATOM      4  O   UNL     1      -7.344 -10.552  20.079  0.00  0.00    -0.387 OA
ATOM     26  H   UNL     1      -6.769  -9.878  20.480  0.00  0.00    +0.210 HD
ENDBRANCH   9   4
BRANCH  10  12
ATOM     12  C   UNL     1      -7.598 -10.056  15.577  0.00  0.00    +0.115 C 
BRANCH  12   6
ATOM      6  N   UNL     1      -6.637 -10.413  14.542  0.00  0.00    -0.309 NA
ATOM     27  H   UNL     1      -5.719 -10.048  14.793  0.00  0.00    +0.122 HD
BRANCH   6  15
ATOM     15  C   UNL     1      -7.043  -9.881  13.248  0.00  0.00    +0.116 C 
BRANCH  15  17
ATOM      1  F   UNL     1      -2.632  -9.062   9.839  0.00  0.00    -0.205 F 
ATOM     17  C   UNL     1      -5.864  -9.662  12.337  0.00  0.00    -0.033 A 
ATOM     20  C   UNL     1      -4.682 -10.372  12.545  0.00  0.00    +0.008 A 
ATOM     21  C   UNL     1      -5.956  -8.751  11.286  0.00  0.00    +0.008 A 
ATOM     22  C   UNL     1      -3.589 -10.169  11.701  0.00  0.00    +0.038 A 
ATOM     23  C   UNL     1      -4.863  -8.548  10.443  0.00  0.00    +0.038 A 
ATOM     24  C   UNL     1      -3.680  -9.256  10.650  0.00  0.00    +0.123 A 
ENDBRANCH  15  17
ENDBRANCH   6  15
ENDBRANCH  12   6
ENDBRANCH  10  12
BRANCH  11  13
ATOM     13  C   UNL     1      -4.750 -11.310  18.362  0.00  0.00    +0.130 C 
BRANCH  13  14
ATOM      5  O   UNL     1      -4.338  -9.655  16.647  0.00  0.00    -0.276 OA
ATOM      7  N   UNL     1      -3.318 -11.737  16.481  0.00  0.00    -0.313 N 
ATOM     14  C   UNL     1      -4.130 -10.785  17.080  0.00  0.00    +0.216 C 
ATOM     28  H   UNL     1      -3.168 -12.622  16.956  0.00  0.00    +0.149 HD
BRANCH   7  16
ATOM     16  C   UNL     1      -2.605 -11.501  15.247  0.00  0.00    +0.067 C 
ATOM     18  C   UNL     1      -2.519 -12.785  14.431  0.00  0.00    +0.027 C 
ATOM     19  C   UNL     1      -1.220 -10.933  15.529  0.00  0.00    +0.027 C 
ENDBRANCH   7  16
ENDBRANCH  13  14
ENDBRANCH  11  13
TORSDOF 9
ENDMDL
MODEL 6
REMARK VINA RESULT:      -5.6     14.780     18.256
REMARK  Name = 40777837
REMARK  11 active torsions:
REMARK  status: ('A' for Active; 'I' for Inactive)
REMARK    1  A    between atoms: O_3  and  C_8
REMARK    2  A    between atoms: O_4  and  C_9
REMARK    3  A    between atoms: N_6  and  C_12
REMARK    4  A    between atoms: N_6  and  C_15
REMARK    5  A    between atoms: N_7  and  C_16
REMARK    6  A    between atoms: C_10  and  C_12
REMARK    7  A    between atoms: C_11  and  C_13
REMARK    8  A    between atoms: C_13  and  C_14
REMARK    9  A    between atoms: C_15  and  C_17
REMARK   10  A    between atoms: C_16  and  C_18
REMARK   11  A    between atoms: C_16  and  C_19
REMARK                            x       y       z     vdW  Elec       q    Type
REMARK                         _______ _______ _______ _____ _____    ______ ____
ROOT
ATOM      2  O   UNL     1      -1.199  -1.142  23.878  0.00  0.00    -0.366 OA
ATOM      8  C   UNL     1      -1.714  -0.206  26.003  0.00  0.00    +0.175 C 
ATOM      9  C   UNL     1      -0.847   0.761  25.224  0.00  0.00    +0.175 C 
ATOM     10  C   UNL     1      -2.217  -1.137  24.905  0.00  0.00    +0.163 C 
ATOM     11  C   UNL     1      -0.198  -0.163  24.206  0.00  0.00    +0.158 C 
ENDROOT
BRANCH   8   3
ATOM      3  O   UNL     1      -0.914  -0.974  26.903  0.00  0.00    -0.387 OA
ATOM     25  H   UNL     1       0.003  -0.934  26.583  0.00  0.00    +0.210 HD
ENDBRANCH   8   3
BRANCH   9   4
ATOM      4  O   UNL     1       0.110   1.423  26.023  0.00  0.00    -0.387 OA
ATOM     26  H   UNL     1      -0.327   1.669  26.857  0.00  0.00    +0.210 HD
ENDBRANCH   9   4
BRANCH  10  12
ATOM     12  C   UNL     1      -3.517  -0.662  24.270  0.00  0.00    +0.115 C 
BRANCH  12   6
ATOM      6  N   UNL     1      -4.359   0.016  25.246  0.00  0.00    -0.309 NA
ATOM     27  H   UNL     1      -5.118  -0.604  25.525  0.00  0.00    +0.122 HD
BRANCH   6  15
ATOM     15  C   UNL     1      -4.906   1.249  24.695  0.00  0.00    +0.116 C 
BRANCH  15  17
ATOM      1  F   UNL     1      -1.371   5.588  25.344  0.00  0.00    -0.205 F 
ATOM     17  C   UNL     1      -3.961   2.408  24.868  0.00  0.00    -0.033 A 
ATOM     20  C   UNL     1      -3.087   2.755  23.838  0.00  0.00    +0.008 A 
ATOM     21  C   UNL     1      -3.961   3.136  26.058  0.00  0.00    +0.008 A 
ATOM     22  C   UNL     1      -2.211   3.830  23.999  0.00  0.00    +0.038 A 
ATOM     23  C   UNL     1      -3.086   4.209  26.219  0.00  0.00    +0.038 A 
ATOM     24  C   UNL     1      -2.210   4.556  25.190  0.00  0.00    +0.123 A 
ENDBRANCH  15  17
ENDBRANCH   6  15
ENDBRANCH  12   6
ENDBRANCH  10  12
BRANCH  11  13
ATOM     13  C   UNL     1       0.253   0.552  22.946  0.00  0.00    +0.130 C 
BRANCH  13  14
ATOM      5  O   UNL     1       1.621  -0.542  21.278  0.00  0.00    -0.276 OA
ATOM      7  N   UNL     1       2.597   0.141  23.275  0.00  0.00    -0.313 N 
ATOM     14  C   UNL     1       1.544  -0.015  22.384  0.00  0.00    +0.216 C 
ATOM     28  H   UNL     1       2.435   0.645  24.141  0.00  0.00    +0.149 HD
BRANCH   7  16
ATOM     16  C   UNL     1       3.940  -0.312  22.995  0.00  0.00    +0.067 C 
ATOM     18  C   UNL     1       4.265  -1.548  23.822  0.00  0.00    +0.027 C 
ATOM     19  C   UNL     1       4.944   0.804  23.250  0.00  0.00    +0.027 C 
ENDBRANCH   7  16
ENDBRANCH  13  14
ENDBRANCH  11  13
TORSDOF 9
ENDMDL
MODEL 7
REMARK VINA RESULT:      -5.5      3.601      5.105
REMARK  Name = 40777837
REMARK  11 active torsions:
REMARK  status: ('A' for Active; 'I' for Inactive)
REMARK    1  A    between atoms: O_3  and  C_8
REMARK    2  A    between atoms: O_4  and  C_9
REMARK    3  A    between atoms: N_6  and  C_12
REMARK    4  A    between atoms: N_6  and  C_15
REMARK    5  A    between atoms: N_7  and  C_16
REMARK    6  A    between atoms: C_10  and  C_12
REMARK    7  A    between atoms: C_11  and  C_13
REMARK    8  A    between atoms: C_13  and  C_14
REMARK    9  A    between atoms: C_15  and  C_17
REMARK   10  A    between atoms: C_16  and  C_18
REMARK   11  A    between atoms: C_16  and  C_19
REMARK                            x       y       z     vdW  Elec       q    Type
REMARK                         _______ _______ _______ _____ _____    ______ ____
ROOT
ATOM      2  O   UNL     1      14.574   8.002  18.733  0.00  0.00    -0.366 OA
ATOM      8  C   UNL     1      12.206   7.876  18.561  0.00  0.00    +0.175 C 
ATOM      9  C   UNL     1      12.663   7.107  19.783  0.00  0.00    +0.175 C 
ATOM     10  C   UNL     1      13.425   8.737  18.252  0.00  0.00    +0.163 C 
ATOM     11  C   UNL     1      14.121   6.838  19.446  0.00  0.00    +0.158 C 
ENDROOT
BRANCH   8   3
ATOM      3  O   UNL     1      12.002   6.986  17.463  0.00  0.00    -0.387 OA
ATOM     25  H   UNL     1      12.254   7.462  16.653  0.00  0.00    +0.210 HD
ENDBRANCH   8   3
BRANCH   9   4
ATOM      4  O   UNL     1      11.941   5.913  19.995  0.00  0.00    -0.387 OA
ATOM     26  H   UNL     1      12.326   5.474  20.773  0.00  0.00    +0.210 HD
ENDBRANCH   9   4
BRANCH  10  12
ATOM     12  C   UNL     1      13.402  10.082  18.966  0.00  0.00    +0.115 C 
BRANCH  12   6
ATOM      6  N   UNL     1      13.356  11.180  18.011  0.00  0.00    -0.309 NA
ATOM     27  H   UNL     1      12.410  11.559  17.979  0.00  0.00    +0.122 HD
BRANCH   6  15
ATOM     15  C   UNL     1      13.754  10.733  16.683  0.00  0.00    +0.116 C 
BRANCH  15  17
ATOM      1  F   UNL     1      18.617  13.066  15.054  0.00  0.00    -0.205 F 
ATOM     17  C   UNL     1      15.053  11.357  16.247  0.00  0.00    -0.033 A 
ATOM     20  C   UNL     1      15.596  11.038  15.003  0.00  0.00    +0.008 A 
ATOM     21  C   UNL     1      15.713  12.252  17.089  0.00  0.00    +0.008 A 
ATOM     22  C   UNL     1      16.801  11.616  14.599  0.00  0.00    +0.038 A 
ATOM     23  C   UNL     1      16.917  12.829  16.685  0.00  0.00    +0.038 A 
ATOM     24  C   UNL     1      17.461  12.511  15.441  0.00  0.00    +0.123 A 
ENDBRANCH  15  17
ENDBRANCH   6  15
ENDBRANCH  12   6
ENDBRANCH  10  12
BRANCH  11  13
ATOM     13  C   UNL     1      14.990   6.616  20.670  0.00  0.00    +0.130 C 
BRANCH  13  14
ATOM      5  O   UNL     1      14.633   8.342  22.327  0.00  0.00    -0.276 OA
ATOM      7  N   UNL     1      16.445   8.516  20.881  0.00  0.00    -0.313 N 
ATOM     14  C   UNL     1      15.311   7.909  21.399  0.00  0.00    +0.216 C 
ATOM     28  H   UNL     1      16.965   8.042  20.149  0.00  0.00    +0.149 HD
BRANCH   7  16
ATOM     16  C   UNL     1      16.973   9.762  21.388  0.00  0.00    +0.067 C 
ATOM     18  C   UNL     1      16.768  10.878  20.371  0.00  0.00    +0.027 C 
ATOM     19  C   UNL     1      18.445   9.610  21.751  0.00  0.00    +0.027 C 
ENDBRANCH   7  16
ENDBRANCH  13  14
ENDBRANCH  11  13
TORSDOF 9
ENDMDL
MODEL 8
REMARK VINA RESULT:      -5.5     26.022     28.655
REMARK  Name = 40777837
REMARK  11 active torsions:
REMARK  status: ('A' for Active; 'I' for Inactive)
REMARK    1  A    between atoms: O_3  and  C_8
REMARK    2  A    between atoms: O_4  and  C_9
REMARK    3  A    between atoms: N_6  and  C_12
REMARK    4  A    between atoms: N_6  and  C_15
REMARK    5  A    between atoms: N_7  and  C_16
REMARK    6  A    between atoms: C_10  and  C_12
REMARK    7  A    between atoms: C_11  and  C_13
REMARK    8  A    between atoms: C_13  and  C_14
REMARK    9  A    between atoms: C_15  and  C_17
REMARK   10  A    between atoms: C_16  and  C_18
REMARK   11  A    between atoms: C_16  and  C_19
REMARK                            x       y       z     vdW  Elec       q    Type
REMARK                         _______ _______ _______ _____ _____    ______ ____
ROOT
ATOM      2  O   UNL     1      -7.169 -10.426  17.289  0.00  0.00    -0.366 OA
ATOM      8  C   UNL     1      -6.930 -11.092  19.559  0.00  0.00    +0.175 C 
ATOM      9  C   UNL     1      -8.400 -11.064  19.196  0.00  0.00    +0.175 C 
ATOM     10  C   UNL     1      -6.264 -11.106  18.189  0.00  0.00    +0.163 C 
ATOM     11  C   UNL     1      -8.396 -10.145  17.984  0.00  0.00    +0.158 C 
ENDROOT
BRANCH   8   3
ATOM      3  O   UNL     1      -6.560  -9.882  20.220  0.00  0.00    -0.387 OA
ATOM     25  H   UNL     1      -5.645  -9.679  19.962  0.00  0.00    +0.210 HD
ENDBRANCH   8   3
BRANCH   9   4
ATOM      4  O   UNL     1      -9.223 -10.570  20.230  0.00  0.00    -0.387 OA
ATOM     26  H   UNL     1     -10.127 -10.888  20.060  0.00  0.00    +0.210 HD
ENDBRANCH   9   4
BRANCH  10  12
ATOM     12  C   UNL     1      -6.039 -12.512  17.649  0.00  0.00    +0.115 C 
BRANCH  12   6
ATOM      6  N   UNL     1      -4.642 -12.719  17.294  0.00  0.00    -0.309 NA
ATOM     27  H   UNL     1      -4.250 -13.453  17.884  0.00  0.00    +0.122 HD
BRANCH   6  15
ATOM     15  C   UNL     1      -3.875 -11.492  17.457  0.00  0.00    +0.116 C 
BRANCH  15  17
ATOM      1  F   UNL     1      -1.421  -9.896  12.643  0.00  0.00    -0.205 F 
ATOM     17  C   UNL     1      -3.219 -11.066  16.171  0.00  0.00    -0.033 A 
ATOM     20  C   UNL     1      -1.896 -10.625  16.176  0.00  0.00    +0.008 A 
ATOM     21  C   UNL     1      -3.935 -11.112  14.975  0.00  0.00    +0.008 A 
ATOM     22  C   UNL     1      -1.288 -10.229  14.984  0.00  0.00    +0.038 A 
ATOM     23  C   UNL     1      -3.328 -10.716  13.783  0.00  0.00    +0.038 A 
ATOM     24  C   UNL     1      -2.005 -10.274  13.787  0.00  0.00    +0.123 A 
ENDBRANCH  15  17
ENDBRANCH   6  15
ENDBRANCH  12   6
ENDBRANCH  10  12
BRANCH  11  13
ATOM     13  C   UNL     1      -9.575 -10.371  17.054  0.00  0.00    +0.130 C 
BRANCH  13  14
ATOM      5  O   UNL     1     -11.354  -9.369  18.351  0.00  0.00    -0.276 OA
ATOM      7  N   UNL     1     -10.913  -8.560  16.217  0.00  0.00    -0.313 N 
ATOM     14  C   UNL     1     -10.710  -9.395  17.306  0.00  0.00    +0.216 C 
ATOM     28  H   UNL     1     -10.283  -8.627  15.423  0.00  0.00    +0.149 HD
BRANCH   7  16
ATOM     16  C   UNL     1     -11.933  -7.537  16.187  0.00  0.00    +0.067 C 
ATOM     18  C   UNL     1     -12.804  -7.693  14.948  0.00  0.00    +0.027 C 
ATOM     19  C   UNL     1     -11.302  -6.151  16.247  0.00  0.00    +0.027 C 
ENDBRANCH   7  16
ENDBRANCH  13  14
ENDBRANCH  11  13
TORSDOF 9
ENDMDL
MODEL 9
REMARK VINA RESULT:      -5.5     27.325     30.587
REMARK  Name = 40777837
REMARK  11 active torsions:
REMARK  status: ('A' for Active; 'I' for Inactive)
REMARK    1  A    between atoms: O_3  and  C_8
REMARK    2  A    between atoms: O_4  and  C_9
REMARK    3  A    between atoms: N_6  and  C_12
REMARK    4  A    between atoms: N_6  and  C_15
REMARK    5  A    between atoms: N_7  and  C_16
REMARK    6  A    between atoms: C_10  and  C_12
REMARK    7  A    between atoms: C_11  and  C_13
REMARK    8  A    between atoms: C_13  and  C_14
REMARK    9  A    between atoms: C_15  and  C_17
REMARK   10  A    between atoms: C_16  and  C_18
REMARK   11  A    between atoms: C_16  and  C_19
REMARK                            x       y       z     vdW  Elec       q    Type
REMARK                         _______ _______ _______ _____ _____    ______ ____
ROOT
ATOM      2  O   UNL     1     -17.482   5.212  23.525  0.00  0.00    -0.366 OA
ATOM      8  C   UNL     1     -15.898   3.488  23.942  0.00  0.00    +0.175 C 
ATOM      9  C   UNL     1     -15.211   4.643  23.244  0.00  0.00    +0.175 C 
ATOM     10  C   UNL     1     -17.182   4.138  24.445  0.00  0.00    +0.163 C 
ATOM     11  C   UNL     1     -16.390   5.353  22.599  0.00  0.00    +0.158 C 
ENDROOT
BRANCH   8   3
ATOM      3  O   UNL     1     -16.254   2.479  22.997  0.00  0.00    -0.387 OA
ATOM     25  H   UNL     1     -16.135   2.857  22.109  0.00  0.00    +0.210 HD
ENDBRANCH   8   3
BRANCH   9   4
ATOM      4  O   UNL     1     -14.255   4.233  22.291  0.00  0.00    -0.387 OA
ATOM     26  H   UNL     1     -13.641   4.975  22.156  0.00  0.00    +0.210 HD
ENDBRANCH   9   4
BRANCH  10  12
ATOM     12  C   UNL     1     -17.040   4.743  25.835  0.00  0.00    +0.115 C 
BRANCH  12   6
ATOM      6  N   UNL     1     -16.151   3.942  26.666  0.00  0.00    -0.309 NA
ATOM     27  H   UNL     1     -16.210   2.966  26.378  0.00  0.00    +0.122 HD
BRANCH   6  15
ATOM     15  C   UNL     1     -16.503   4.064  28.074  0.00  0.00    +0.116 C 
BRANCH  15  17
ATOM      1  F   UNL     1     -14.259  -0.078  31.164  0.00  0.00    -0.205 F 
ATOM     17  C   UNL     1     -15.903   2.957  28.899  0.00  0.00    -0.033 A 
ATOM     20  C   UNL     1     -16.515   1.704  28.934  0.00  0.00    +0.008 A 
ATOM     21  C   UNL     1     -14.736   3.185  29.629  0.00  0.00    +0.008 A 
ATOM     22  C   UNL     1     -15.959   0.678  29.700  0.00  0.00    +0.038 A 
ATOM     23  C   UNL     1     -14.181   2.160  30.394  0.00  0.00    +0.038 A 
ATOM     24  C   UNL     1     -14.792   0.907  30.430  0.00  0.00    +0.123 A 
ENDBRANCH  15  17
ENDBRANCH   6  15
ENDBRANCH  12   6
ENDBRANCH  10  12
BRANCH  11  13
ATOM     13  C   UNL     1     -16.133   6.825  22.331  0.00  0.00    +0.130 C 
BRANCH  13  14
ATOM      5  O   UNL     1     -15.509   6.818  19.994  0.00  0.00    -0.276 OA
ATOM      7  N   UNL     1     -13.965   7.534  21.577  0.00  0.00    -0.313 N 
ATOM     14  C   UNL     1     -15.195   7.049  21.158  0.00  0.00    +0.216 C 
ATOM     28  H   UNL     1     -13.830   7.745  22.561  0.00  0.00    +0.149 HD
BRANCH   7  16
ATOM     16  C   UNL     1     -12.884   7.833  20.666  0.00  0.00    +0.067 C 
ATOM     18  C   UNL     1     -11.756   6.823  20.832  0.00  0.00    +0.027 C 
ATOM     19  C   UNL     1     -12.385   9.257  20.877  0.00  0.00    +0.027 C 
ENDBRANCH   7  16
ENDBRANCH  13  14
ENDBRANCH  11  13
TORSDOF 9
ENDMDL
MODEL 10
REMARK VINA RESULT:      -5.4      3.022      4.111
REMARK  Name = 40777837
REMARK  11 active torsions:
REMARK  status: ('A' for Active; 'I' for Inactive)
REMARK    1  A    between atoms: O_3  and  C_8
REMARK    2  A    between atoms: O_4  and  C_9
REMARK    3  A    between atoms: N_6  and  C_12
REMARK    4  A    between atoms: N_6  and  C_15
REMARK    5  A    between atoms: N_7  and  C_16
REMARK    6  A    between atoms: C_10  and  C_12
REMARK    7  A    between atoms: C_11  and  C_13
REMARK    8  A    between atoms: C_13  and  C_14
REMARK    9  A    between atoms: C_15  and  C_17
REMARK   10  A    between atoms: C_16  and  C_18
REMARK   11  A    between atoms: C_16  and  C_19
REMARK                            x       y       z     vdW  Elec       q    Type
REMARK                         _______ _______ _______ _____ _____    ______ ____
ROOT
ATOM      2  O   UNL     1      14.080   8.813  18.704  0.00  0.00    -0.366 OA
ATOM      8  C   UNL     1      12.331   7.294  19.242  0.00  0.00    +0.175 C 
ATOM      9  C   UNL     1      12.495   7.359  17.738  0.00  0.00    +0.175 C 
ATOM     10  C   UNL     1      13.644   7.893  19.732  0.00  0.00    +0.163 C 
ATOM     11  C   UNL     1      13.207   8.691  17.567  0.00  0.00    +0.158 C 
ENDROOT
BRANCH   8   3
ATOM      3  O   UNL     1      11.269   8.150  19.662  0.00  0.00    -0.387 OA
ATOM     25  H   UNL     1      11.623   9.054  19.702  0.00  0.00    +0.210 HD
ENDBRANCH   8   3
BRANCH   9   4
ATOM      4  O   UNL     1      11.269   7.322  17.039  0.00  0.00    -0.387 OA
ATOM     26  H   UNL     1      11.295   8.026  16.368  0.00  0.00    +0.210 HD
ENDBRANCH   9   4
BRANCH  10  12
ATOM     12  C   UNL     1      14.740   6.854  19.921  0.00  0.00    +0.115 C 
BRANCH  12   6
ATOM      6  N   UNL     1      16.048   7.406  19.595  0.00  0.00    -0.309 NA
ATOM     27  H   UNL     1      16.584   6.715  19.071  0.00  0.00    +0.122 HD
BRANCH   6  15
ATOM     15  C   UNL     1      16.771   7.782  20.802  0.00  0.00    +0.116 C 
BRANCH  15  17
ATOM      1  F   UNL     1      21.710   5.101  21.208  0.00  0.00    -0.205 F 
ATOM     17  C   UNL     1      18.091   7.066  20.910  0.00  0.00    -0.033 A 
ATOM     20  C   UNL     1      19.048   7.503  21.826  0.00  0.00    +0.008 A 
ATOM     21  C   UNL     1      18.356   5.965  20.096  0.00  0.00    +0.008 A 
ATOM     22  C   UNL     1      20.271   6.839  21.926  0.00  0.00    +0.038 A 
ATOM     23  C   UNL     1      19.578   5.302  20.196  0.00  0.00    +0.038 A 
ATOM     24  C   UNL     1      20.536   5.739  21.110  0.00  0.00    +0.123 A 
ENDBRANCH  15  17
ENDBRANCH   6  15
ENDBRANCH  12   6
ENDBRANCH  10  12
BRANCH  11  13
ATOM     13  C   UNL     1      14.019   8.780  16.287  0.00  0.00    +0.130 C 
BRANCH  13  14
ATOM      5  O   UNL     1      13.665  10.668  14.818  0.00  0.00    -0.276 OA
ATOM      7  N   UNL     1      15.069  10.910  16.655  0.00  0.00    -0.313 N 
ATOM     14  C   UNL     1      14.211  10.211  15.818  0.00  0.00    +0.216 C 
ATOM     28  H   UNL     1      15.420  10.451  17.490  0.00  0.00    +0.149 HD
BRANCH   7  16
ATOM     16  C   UNL     1      15.428  12.292  16.439  0.00  0.00    +0.067 C 
ATOM     18  C   UNL     1      16.714  12.386  15.629  0.00  0.00    +0.027 C 
ATOM     19  C   UNL     1      15.559  13.024  17.769  0.00  0.00    +0.027 C 
ENDBRANCH   7  16
ENDBRANCH  13  14
ENDBRANCH  11  13
TORSDOF 9
ENDMDL
