REMARK  Name = 11883361
REMARK  6 active torsions:
REMARK  status: ('A' for Active; 'I' for Inactive)
REMARK    1  A    between atoms: S_1  and  N_8
REMARK    2  A    between atoms: S_1  and  C_23
REMARK    3  A    between atoms: O_4  and  C_13
REMARK    4  A    between atoms: O_4  and  C_22
REMARK    5  A    between atoms: N_8  and  C_12
REMARK    6  A    between atoms: N_9  and  C_16
REMARK                            x       y       z     vdW  Elec       q    Type
REMARK                         _______ _______ _______ _____ _____    ______ ____
ROOT
ATOM      2  O   UNL     1      -1.600  -1.129  -0.567  0.00  0.00    -0.369 OA
ATOM      3  O   UNL     1       0.369   0.934  -1.719  0.00  0.00    -0.368 OA
ATOM     10  C   UNL     1       0.381   0.175  -0.492  0.00  0.00    +0.171 C 
ATOM     11  C   UNL     1      -1.056   0.082  -0.018  0.00  0.00    +0.191 C 
ATOM     12  C   UNL     1       0.763  -1.256  -0.777  0.00  0.00    +0.133 C 
ATOM     13  C   UNL     1      -1.685   1.308  -0.635  0.00  0.00    +0.235 C 
ATOM     14  C   UNL     1      -0.552  -1.879  -1.202  0.00  0.00    +0.183 C 
ATOM     15  C   UNL     1      -0.966   1.401  -1.962  0.00  0.00    +0.207 C 
ENDROOT
BRANCH  12   8
ATOM      8  N   UNL     1       1.249  -1.908   0.463  0.00  0.00    -0.182 NA
ATOM     33  H   UNL     1       0.765  -1.684   1.341  0.00  0.00    +0.148 HD
BRANCH   8   1
ATOM      1  S   UNL     1       2.774  -2.653   0.484  0.00  0.00    +0.059 S 
ATOM      5  O   UNL     1       2.856  -3.616  -0.598  0.00  0.00    -0.153 OA
ATOM      6  O   UNL     1       3.078  -3.055   1.844  0.00  0.00    -0.153 OA
BRANCH   1  23
ATOM     23  C   UNL     1       3.846  -1.303   0.094  0.00  0.00    +0.106 A 
ATOM     24  C   UNL     1       4.363  -0.532   1.121  0.00  0.00    +0.037 A 
ATOM     25  C   UNL     1       4.146  -1.042  -1.229  0.00  0.00    +0.029 A 
ATOM     26  C   UNL     1       5.216   0.544   0.828  0.00  0.00    -0.016 A 
ATOM     27  C   UNL     1       4.992   0.024  -1.538  0.00  0.00    +0.010 A 
ATOM     28  C   UNL     1       5.535   0.827  -0.522  0.00  0.00    -0.018 A 
ATOM     29  C   UNL     1       5.759   1.347   1.844  0.00  0.00    +0.008 A 
ATOM     30  C   UNL     1       6.388   1.904  -0.815  0.00  0.00    +0.008 A 
ATOM     31  C   UNL     1       6.604   2.413   1.535  0.00  0.00    +0.001 A 
ATOM     32  C   UNL     1       6.918   2.691   0.207  0.00  0.00    +0.001 A 
ENDBRANCH   1  23
ENDBRANCH   8   1
ENDBRANCH  12   8
BRANCH  13   4
ATOM      4  O   UNL     1      -3.082   1.204  -0.795  0.00  0.00    -0.442 OA
BRANCH   4  22
ATOM      7  O   UNL     1      -3.343   1.044   1.482  0.00  0.00    -0.226 OA
ATOM      9  N   UNL     1      -5.170   0.983   0.053  0.00  0.00    -0.278 N 
ATOM     22  C   UNL     1      -3.827   1.073   0.355  0.00  0.00    +0.401 C 
ATOM     34  H   UNL     1      -5.428   0.975  -0.929  0.00  0.00    +0.152 HD
BRANCH   9  16
ATOM     16  C   UNL     1      -6.209   0.837   1.048  0.00  0.00    +0.076 C 
ATOM     17  C   UNL     1      -7.502   1.525   0.599  0.00  0.00    +0.022 C 
ATOM     18  C   UNL     1      -6.451  -0.639   1.380  0.00  0.00    +0.022 C 
ATOM     19  C   UNL     1      -8.201   0.774  -0.535  0.00  0.00    +0.002 C 
ATOM     20  C   UNL     1      -7.152  -1.386   0.245  0.00  0.00    +0.002 C 
ATOM     21  C   UNL     1      -8.441  -0.689  -0.177  0.00  0.00    +0.000 C 
ENDBRANCH   9  16
ENDBRANCH   4  22
ENDBRANCH  13   4
TORSDOF 6
