REMARK  Name = 7165083
REMARK  7 active torsions:
REMARK  status: ('A' for Active; 'I' for Inactive)
REMARK    1  A    between atoms: O_4  and  C_25
REMARK    2  A    between atoms: O_4  and  C_26
REMARK    3  A    between atoms: O_5  and  C_24
REMARK    4  A    between atoms: N_9  and  C_18
REMARK    5  A    between atoms: C_15  and  C_17
REMARK    6  A    between atoms: C_17  and  C_19
REMARK    7  A    between atoms: C_19  and  C_24
REMARK                            x       y       z     vdW  Elec       q    Type
REMARK                         _______ _______ _______ _____ _____    ______ ____
ROOT
ATOM      1  O   UNL     1      -1.166  -0.490  -0.476  0.00  0.00    -0.273 OA
ATOM      2  O   UNL     1      -4.058  -0.533  -1.596  0.00  0.00    -0.276 OA
ATOM      3  O   UNL     1       1.027   3.661  -0.196  0.00  0.00    -0.252 OA
ATOM      7  N   UNL     1      -3.480   0.707   0.271  0.00  0.00    -0.288 N 
ATOM      8  N   UNL     1      -1.153   3.470   0.364  0.00  0.00    -0.293 N 
ATOM      9  N   UNL     1       0.021   1.538  -0.361  0.00  0.00    -0.193 N 
ATOM     10  C   UNL     1      -2.374   2.739   0.528  0.00  0.00    +0.105 C 
ATOM     11  C   UNL     1      -2.459   1.530  -0.379  0.00  0.00    +0.183 C 
ATOM     12  C   UNL     1      -2.580   2.146   1.921  0.00  0.00    +0.043 C 
ATOM     13  C   UNL     1      -3.657   1.097   1.671  0.00  0.00    +0.110 C 
ATOM     14  C   UNL     1      -1.152   0.742  -0.406  0.00  0.00    +0.250 C 
ATOM     15  C   UNL     1      -4.237  -0.230  -0.415  0.00  0.00    +0.217 C 
ATOM     16  C   UNL     1       0.044   2.926  -0.059  0.00  0.00    +0.313 C 
ATOM     32  H   UNL     1      -1.161   4.459   0.593  0.00  0.00    +0.151 HD
ENDROOT
BRANCH   9  18
ATOM     18  C   UNL     1       1.287   0.884  -0.625  0.00  0.00    +0.046 A 
ATOM     20  C   UNL     1       1.329  -0.213  -1.475  0.00  0.00    +0.027 A 
ATOM     21  C   UNL     1       2.442   1.365  -0.023  0.00  0.00    +0.027 A 
ATOM     22  C   UNL     1       2.548  -0.841  -1.728  0.00  0.00    +0.048 A 
ATOM     23  C   UNL     1       3.662   0.736  -0.276  0.00  0.00    +0.048 A 
ATOM     25  C   UNL     1       3.714  -0.367  -1.128  0.00  0.00    +0.129 A 
BRANCH  25   4
ATOM      4  O   UNL     1       4.904  -0.980  -1.375  0.00  0.00    -0.456 OA
BRANCH   4  26
ATOM     26  C   UNL     1       5.734  -1.233  -0.296  0.00  0.00    +0.128 A 
ATOM     27  C   UNL     1       5.194  -1.765   0.860  0.00  0.00    +0.046 A 
ATOM     28  C   UNL     1       7.083  -0.947  -0.403  0.00  0.00    +0.046 A 
ATOM     29  C   UNL     1       6.031  -2.019   1.947  0.00  0.00    +0.004 A 
ATOM     30  C   UNL     1       7.920  -1.201   0.683  0.00  0.00    +0.004 A 
ATOM     31  C   UNL     1       7.394  -1.738   1.858  0.00  0.00    +0.000 A 
ENDBRANCH   4  26
ENDBRANCH  25   4
ENDBRANCH   9  18
BRANCH  15  17
ATOM     17  C   UNL     1      -5.330  -0.893   0.385  0.00  0.00    +0.107 C 
BRANCH  17  19
ATOM     19  C   UNL     1      -6.073  -1.887  -0.485  0.00  0.00    +0.129 C 
BRANCH  19  24
ATOM      6  O   UNL     1      -7.490  -2.272   1.435  0.00  0.00    -0.251 OA
ATOM     24  C   UNL     1      -7.218  -2.519   0.267  0.00  0.00    +0.305 C 
BRANCH  24   5
ATOM      5  O   UNL     1      -7.906  -3.414  -0.486  0.00  0.00    -0.481 OA
ATOM     33  H   UNL     1      -8.642  -3.826   0.016  0.00  0.00    +0.295 HD
ENDBRANCH  24   5
ENDBRANCH  19  24
ENDBRANCH  17  19
ENDBRANCH  15  17
TORSDOF 7
