REMARK  Name = 45361536
REMARK  12 active torsions:
REMARK  status: ('A' for Active; 'I' for Inactive)
REMARK    1  A    between atoms: O_1  and  C_11
REMARK    2  A    between atoms: O_4  and  C_24
REMARK    3  A    between atoms: O_4  and  C_27
REMARK    4  A    between atoms: N_5  and  C_15
REMARK    5  A    between atoms: N_6  and  C_25
REMARK    6  A    between atoms: C_8  and  C_18
REMARK    7  A    between atoms: C_10  and  C_20
REMARK    8  A    between atoms: C_14  and  C_19
REMARK    9  A    between atoms: C_19  and  C_21
REMARK   10  A    between atoms: C_19  and  C_22
REMARK   11  A    between atoms: C_23  and  C_24
REMARK   12  A    between atoms: C_25  and  C_26
REMARK                            x       y       z     vdW  Elec       q    Type
REMARK                         _______ _______ _______ _____ _____    ______ ____
ROOT
ATOM      8  C   UNL     1       0.698   0.255   1.152  0.00  0.00    -0.027 C 
ATOM      9  C   UNL     1       0.447  -0.666  -0.089  0.00  0.00    +0.028 C 
ATOM     10  C   UNL     1      -1.048  -1.145  -0.136  0.00  0.00    +0.012 C 
ATOM     11  C   UNL     1       1.514  -1.794  -0.179  0.00  0.00    +0.122 C 
ATOM     12  C   UNL     1       2.145   0.799   1.106  0.00  0.00    +0.007 C 
ATOM     13  C   UNL     1      -0.262   1.464   1.085  0.00  0.00    +0.009 C 
ATOM     14  C   UNL     1       2.961  -1.251  -0.119  0.00  0.00    +0.029 C 
ATOM     15  C   UNL     1      -2.007   0.079  -0.127  0.00  0.00    +0.076 C 
ATOM     16  C   UNL     1       3.194  -0.304   1.058  0.00  0.00    +0.007 C 
ATOM     17  C   UNL     1      -1.728   1.061   1.010  0.00  0.00    +0.023 C 
ATOM     18  C   UNL     1       0.488  -0.489   2.495  0.00  0.00    +0.011 C 
ATOM     20  C   UNL     1      -1.372  -2.033  -1.349  0.00  0.00    +0.010 C 
ENDROOT
BRANCH  15   5
ATOM      3  O   UNL     1      -4.287   1.430  -1.286  0.00  0.00    -0.272 OA
ATOM      5  N   UNL     1      -3.394  -0.328  -0.053  0.00  0.00    -0.309 N 
ATOM     23  C   UNL     1      -4.419   0.391  -0.644  0.00  0.00    +0.251 C 
ATOM     37  H   UNL     1      -3.623  -1.142   0.511  0.00  0.00    +0.149 HD
BRANCH  23  24
ATOM     24  C   UNL     1      -5.765  -0.261  -0.409  0.00  0.00    +0.324 C 
BRANCH  24   4
ATOM      4  O   UNL     1      -6.793   0.480  -1.031  0.00  0.00    -0.483 OA
BRANCH   4  27
ATOM     27  C   UNL     1      -8.037   0.440  -0.447  0.00  0.00    +0.121 A 
ATOM     29  C   UNL     1      -8.440  -0.694   0.258  0.00  0.00    +0.045 A 
ATOM     30  C   UNL     1      -8.896   1.533  -0.560  0.00  0.00    +0.045 A 
ATOM     34  C   UNL     1      -9.702  -0.735   0.850  0.00  0.00    +0.004 A 
ATOM     35  C   UNL     1     -10.158   1.492   0.033  0.00  0.00    +0.004 A 
ATOM     36  C   UNL     1     -10.561   0.358   0.738  0.00  0.00    +0.000 A 
ENDBRANCH   4  27
ENDBRANCH  24   4
ENDBRANCH  23  24
ENDBRANCH  15   5
BRANCH  11   1
ATOM      1  O   UNL     1       1.385  -2.475  -1.428  0.00  0.00    -0.391 OA
ATOM     38  H   UNL     1       1.517  -1.827  -2.140  0.00  0.00    +0.210 HD
ENDBRANCH  11   1
BRANCH  14  19
ATOM     19  C   UNL     1       3.993  -2.385  -0.077  0.00  0.00    +0.077 C 
ATOM     21  C   UNL     1       3.757  -3.264   1.146  0.00  0.00    +0.017 C 
BRANCH  19  22
ATOM      2  O   UNL     1       6.215  -2.024   0.816  0.00  0.00    -0.276 OA
ATOM      6  N   UNL     1       5.650  -1.013  -1.193  0.00  0.00    -0.309 N 
ATOM     22  C   UNL     1       5.404  -1.804  -0.080  0.00  0.00    +0.217 C 
ATOM     39  H   UNL     1       4.945  -0.923  -1.917  0.00  0.00    +0.149 HD
BRANCH   6  25
ATOM     25  C   UNL     1       6.915  -0.353  -1.418  0.00  0.00    +0.159 C 
BRANCH  25  26
ATOM      7  N   UNL     1       7.692   1.107   0.362  0.00  0.00    -0.258 NA
ATOM     26  C   UNL     1       6.964   1.002  -0.772  0.00  0.00    +0.058 A 
ATOM     28  C   UNL     1       6.279   2.056  -1.354  0.00  0.00    +0.025 A 
ATOM     31  C   UNL     1       6.345   3.298  -0.732  0.00  0.00    +0.003 A 
ATOM     32  C   UNL     1       7.734   2.329   0.939  0.00  0.00    +0.111 A 
ATOM     33  C   UNL     1       7.085   3.445   0.437  0.00  0.00    +0.020 A 
ENDBRANCH  25  26
ENDBRANCH   6  25
ENDBRANCH  19  22
ENDBRANCH  14  19
TORSDOF 9
