MODEL 1
REMARK VINA RESULT:      -6.7      0.000      0.000
REMARK  Name = 51137121
REMARK  3 active torsions:
REMARK  status: ('A' for Active; 'I' for Inactive)
REMARK    1  A    between atoms: N_1  and  C_11
REMARK    2  A    between atoms: C_6  and  C_10
REMARK    3  A    between atoms: C_11  and  C_12
REMARK                            x       y       z     vdW  Elec       q    Type
REMARK                         _______ _______ _______ _____ _____    ______ ____
ROOT
ATOM      1  N   UNL     1      11.373   9.478  21.494  0.00  0.00    -0.295 NA
ATOM      6  C   UNL     1      13.218   9.071  20.105  0.00  0.00    +0.070 C 
ATOM      7  C   UNL     1      11.961   8.433  19.490  0.00  0.00    +0.028 C 
ATOM      8  C   UNL     1      12.832   9.367  21.561  0.00  0.00    +0.096 C 
ATOM      9  C   UNL     1      10.949   8.378  20.629  0.00  0.00    +0.085 C 
ENDROOT
BRANCH   6  10
ATOM      2  N   UNL     1      15.500   8.371  20.881  0.00  0.00    -0.342 N 
ATOM      3  N   UNL     1      14.735   7.335  19.070  0.00  0.00    -0.232 NA
ATOM     10  C   UNL     1      14.475   8.239  19.987  0.00  0.00    +0.113 A 
ATOM     13  C   UNL     1      16.489   7.495  20.516  0.00  0.00    +0.066 A 
ATOM     14  C   UNL     1      15.988   6.860  19.383  0.00  0.00    +0.089 A 
ATOM     15  C   UNL     1      17.741   7.211  21.064  0.00  0.00    +0.028 A 
ATOM     16  C   UNL     1      16.769   5.881  18.745  0.00  0.00    +0.030 A 
ATOM     17  C   UNL     1      18.504   6.234  20.416  0.00  0.00    +0.002 A 
ATOM     19  C   UNL     1      18.029   5.580  19.277  0.00  0.00    +0.002 A 
ATOM     21  H   UNL     1      15.528   9.002  21.672  0.00  0.00    +0.167 HD
ENDBRANCH   6  10
BRANCH   1  11
ATOM     11  C   UNL     1      10.750   9.420  22.808  0.00  0.00    +0.158 C 
BRANCH  11  12
ATOM      4  N   UNL     1      11.305  10.688  24.897  0.00  0.00    -0.347 N 
ATOM      5  N   UNL     1      10.805  11.923  23.120  0.00  0.00    -0.239 NA
ATOM     12  C   UNL     1      10.945  10.699  23.578  0.00  0.00    +0.121 A 
ATOM     18  C   UNL     1      11.400  11.989  25.306  0.00  0.00    +0.104 A 
ATOM     20  C   UNL     1      11.088  12.732  24.192  0.00  0.00    +0.130 A 
ATOM     22  H   UNL     1      11.472   9.870  25.467  0.00  0.00    +0.167 HD
ENDBRANCH  11  12
ENDBRANCH   1  11
TORSDOF 3
ENDMDL
MODEL 2
REMARK VINA RESULT:      -6.3     16.196     19.574
REMARK  Name = 51137121
REMARK  3 active torsions:
REMARK  status: ('A' for Active; 'I' for Inactive)
REMARK    1  A    between atoms: N_1  and  C_11
REMARK    2  A    between atoms: C_6  and  C_10
REMARK    3  A    between atoms: C_11  and  C_12
REMARK                            x       y       z     vdW  Elec       q    Type
REMARK                         _______ _______ _______ _____ _____    ______ ____
ROOT
ATOM      1  N   UNL     1      12.045   4.096   1.733  0.00  0.00    -0.295 NA
ATOM      6  C   UNL     1      10.443   5.122   3.105  0.00  0.00    +0.070 C 
ATOM      7  C   UNL     1      11.323   6.199   2.446  0.00  0.00    +0.028 C 
ATOM      8  C   UNL     1      11.220   3.813   2.910  0.00  0.00    +0.096 C 
ATOM      9  C   UNL     1      12.552   5.451   1.945  0.00  0.00    +0.085 C 
ENDROOT
BRANCH   6  10
ATOM      2  N   UNL     1      10.316   4.452   5.520  0.00  0.00    -0.342 N 
ATOM      3  N   UNL     1       9.551   6.482   5.039  0.00  0.00    -0.232 NA
ATOM     10  C   UNL     1      10.089   5.388   4.550  0.00  0.00    +0.113 A 
ATOM     13  C   UNL     1       9.895   4.977   6.715  0.00  0.00    +0.066 A 
ATOM     14  C   UNL     1       9.422   6.245   6.388  0.00  0.00    +0.089 A 
ATOM     15  C   UNL     1       9.888   4.467   8.014  0.00  0.00    +0.028 A 
ATOM     16  C   UNL     1       8.908   7.066   7.405  0.00  0.00    +0.030 A 
ATOM     17  C   UNL     1       9.374   5.299   9.014  0.00  0.00    +0.002 A 
ATOM     19  C   UNL     1       8.892   6.576   8.716  0.00  0.00    +0.002 A 
ATOM     21  H   UNL     1      10.721   3.535   5.385  0.00  0.00    +0.167 HD
ENDBRANCH   6  10
BRANCH   1  11
ATOM     11  C   UNL     1      13.116   3.125   1.559  0.00  0.00    +0.158 C 
BRANCH  11  12
ATOM      4  N   UNL     1      15.439   3.841   0.949  0.00  0.00    -0.347 N 
ATOM      5  N   UNL     1      13.961   3.834  -0.710  0.00  0.00    -0.239 NA
ATOM     12  C   UNL     1      14.147   3.600   0.570  0.00  0.00    +0.121 A 
ATOM     18  C   UNL     1      16.120   4.255  -0.161  0.00  0.00    +0.104 A 
ATOM     20  C   UNL     1      15.188   4.242  -1.172  0.00  0.00    +0.130 A 
ATOM     22  H   UNL     1      15.822   3.732   1.878  0.00  0.00    +0.167 HD
ENDBRANCH  11  12
ENDBRANCH   1  11
TORSDOF 3
ENDMDL
MODEL 3
REMARK VINA RESULT:      -6.3      1.924      3.019
REMARK  Name = 51137121
REMARK  3 active torsions:
REMARK  status: ('A' for Active; 'I' for Inactive)
REMARK    1  A    between atoms: N_1  and  C_11
REMARK    2  A    between atoms: C_6  and  C_10
REMARK    3  A    between atoms: C_11  and  C_12
REMARK                            x       y       z     vdW  Elec       q    Type
REMARK                         _______ _______ _______ _____ _____    ______ ____
ROOT
ATOM      1  N   UNL     1      13.763   8.074  20.779  0.00  0.00    -0.295 NA
ATOM      6  C   UNL     1      16.016   7.890  20.152  0.00  0.00    +0.070 C 
ATOM      7  C   UNL     1      15.142   7.087  19.173  0.00  0.00    +0.028 C 
ATOM      8  C   UNL     1      15.105   8.152  21.360  0.00  0.00    +0.096 C 
ATOM      9  C   UNL     1      13.806   6.917  19.885  0.00  0.00    +0.085 C 
ENDROOT
BRANCH   6  10
ATOM      2  N   UNL     1      17.932   7.492  21.724  0.00  0.00    -0.342 N 
ATOM      3  N   UNL     1      17.997   6.358  19.814  0.00  0.00    -0.232 NA
ATOM     10  C   UNL     1      17.320   7.226  20.531  0.00  0.00    +0.113 A 
ATOM     13  C   UNL     1      19.082   6.748  21.779  0.00  0.00    +0.066 A 
ATOM     14  C   UNL     1      19.100   6.049  20.575  0.00  0.00    +0.089 A 
ATOM     15  C   UNL     1      20.078   6.630  22.750  0.00  0.00    +0.028 A 
ATOM     16  C   UNL     1      20.168   5.176  20.307  0.00  0.00    +0.030 A 
ATOM     17  C   UNL     1      21.132   5.755  22.466  0.00  0.00    +0.002 A 
ATOM     19  C   UNL     1      21.178   5.041  21.267  0.00  0.00    +0.002 A 
ATOM     21  H   UNL     1      17.599   8.125  22.440  0.00  0.00    +0.167 HD
ENDBRANCH   6  10
BRANCH   1  11
ATOM     11  C   UNL     1      12.725   7.952  21.792  0.00  0.00    +0.158 C 
BRANCH  11  12
ATOM      4  N   UNL     1      11.328   9.463  23.222  0.00  0.00    -0.347 N 
ATOM      5  N   UNL     1      12.139  10.368  21.363  0.00  0.00    -0.239 NA
ATOM     12  C   UNL     1      12.078   9.277  22.094  0.00  0.00    +0.121 A 
ATOM     18  C   UNL     1      10.883  10.755  23.209  0.00  0.00    +0.104 A 
ATOM     20  C   UNL     1      11.396  11.294  22.053  0.00  0.00    +0.130 A 
ATOM     22  H   UNL     1      11.138   8.774  23.937  0.00  0.00    +0.167 HD
ENDBRANCH  11  12
ENDBRANCH   1  11
TORSDOF 3
ENDMDL
MODEL 4
REMARK VINA RESULT:      -6.2     26.705     29.376
REMARK  Name = 51137121
REMARK  3 active torsions:
REMARK  status: ('A' for Active; 'I' for Inactive)
REMARK    1  A    between atoms: N_1  and  C_11
REMARK    2  A    between atoms: C_6  and  C_10
REMARK    3  A    between atoms: C_11  and  C_12
REMARK                            x       y       z     vdW  Elec       q    Type
REMARK                         _______ _______ _______ _____ _____    ______ ____
ROOT
ATOM      1  N   UNL     1      -4.584 -11.407  17.528  0.00  0.00    -0.295 NA
ATOM      6  C   UNL     1      -6.317 -10.522  18.839  0.00  0.00    +0.070 C 
ATOM      7  C   UNL     1      -5.675 -11.714  19.570  0.00  0.00    +0.028 C 
ATOM      8  C   UNL     1      -5.830 -10.649  17.388  0.00  0.00    +0.096 C 
ATOM      9  C   UNL     1      -4.890 -12.459  18.498  0.00  0.00    +0.085 C 
ENDROOT
BRANCH   6  10
ATOM      2  N   UNL     1      -8.558  -9.666  18.101  0.00  0.00    -0.342 N 
ATOM      3  N   UNL     1      -8.579 -11.075  19.819  0.00  0.00    -0.232 NA
ATOM     10  C   UNL     1      -7.822 -10.445  18.950  0.00  0.00    +0.113 A 
ATOM     13  C   UNL     1      -9.878  -9.801  18.446  0.00  0.00    +0.066 A 
ATOM     14  C   UNL     1      -9.865 -10.685  19.521  0.00  0.00    +0.089 A 
ATOM     15  C   UNL     1     -11.046  -9.243  17.926  0.00  0.00    +0.028 A 
ATOM     16  C   UNL     1     -11.081 -11.045  20.126  0.00  0.00    +0.030 A 
ATOM     17  C   UNL     1     -12.247  -9.613  18.540  0.00  0.00    +0.002 A 
ATOM     19  C   UNL     1     -12.267 -10.497  19.620  0.00  0.00    +0.002 A 
ATOM     21  H   UNL     1      -8.196  -9.091  17.350  0.00  0.00    +0.167 HD
ENDBRANCH   6  10
BRANCH   1  11
ATOM     11  C   UNL     1      -4.115 -11.944  16.259  0.00  0.00    +0.158 C 
BRANCH  11  12
ATOM      4  N   UNL     1      -1.798 -11.024  16.511  0.00  0.00    -0.347 N 
ATOM      5  N   UNL     1      -2.785 -10.636  14.559  0.00  0.00    -0.239 NA
ATOM     12  C   UNL     1      -2.916 -11.194  15.742  0.00  0.00    +0.121 A 
ATOM     18  C   UNL     1      -0.897 -10.312  15.770  0.00  0.00    +0.104 A 
ATOM     20  C   UNL     1      -1.528 -10.085  14.570  0.00  0.00    +0.130 A 
ATOM     22  H   UNL     1      -1.660 -11.363  17.453  0.00  0.00    +0.167 HD
ENDBRANCH  11  12
ENDBRANCH   1  11
TORSDOF 3
ENDMDL
MODEL 5
REMARK VINA RESULT:      -6.2      2.896      8.113
REMARK  Name = 51137121
REMARK  3 active torsions:
REMARK  status: ('A' for Active; 'I' for Inactive)
REMARK    1  A    between atoms: N_1  and  C_11
REMARK    2  A    between atoms: C_6  and  C_10
REMARK    3  A    between atoms: C_11  and  C_12
REMARK                            x       y       z     vdW  Elec       q    Type
REMARK                         _______ _______ _______ _____ _____    ______ ____
ROOT
ATOM      1  N   UNL     1      18.517   7.179  21.411  0.00  0.00    -0.295 NA
ATOM      6  C   UNL     1      16.366   7.574  20.563  0.00  0.00    +0.070 C 
ATOM      7  C   UNL     1      17.137   8.903  20.650  0.00  0.00    +0.028 C 
ATOM      8  C   UNL     1      17.172   6.600  21.433  0.00  0.00    +0.096 C 
ATOM      9  C   UNL     1      18.311   8.618  21.579  0.00  0.00    +0.085 C 
ENDROOT
BRANCH   6  10
ATOM      2  N   UNL     1      14.079   6.580  20.841  0.00  0.00    -0.342 N 
ATOM      3  N   UNL     1      14.289   8.705  21.453  0.00  0.00    -0.232 NA
ATOM     10  C   UNL     1      14.911   7.657  20.963  0.00  0.00    +0.113 A 
ATOM     13  C   UNL     1      12.836   6.959  21.279  0.00  0.00    +0.066 A 
ATOM     14  C   UNL     1      12.994   8.290  21.656  0.00  0.00    +0.089 A 
ATOM     15  C   UNL     1      11.625   6.272  21.375  0.00  0.00    +0.028 A 
ATOM     16  C   UNL     1      11.887   8.993  22.161  0.00  0.00    +0.030 A 
ATOM     17  C   UNL     1      10.535   6.988  21.881  0.00  0.00    +0.002 A 
ATOM     19  C   UNL     1      10.662   8.324  22.267  0.00  0.00    +0.002 A 
ATOM     21  H   UNL     1      14.331   5.665  20.489  0.00  0.00    +0.167 HD
ENDBRANCH   6  10
BRANCH   1  11
ATOM     11  C   UNL     1      19.380   6.620  22.441  0.00  0.00    +0.158 C 
BRANCH  11  12
ATOM      4  N   UNL     1      20.827   5.931  20.515  0.00  0.00    -0.347 N 
ATOM      5  N   UNL     1      21.392   5.098  22.496  0.00  0.00    -0.239 NA
ATOM     12  C   UNL     1      20.543   5.869  21.851  0.00  0.00    +0.121 A 
ATOM     18  C   UNL     1      21.927   5.151  20.293  0.00  0.00    +0.104 A 
ATOM     20  C   UNL     1      22.258   4.648  21.530  0.00  0.00    +0.130 A 
ATOM     22  H   UNL     1      20.319   6.458  19.818  0.00  0.00    +0.167 HD
ENDBRANCH  11  12
ENDBRANCH   1  11
TORSDOF 3
ENDMDL
MODEL 6
REMARK VINA RESULT:      -6.2     26.631     28.090
REMARK  Name = 51137121
REMARK  3 active torsions:
REMARK  status: ('A' for Active; 'I' for Inactive)
REMARK    1  A    between atoms: N_1  and  C_11
REMARK    2  A    between atoms: C_6  and  C_10
REMARK    3  A    between atoms: C_11  and  C_12
REMARK                            x       y       z     vdW  Elec       q    Type
REMARK                         _______ _______ _______ _____ _____    ______ ____
ROOT
ATOM      1  N   UNL     1      -2.384 -11.318  12.570  0.00  0.00    -0.295 NA
ATOM      6  C   UNL     1      -2.647 -10.652  14.804  0.00  0.00    +0.070 C 
ATOM      7  C   UNL     1      -1.606 -11.781  14.723  0.00  0.00    +0.028 C 
ATOM      8  C   UNL     1      -3.374 -10.696  13.452  0.00  0.00    +0.096 C 
ATOM      9  C   UNL     1      -1.817 -12.416  13.354  0.00  0.00    +0.085 C 
ENDROOT
BRANCH   6  10
ATOM      2  N   UNL     1      -3.256 -11.443  17.106  0.00  0.00    -0.342 N 
ATOM      3  N   UNL     1      -4.777 -10.188  16.082  0.00  0.00    -0.232 NA
ATOM     10  C   UNL     1      -3.589 -10.740  15.982  0.00  0.00    +0.113 A 
ATOM     13  C   UNL     1      -4.299 -11.340  17.989  0.00  0.00    +0.066 A 
ATOM     14  C   UNL     1      -5.236 -10.551  17.327  0.00  0.00    +0.089 A 
ATOM     15  C   UNL     1      -4.498 -11.852  19.272  0.00  0.00    +0.028 A 
ATOM     16  C   UNL     1      -6.449 -10.246  17.967  0.00  0.00    +0.030 A 
ATOM     17  C   UNL     1      -5.711 -11.537  19.894  0.00  0.00    +0.002 A 
ATOM     19  C   UNL     1      -6.670 -10.750  19.255  0.00  0.00    +0.002 A 
ATOM     21  H   UNL     1      -2.394 -11.951  17.262  0.00  0.00    +0.167 HD
ENDBRANCH   6  10
BRANCH   1  11
ATOM     11  C   UNL     1      -2.966 -11.776  11.317  0.00  0.00    +0.158 C 
BRANCH  11  12
ATOM      4  N   UNL     1      -4.967 -10.707  10.251  0.00  0.00    -0.347 N 
ATOM      5  N   UNL     1      -3.077  -9.545  10.143  0.00  0.00    -0.239 NA
ATOM     12  C   UNL     1      -3.638 -10.656  10.569  0.00  0.00    +0.121 A 
ATOM     18  C   UNL     1      -5.273  -9.557   9.581  0.00  0.00    +0.104 A 
ATOM     20  C   UNL     1      -4.091  -8.856   9.527  0.00  0.00    +0.130 A 
ATOM     22  H   UNL     1      -5.607 -11.458  10.472  0.00  0.00    +0.167 HD
ENDBRANCH  11  12
ENDBRANCH   1  11
TORSDOF 3
ENDMDL
MODEL 7
REMARK VINA RESULT:      -6.1      2.682      4.794
REMARK  Name = 51137121
REMARK  3 active torsions:
REMARK  status: ('A' for Active; 'I' for Inactive)
REMARK    1  A    between atoms: N_1  and  C_11
REMARK    2  A    between atoms: C_6  and  C_10
REMARK    3  A    between atoms: C_11  and  C_12
REMARK                            x       y       z     vdW  Elec       q    Type
REMARK                         _______ _______ _______ _____ _____    ______ ____
ROOT
ATOM      1  N   UNL     1      15.173   7.930  20.917  0.00  0.00    -0.295 NA
ATOM      6  C   UNL     1      17.362   7.356  20.300  0.00  0.00    +0.070 C 
ATOM      7  C   UNL     1      16.369   6.380  19.645  0.00  0.00    +0.028 C 
ATOM      8  C   UNL     1      16.551   8.055  21.400  0.00  0.00    +0.096 C 
ATOM      9  C   UNL     1      15.070   6.559  20.420  0.00  0.00    +0.085 C 
ENDROOT
BRANCH   6  10
ATOM      2  N   UNL     1      19.278   5.746  20.109  0.00  0.00    -0.342 N 
ATOM      3  N   UNL     1      19.243   6.993  21.948  0.00  0.00    -0.232 NA
ATOM     10  C   UNL     1      18.630   6.718  20.819  0.00  0.00    +0.113 A 
ATOM     13  C   UNL     1      20.382   5.367  20.828  0.00  0.00    +0.066 A 
ATOM     14  C   UNL     1      20.338   6.160  21.972  0.00  0.00    +0.089 A 
ATOM     15  C   UNL     1      21.385   4.428  20.584  0.00  0.00    +0.028 A 
ATOM     16  C   UNL     1      21.346   6.020  22.940  0.00  0.00    +0.030 A 
ATOM     17  C   UNL     1      22.381   4.303  21.558  0.00  0.00    +0.002 A 
ATOM     19  C   UNL     1      22.363   5.084  22.716  0.00  0.00    +0.002 A 
ATOM     21  H   UNL     1      18.996   5.370  19.212  0.00  0.00    +0.167 HD
ENDBRANCH   6  10
BRANCH   1  11
ATOM     11  C   UNL     1      14.193   8.218  21.954  0.00  0.00    +0.158 C 
BRANCH  11  12
ATOM      4  N   UNL     1      11.820   7.414  21.981  0.00  0.00    -0.347 N 
ATOM      5  N   UNL     1      12.324   8.889  20.398  0.00  0.00    -0.239 NA
ATOM     12  C   UNL     1      12.787   8.199  21.417  0.00  0.00    +0.121 A 
ATOM     18  C   UNL     1      10.667   7.615  21.277  0.00  0.00    +0.104 A 
ATOM     20  C   UNL     1      11.002   8.530  20.306  0.00  0.00    +0.130 A 
ATOM     22  H   UNL     1      11.935   6.797  22.774  0.00  0.00    +0.167 HD
ENDBRANCH  11  12
ENDBRANCH   1  11
TORSDOF 3
ENDMDL
MODEL 8
REMARK VINA RESULT:      -6.0      3.699      6.546
REMARK  Name = 51137121
REMARK  3 active torsions:
REMARK  status: ('A' for Active; 'I' for Inactive)
REMARK    1  A    between atoms: N_1  and  C_11
REMARK    2  A    between atoms: C_6  and  C_10
REMARK    3  A    between atoms: C_11  and  C_12
REMARK                            x       y       z     vdW  Elec       q    Type
REMARK                         _______ _______ _______ _____ _____    ______ ____
ROOT
ATOM      1  N   UNL     1      16.884   7.034  20.646  0.00  0.00    -0.295 NA
ATOM      6  C   UNL     1      19.129   6.410  20.375  0.00  0.00    +0.070 C 
ATOM      7  C   UNL     1      18.269   5.717  19.305  0.00  0.00    +0.028 C 
ATOM      8  C   UNL     1      18.120   6.908  21.421  0.00  0.00    +0.096 C 
ATOM      9  C   UNL     1      16.837   5.834  19.811  0.00  0.00    +0.085 C 
ENDROOT
BRANCH   6  10
ATOM      2  N   UNL     1      20.823   4.564  20.242  0.00  0.00    -0.342 N 
ATOM      3  N   UNL     1      20.701   5.625  22.190  0.00  0.00    -0.232 NA
ATOM     10  C   UNL     1      20.218   5.549  20.971  0.00  0.00    +0.113 A 
ATOM     13  C   UNL     1      21.758   3.962  21.044  0.00  0.00    +0.066 A 
ATOM     14  C   UNL     1      21.663   4.643  22.255  0.00  0.00    +0.089 A 
ATOM     15  C   UNL     1      22.652   2.914  20.821  0.00  0.00    +0.028 A 
ATOM     16  C   UNL     1      22.502   4.267  23.318  0.00  0.00    +0.030 A 
ATOM     17  C   UNL     1      23.479   2.555  21.890  0.00  0.00    +0.002 A 
ATOM     19  C   UNL     1      23.407   3.218  23.117  0.00  0.00    +0.002 A 
ATOM     21  H   UNL     1      20.619   4.319  19.281  0.00  0.00    +0.167 HD
ENDBRANCH   6  10
BRANCH   1  11
ATOM     11  C   UNL     1      15.708   7.165  21.494  0.00  0.00    +0.158 C 
BRANCH  11  12
ATOM      4  N   UNL     1      13.399   6.407  20.883  0.00  0.00    -0.347 N 
ATOM      5  N   UNL     1      14.182   8.143  19.739  0.00  0.00    -0.239 NA
ATOM     12  C   UNL     1      14.442   7.268  20.685  0.00  0.00    +0.121 A 
ATOM     18  C   UNL     1      12.410   6.755  20.006  0.00  0.00    +0.104 A 
ATOM     20  C   UNL     1      12.916   7.828  19.311  0.00  0.00    +0.130 A 
ATOM     22  H   UNL     1      13.363   5.652  21.554  0.00  0.00    +0.167 HD
ENDBRANCH  11  12
ENDBRANCH   1  11
TORSDOF 3
ENDMDL
MODEL 9
REMARK VINA RESULT:      -5.9     28.864     31.362
REMARK  Name = 51137121
REMARK  3 active torsions:
REMARK  status: ('A' for Active; 'I' for Inactive)
REMARK    1  A    between atoms: N_1  and  C_11
REMARK    2  A    between atoms: C_6  and  C_10
REMARK    3  A    between atoms: C_11  and  C_12
REMARK                            x       y       z     vdW  Elec       q    Type
REMARK                         _______ _______ _______ _____ _____    ______ ____
ROOT
ATOM      1  N   UNL     1       2.376   4.602  -5.860  0.00  0.00    -0.295 NA
ATOM      6  C   UNL     1       1.377   2.936  -7.174  0.00  0.00    +0.070 C 
ATOM      7  C   UNL     1       0.884   4.319  -7.634  0.00  0.00    +0.028 C 
ATOM      8  C   UNL     1       2.006   3.186  -5.796  0.00  0.00    +0.096 C 
ATOM      9  C   UNL     1       1.233   5.263  -6.490  0.00  0.00    +0.085 C 
ENDROOT
BRANCH   6  10
ATOM      2  N   UNL     1      -0.864   2.010  -7.823  0.00  0.00    -0.342 N 
ATOM      3  N   UNL     1       0.379   0.708  -6.521  0.00  0.00    -0.232 NA
ATOM     10  C   UNL     1       0.316   1.859  -7.150  0.00  0.00    +0.113 A 
ATOM     13  C   UNL     1      -1.613   0.881  -7.613  0.00  0.00    +0.066 A 
ATOM     14  C   UNL     1      -0.815   0.084  -6.798  0.00  0.00    +0.089 A 
ATOM     15  C   UNL     1      -2.881   0.501  -8.055  0.00  0.00    +0.028 A 
ATOM     16  C   UNL     1      -1.296  -1.171  -6.388  0.00  0.00    +0.030 A 
ATOM     17  C   UNL     1      -3.343  -0.752  -7.637  0.00  0.00    +0.002 A 
ATOM     19  C   UNL     1      -2.566  -1.574  -6.819  0.00  0.00    +0.002 A 
ATOM     21  H   UNL     1      -1.139   2.811  -8.377  0.00  0.00    +0.167 HD
ENDBRANCH   6  10
BRANCH   1  11
ATOM     11  C   UNL     1       2.681   5.156  -4.549  0.00  0.00    +0.158 C 
BRANCH  11  12
ATOM      4  N   UNL     1       5.127   5.053  -5.086  0.00  0.00    -0.347 N 
ATOM      5  N   UNL     1       4.476   6.796  -3.874  0.00  0.00    -0.239 NA
ATOM     12  C   UNL     1       4.084   5.698  -4.482  0.00  0.00    +0.121 A 
ATOM     18  C   UNL     1       6.256   5.785  -4.848  0.00  0.00    +0.104 A 
ATOM     20  C   UNL     1       5.829   6.856  -4.098  0.00  0.00    +0.130 A 
ATOM     22  H   UNL     1       5.074   4.192  -5.614  0.00  0.00    +0.167 HD
ENDBRANCH  11  12
ENDBRANCH   1  11
TORSDOF 3
ENDMDL
MODEL 10
REMARK VINA RESULT:      -5.8     18.161     21.974
REMARK  Name = 51137121
REMARK  3 active torsions:
REMARK  status: ('A' for Active; 'I' for Inactive)
REMARK    1  A    between atoms: N_1  and  C_11
REMARK    2  A    between atoms: C_6  and  C_10
REMARK    3  A    between atoms: C_11  and  C_12
REMARK                            x       y       z     vdW  Elec       q    Type
REMARK                         _______ _______ _______ _____ _____    ______ ____
ROOT
ATOM      1  N   UNL     1      -0.748  11.503  35.927  0.00  0.00    -0.295 NA
ATOM      6  C   UNL     1      -1.585   9.378  36.462  0.00  0.00    +0.070 C 
ATOM      7  C   UNL     1      -2.672  10.438  36.713  0.00  0.00    +0.028 C 
ATOM      8  C   UNL     1      -0.281  10.180  36.345  0.00  0.00    +0.096 C 
ATOM      9  C   UNL     1      -1.926  11.766  36.753  0.00  0.00    +0.085 C 
ENDROOT
BRANCH   6  10
ATOM      2  N   UNL     1      -0.408   7.487  37.617  0.00  0.00    -0.342 N 
ATOM      3  N   UNL     1      -2.440   7.969  38.377  0.00  0.00    -0.232 NA
ATOM     10  C   UNL     1      -1.513   8.283  37.501  0.00  0.00    +0.113 A 
ATOM     13  C   UNL     1      -0.638   6.598  38.636  0.00  0.00    +0.066 A 
ATOM     14  C   UNL     1      -1.913   6.920  39.094  0.00  0.00    +0.089 A 
ATOM     15  C   UNL     1       0.137   5.572  39.179  0.00  0.00    +0.028 A 
ATOM     16  C   UNL     1      -2.463   6.184  40.157  0.00  0.00    +0.030 A 
ATOM     17  C   UNL     1      -0.428   4.851  40.237  0.00  0.00    +0.002 A 
ATOM     19  C   UNL     1      -1.704   5.150  40.718  0.00  0.00    +0.002 A 
ATOM     21  H   UNL     1       0.431   7.540  37.054  0.00  0.00    +0.167 HD
ENDBRANCH   6  10
BRANCH   1  11
ATOM     11  C   UNL     1       0.275  12.527  36.079  0.00  0.00    +0.158 C 
BRANCH  11  12
ATOM      4  N   UNL     1       0.667  12.409  33.607  0.00  0.00    -0.347 N 
ATOM      5  N   UNL     1       0.992  14.397  34.544  0.00  0.00    -0.239 NA
ATOM     12  C   UNL     1       0.650  13.146  34.759  0.00  0.00    +0.121 A 
ATOM     18  C   UNL     1       1.045  13.244  32.593  0.00  0.00    +0.104 A 
ATOM     20  C   UNL     1       1.239  14.465  33.195  0.00  0.00    +0.130 A 
ATOM     22  H   UNL     1       0.442  11.428  33.519  0.00  0.00    +0.167 HD
ENDBRANCH  11  12
ENDBRANCH   1  11
TORSDOF 3
ENDMDL
