REMARK  Name = 45783320
REMARK  7 active torsions:
REMARK  status: ('A' for Active; 'I' for Inactive)
REMARK    1  A    between atoms: O_3  and  C_27
REMARK    2  A    between atoms: O_3  and  C_34
REMARK    3  A    between atoms: N_4  and  C_15
REMARK    4  A    between atoms: C_10  and  C_18
REMARK    5  A    between atoms: C_14  and  C_23
REMARK    6  A    between atoms: C_15  and  C_21
REMARK    7  A    between atoms: C_24  and  C_26
REMARK                            x       y       z     vdW  Elec       q    Type
REMARK                         _______ _______ _______ _____ _____    ______ ____
ROOT
ATOM      1  O   UNL     1      -3.422   2.085   1.144  0.00  0.00    -0.336 OA
ATOM      6  N   UNL     1      -1.771   0.593   0.885  0.00  0.00    -0.190 NA
ATOM      7  N   UNL     1      -2.257   2.829   0.913  0.00  0.00    -0.056 NA
ATOM     18  C   UNL     1      -3.047   0.780   1.111  0.00  0.00    +0.245 A 
ATOM     24  C   UNL     1      -1.328   1.879   0.770  0.00  0.00    +0.202 A 
ENDROOT
BRANCH  24  26
ATOM      5  N   UNL     1       3.216   0.449  -0.012  0.00  0.00    -0.315 N 
ATOM      8  N   UNL     1       2.738   2.768   0.011  0.00  0.00    -0.240 NA
ATOM     14  C   UNL     1       5.108  -1.741  -0.234  0.00  0.00    +0.078 C 
ATOM     16  C   UNL     1       4.911  -0.729  -1.360  0.00  0.00    +0.031 C 
ATOM     17  C   UNL     1       3.872  -1.827   0.658  0.00  0.00    +0.031 C 
ATOM     19  C   UNL     1       4.386   0.625  -0.877  0.00  0.00    +0.107 C 
ATOM     20  C   UNL     1       3.384  -0.458   1.130  0.00  0.00    +0.107 C 
ATOM     22  C   UNL     1       2.296   1.496   0.126  0.00  0.00    +0.122 A 
ATOM     25  C   UNL     1       0.977   1.152   0.374  0.00  0.00    +0.055 A 
ATOM     26  C   UNL     1       0.052   2.180   0.514  0.00  0.00    +0.027 A 
ATOM     29  C   UNL     1       0.468   3.502   0.403  0.00  0.00    +0.031 A 
ATOM     31  C   UNL     1       1.810   3.741   0.154  0.00  0.00    +0.113 A 
BRANCH  14  23
ATOM      2  O   UNL     1       7.028  -0.441   0.354  0.00  0.00    -0.276 OA
ATOM      9  N   UNL     1       6.582  -2.339   1.576  0.00  0.00    -0.329 N 
ATOM     23  C   UNL     1       6.327  -1.424   0.582  0.00  0.00    +0.214 C 
ATOM     35  H   UNL     1       7.380  -2.225   2.192  0.00  0.00    +0.145 HD
ATOM     36  H   UNL     1       6.029  -3.179   1.709  0.00  0.00    +0.145 HD
ENDBRANCH  14  23
ENDBRANCH  24  26
BRANCH  18  10
ATOM      4  N   UNL     1      -3.855  -1.534   0.681  0.00  0.00    -0.287 NA
ATOM     10  C   UNL     1      -4.142  -0.242   1.335  0.00  0.00    +0.146 C 
ATOM     11  C   UNL     1      -4.334  -0.591   2.823  0.00  0.00    +0.030 C 
ATOM     12  C   UNL     1      -4.197  -2.105   2.897  0.00  0.00    +0.017 C 
ATOM     13  C   UNL     1      -4.515  -2.562   1.488  0.00  0.00    +0.085 C 
BRANCH   4  15
ATOM     15  C   UNL     1      -4.276  -1.578  -0.713  0.00  0.00    +0.124 C 
BRANCH  15  21
ATOM     21  C   UNL     1      -3.289  -0.889  -1.618  0.00  0.00    +0.008 A 
ATOM     27  C   UNL     1      -1.961  -1.310  -1.678  0.00  0.00    +0.124 A 
ATOM     28  C   UNL     1      -3.717   0.183  -2.402  0.00  0.00    +0.008 A 
ATOM     30  C   UNL     1      -1.060  -0.660  -2.522  0.00  0.00    +0.046 A 
ATOM     32  C   UNL     1      -2.816   0.833  -3.246  0.00  0.00    +0.001 A 
ATOM     33  C   UNL     1      -1.488   0.411  -3.305  0.00  0.00    +0.004 A 
BRANCH  27   3
ATOM      3  O   UNL     1      -1.527  -2.355  -0.919  0.00  0.00    -0.495 OA
ATOM     34  C   UNL     1      -0.153  -2.719  -1.043  0.00  0.00    +0.277 C 
ENDBRANCH  27   3
ENDBRANCH  15  21
ENDBRANCH   4  15
ENDBRANCH  18  10
TORSDOF 6
