REMARK  Name = 11912808
REMARK  7 active torsions:
REMARK  status: ('A' for Active; 'I' for Inactive)
REMARK    1  A    between atoms: O_3  and  C_14
REMARK    2  A    between atoms: O_3  and  C_18
REMARK    3  A    between atoms: O_4  and  C_19
REMARK    4  A    between atoms: O_4  and  C_29
REMARK    5  A    between atoms: N_8  and  C_13
REMARK    6  A    between atoms: C_18  and  C_19
REMARK    7  A    between atoms: C_20  and  C_23
REMARK                            x       y       z     vdW  Elec       q    Type
REMARK                         _______ _______ _______ _____ _____    ______ ____
ROOT
ATOM      8  N   UNL     1       0.556  -1.856   0.759  0.00  0.00    -0.306 N 
ATOM      9  N   UNL     1      -1.614  -1.120   0.253  0.00  0.00    -0.214 NA
ATOM     10  N   UNL     1      -0.945  -3.394  -0.183  0.00  0.00    -0.223 NA
ATOM     17  C   UNL     1      -0.705  -2.132   0.261  0.00  0.00    +0.216 A 
ATOM     20  C   UNL     1      -2.833  -1.424  -0.238  0.00  0.00    +0.076 A 
ATOM     21  C   UNL     1      -2.185  -3.628  -0.662  0.00  0.00    +0.116 A 
ATOM     22  C   UNL     1      -3.179  -2.672  -0.714  0.00  0.00    +0.048 A 
ATOM     31  H   UNL     1       1.241  -2.602   0.712  0.00  0.00    +0.149 HD
ENDROOT
BRANCH  20  23
ATOM      6  O   UNL     1      -7.372   0.400   0.000  0.00  0.00    -0.453 OA
ATOM      7  O   UNL     1      -6.586   2.667  -0.227  0.00  0.00    -0.453 OA
ATOM     23  C   UNL     1      -3.782  -0.336  -0.238  0.00  0.00    +0.004 A 
ATOM     24  C   UNL     1      -5.149  -0.603  -0.107  0.00  0.00    +0.059 A 
ATOM     25  C   UNL     1      -3.326   0.990  -0.371  0.00  0.00    +0.014 A 
ATOM     26  C   UNL     1      -6.017   0.469  -0.114  0.00  0.00    +0.167 A 
ATOM     27  C   UNL     1      -5.569   1.763  -0.243  0.00  0.00    +0.166 A 
ATOM     28  C   UNL     1      -4.227   2.057  -0.374  0.00  0.00    +0.050 A 
ATOM     30  C   UNL     1      -7.725   1.796  -0.072  0.00  0.00    +0.466 C 
ENDBRANCH  20  23
BRANCH   8  13
ATOM      1  O   UNL     1       3.331  -0.539   1.240  0.00  0.00    -0.369 OA
ATOM      2  O   UNL     1       1.369   1.710   0.530  0.00  0.00    -0.369 OA
ATOM     11  C   UNL     1       1.421   0.324   0.131  0.00  0.00    +0.172 C 
ATOM     12  C   UNL     1       2.886  -0.032  -0.029  0.00  0.00    +0.180 C 
ATOM     13  C   UNL     1       0.952  -0.559   1.264  0.00  0.00    +0.130 C 
ATOM     14  C   UNL     1       3.514   1.303  -0.349  0.00  0.00    +0.176 C 
ATOM     15  C   UNL     1       2.203  -0.684   2.116  0.00  0.00    +0.185 C 
ATOM     16  C   UNL     1       2.697   2.251   0.500  0.00  0.00    +0.194 C 
BRANCH  14   3
ATOM      3  O   UNL     1       4.888   1.367  -0.043  0.00  0.00    -0.360 OA
BRANCH   3  18
ATOM     18  C   UNL     1       5.655   0.472  -0.845  0.00  0.00    +0.280 C 
BRANCH  18  19
ATOM      5  O   UNL     1       7.544   1.362   0.388  0.00  0.00    -0.248 OA
ATOM     19  C   UNL     1       7.106   0.597  -0.462  0.00  0.00    +0.333 C 
BRANCH  19   4
ATOM      4  O   UNL     1       7.840  -0.276  -1.212  0.00  0.00    -0.466 OA
ATOM     29  C   UNL     1       9.249  -0.273  -0.957  0.00  0.00    +0.280 C 
ENDBRANCH  19   4
ENDBRANCH  18  19
ENDBRANCH   3  18
ENDBRANCH  14   3
ENDBRANCH   8  13
TORSDOF 6
