MODEL 1
REMARK VINA RESULT:      -6.7      0.000      0.000
REMARK  Name = 7144173
REMARK  3 active torsions:
REMARK  status: ('A' for Active; 'I' for Inactive)
REMARK    1  A    between atoms: S_1  and  N_6
REMARK    2  A    between atoms: S_1  and  C_20
REMARK    3  A    between atoms: C_15  and  C_19
REMARK                            x       y       z     vdW  Elec       q    Type
REMARK                         _______ _______ _______ _____ _____    ______ ____
ROOT
ATOM      5  O   UNL     1       7.226   9.221   4.650  0.00  0.00    -0.268 OA
ATOM      6  N   UNL     1      11.326   6.781   5.952  0.00  0.00    -0.180 NA
ATOM      7  N   UNL     1       8.647   7.374   4.412  0.00  0.00    -0.311 N 
ATOM      8  C   UNL     1       9.088   5.767   6.362  0.00  0.00    +0.025 C 
ATOM      9  C   UNL     1      10.204   5.410   4.203  0.00  0.00    +0.053 C 
ATOM     10  C   UNL     1       9.339   4.741   5.269  0.00  0.00    +0.017 C 
ATOM     11  C   UNL     1      10.412   6.229   6.990  0.00  0.00    +0.114 C 
ATOM     12  C   UNL     1      11.550   5.828   4.826  0.00  0.00    +0.118 C 
ATOM     13  C   UNL     1       8.292   6.928   5.766  0.00  0.00    +0.130 C 
ATOM     14  C   UNL     1       9.497   6.619   3.576  0.00  0.00    +0.035 A 
ATOM     15  C   UNL     1       9.673   6.989   2.280  0.00  0.00    +0.009 A 
ATOM     16  C   UNL     1       7.988   8.535   3.969  0.00  0.00    +0.252 A 
ATOM     17  C   UNL     1       9.013   8.188   1.792  0.00  0.00    +0.016 A 
ATOM     18  C   UNL     1       8.231   8.938   2.566  0.00  0.00    +0.071 A 
ENDROOT
BRANCH  15  19
ATOM      2  S   UNL     1      12.168   6.609   1.273  0.00  0.00    -0.088 S 
ATOM     19  C   UNL     1      10.513   6.221   1.401  0.00  0.00    +0.022 A 
ATOM     21  C   UNL     1      10.168   5.159   0.600  0.00  0.00    +0.024 A 
ATOM     22  C   UNL     1      11.279   4.638  -0.145  0.00  0.00    -0.010 A 
ATOM     23  C   UNL     1      12.451   5.348   0.131  0.00  0.00    +0.020 A 
ATOM     24  C   UNL     1      11.346   3.566  -1.068  0.00  0.00    +0.009 A 
ATOM     25  C   UNL     1      13.675   5.017  -0.485  0.00  0.00    +0.015 A 
ATOM     26  C   UNL     1      12.558   3.236  -1.680  0.00  0.00    +0.001 A 
ATOM     27  C   UNL     1      13.709   3.955  -1.390  0.00  0.00    +0.001 A 
ENDBRANCH  15  19
BRANCH   6   1
ATOM      1  S   UNL     1      12.723   7.575   6.540  0.00  0.00    +0.029 S 
ATOM      3  O   UNL     1      13.489   6.643   7.338  0.00  0.00    -0.158 OA
ATOM      4  O   UNL     1      12.342   8.876   7.047  0.00  0.00    -0.158 OA
ATOM     20  C   UNL     1      13.580   7.817   5.005  0.00  0.00    +0.215 C 
ENDBRANCH   6   1
TORSDOF 2
ENDMDL
MODEL 2
REMARK VINA RESULT:      -6.4     25.095     27.317
REMARK  Name = 7144173
REMARK  3 active torsions:
REMARK  status: ('A' for Active; 'I' for Inactive)
REMARK    1  A    between atoms: S_1  and  N_6
REMARK    2  A    between atoms: S_1  and  C_20
REMARK    3  A    between atoms: C_15  and  C_19
REMARK                            x       y       z     vdW  Elec       q    Type
REMARK                         _______ _______ _______ _____ _____    ______ ____
ROOT
ATOM      5  O   UNL     1      -7.597 -14.924  17.422  0.00  0.00    -0.268 OA
ATOM      6  N   UNL     1      -7.744 -10.003  16.958  0.00  0.00    -0.180 NA
ATOM      7  N   UNL     1      -6.519 -12.901  16.937  0.00  0.00    -0.311 N 
ATOM      8  C   UNL     1      -6.300 -11.048  18.697  0.00  0.00    +0.025 C 
ATOM      9  C   UNL     1      -5.412 -10.700  16.434  0.00  0.00    +0.053 C 
ATOM     10  C   UNL     1      -5.056 -10.656  17.918  0.00  0.00    +0.017 C 
ATOM     11  C   UNL     1      -7.451 -10.069  18.416  0.00  0.00    +0.114 C 
ATOM     12  C   UNL     1      -6.533  -9.681  16.148  0.00  0.00    +0.118 C 
ATOM     13  C   UNL     1      -6.665 -12.489  18.340  0.00  0.00    +0.130 C 
ATOM     14  C   UNL     1      -5.833 -12.109  15.994  0.00  0.00    +0.035 A 
ATOM     15  C   UNL     1      -5.589 -12.599  14.749  0.00  0.00    +0.009 A 
ATOM     16  C   UNL     1      -7.005 -14.186  16.634  0.00  0.00    +0.252 A 
ATOM     17  C   UNL     1      -6.083 -13.919  14.401  0.00  0.00    +0.016 A 
ATOM     18  C   UNL     1      -6.762 -14.677  15.260  0.00  0.00    +0.071 A 
ENDROOT
BRANCH  15  19
ATOM      2  S   UNL     1      -5.728 -10.987  12.566  0.00  0.00    -0.088 S 
ATOM     19  C   UNL     1      -4.868 -11.820  13.778  0.00  0.00    +0.022 A 
ATOM     21  C   UNL     1      -3.510 -11.634  13.670  0.00  0.00    +0.024 A 
ATOM     22  C   UNL     1      -3.150 -10.787  12.568  0.00  0.00    -0.010 A 
ATOM     23  C   UNL     1      -4.282 -10.356  11.869  0.00  0.00    +0.020 A 
ATOM     24  C   UNL     1      -1.880 -10.352  12.118  0.00  0.00    +0.009 A 
ATOM     25  C   UNL     1      -4.177  -9.512  10.745  0.00  0.00    +0.015 A 
ATOM     26  C   UNL     1      -1.773  -9.516  11.004  0.00  0.00    +0.001 A 
ATOM     27  C   UNL     1      -2.911  -9.102  10.327  0.00  0.00    +0.001 A 
ENDBRANCH  15  19
BRANCH   6   1
ATOM      1  S   UNL     1      -9.170  -9.161  16.525  0.00  0.00    +0.029 S 
ATOM      3  O   UNL     1      -9.185  -8.976  15.091  0.00  0.00    -0.158 OA
ATOM      4  O   UNL     1      -9.352  -8.052  17.437  0.00  0.00    -0.158 OA
ATOM     20  C   UNL     1     -10.369 -10.405  16.930  0.00  0.00    +0.215 C 
ENDBRANCH   6   1
TORSDOF 2
ENDMDL
MODEL 3
REMARK VINA RESULT:      -6.3      1.999      2.379
REMARK  Name = 7144173
REMARK  3 active torsions:
REMARK  status: ('A' for Active; 'I' for Inactive)
REMARK    1  A    between atoms: S_1  and  N_6
REMARK    2  A    between atoms: S_1  and  C_20
REMARK    3  A    between atoms: C_15  and  C_19
REMARK                            x       y       z     vdW  Elec       q    Type
REMARK                         _______ _______ _______ _____ _____    ______ ____
ROOT
ATOM      5  O   UNL     1       6.620   9.605   4.192  0.00  0.00    -0.268 OA
ATOM      6  N   UNL     1      10.827   8.928   6.702  0.00  0.00    -0.180 NA
ATOM      7  N   UNL     1       8.391   8.215   4.842  0.00  0.00    -0.311 N 
ATOM      8  C   UNL     1       8.791   7.627   7.307  0.00  0.00    +0.025 C 
ATOM      9  C   UNL     1      10.309   6.767   5.579  0.00  0.00    +0.053 C 
ATOM     10  C   UNL     1       9.420   6.360   6.751  0.00  0.00    +0.017 C 
ATOM     11  C   UNL     1       9.872   8.603   7.797  0.00  0.00    +0.114 C 
ATOM     12  C   UNL     1      11.422   7.707   6.084  0.00  0.00    +0.118 C 
ATOM     13  C   UNL     1       7.900   8.243   6.228  0.00  0.00    +0.130 C 
ATOM     14  C   UNL     1       9.501   7.435   4.459  0.00  0.00    +0.035 A 
ATOM     15  C   UNL     1       9.823   7.318   3.143  0.00  0.00    +0.009 A 
ATOM     16  C   UNL     1       7.606   8.922   3.913  0.00  0.00    +0.252 A 
ATOM     17  C   UNL     1       9.038   8.041   2.157  0.00  0.00    +0.016 A 
ATOM     18  C   UNL     1       8.004   8.811   2.493  0.00  0.00    +0.071 A 
ENDROOT
BRANCH  15  19
ATOM      2  S   UNL     1      12.458   7.232   2.485  0.00  0.00    -0.088 S 
ATOM     19  C   UNL     1      10.935   6.507   2.725  0.00  0.00    +0.022 A 
ATOM     21  C   UNL     1      10.960   5.156   2.473  0.00  0.00    +0.024 A 
ATOM     22  C   UNL     1      12.256   4.688   2.072  0.00  0.00    -0.010 A 
ATOM     23  C   UNL     1      13.184   5.734   2.036  0.00  0.00    +0.020 A 
ATOM     24  C   UNL     1      12.699   3.388   1.728  0.00  0.00    +0.009 A 
ATOM     25  C   UNL     1      14.526   5.516   1.668  0.00  0.00    +0.015 A 
ATOM     26  C   UNL     1      14.030   3.168   1.363  0.00  0.00    +0.001 A 
ATOM     27  C   UNL     1      14.932   4.222   1.334  0.00  0.00    +0.001 A 
ENDBRANCH  15  19
BRANCH   6   1
ATOM      1  S   UNL     1      11.921  10.202   7.025  0.00  0.00    +0.029 S 
ATOM      3  O   UNL     1      11.673  11.280   6.092  0.00  0.00    -0.158 OA
ATOM      4  O   UNL     1      13.244   9.647   7.209  0.00  0.00    -0.158 OA
ATOM     20  C   UNL     1      11.312  10.704   8.615  0.00  0.00    +0.215 C 
ENDBRANCH   6   1
TORSDOF 2
ENDMDL
MODEL 4
REMARK VINA RESULT:      -6.3     24.866     27.055
REMARK  Name = 7144173
REMARK  3 active torsions:
REMARK  status: ('A' for Active; 'I' for Inactive)
REMARK    1  A    between atoms: S_1  and  N_6
REMARK    2  A    between atoms: S_1  and  C_20
REMARK    3  A    between atoms: C_15  and  C_19
REMARK                            x       y       z     vdW  Elec       q    Type
REMARK                         _______ _______ _______ _____ _____    ______ ____
ROOT
ATOM      5  O   UNL     1      -5.366 -15.457  17.125  0.00  0.00    -0.268 OA
ATOM      6  N   UNL     1      -6.626 -10.679  17.333  0.00  0.00    -0.180 NA
ATOM      7  N   UNL     1      -4.976 -13.229  16.511  0.00  0.00    -0.311 N 
ATOM      8  C   UNL     1      -4.444 -11.434  18.265  0.00  0.00    +0.025 C 
ATOM      9  C   UNL     1      -4.601 -10.822  15.892  0.00  0.00    +0.053 C 
ATOM     10  C   UNL     1      -3.706 -10.749  17.126  0.00  0.00    +0.017 C 
ATOM     11  C   UNL     1      -5.777 -10.728  18.555  0.00  0.00    +0.114 C 
ATOM     12  C   UNL     1      -5.917 -10.069  16.170  0.00  0.00    +0.118 C 
ATOM     13  C   UNL     1      -4.635 -12.908  17.904  0.00  0.00    +0.130 C 
ATOM     14  C   UNL     1      -4.881 -12.273  15.480  0.00  0.00    +0.035 A 
ATOM     15  C   UNL     1      -5.057 -12.654  14.186  0.00  0.00    +0.009 A 
ATOM     16  C   UNL     1      -5.285 -14.579  16.265  0.00  0.00    +0.252 A 
ATOM     17  C   UNL     1      -5.385 -14.039  13.896  0.00  0.00    +0.016 A 
ATOM     18  C   UNL     1      -5.512 -14.958  14.853  0.00  0.00    +0.071 A 
ENDROOT
BRANCH  15  19
ATOM      2  S   UNL     1      -6.317 -10.838  12.606  0.00  0.00    -0.088 S 
ATOM     19  C   UNL     1      -4.940 -11.702  13.114  0.00  0.00    +0.022 A 
ATOM     21  C   UNL     1      -3.821 -11.362  12.392  0.00  0.00    +0.024 A 
ATOM     22  C   UNL     1      -4.084 -10.367  11.392  0.00  0.00    -0.010 A 
ATOM     23  C   UNL     1      -5.429  -9.985  11.399  0.00  0.00    +0.020 A 
ATOM     24  C   UNL     1      -3.219  -9.754  10.453  0.00  0.00    +0.009 A 
ATOM     25  C   UNL     1      -5.925  -9.018  10.502  0.00  0.00    +0.015 A 
ATOM     26  C   UNL     1      -3.708  -8.794   9.563  0.00  0.00    +0.001 A 
ATOM     27  C   UNL     1      -5.047  -8.432   9.589  0.00  0.00    +0.001 A 
ENDBRANCH  15  19
BRANCH   6   1
ATOM      1  S   UNL     1      -8.240 -10.162  17.571  0.00  0.00    +0.029 S 
ATOM      3  O   UNL     1      -8.335  -8.759  17.232  0.00  0.00    -0.158 OA
ATOM      4  O   UNL     1      -8.711 -10.671  18.841  0.00  0.00    -0.158 OA
ATOM     20  C   UNL     1      -9.030 -11.092  16.282  0.00  0.00    +0.215 C 
ENDBRANCH   6   1
TORSDOF 2
ENDMDL
MODEL 5
REMARK VINA RESULT:      -6.3     24.725     26.816
REMARK  Name = 7144173
REMARK  3 active torsions:
REMARK  status: ('A' for Active; 'I' for Inactive)
REMARK    1  A    between atoms: S_1  and  N_6
REMARK    2  A    between atoms: S_1  and  C_20
REMARK    3  A    between atoms: C_15  and  C_19
REMARK                            x       y       z     vdW  Elec       q    Type
REMARK                         _______ _______ _______ _____ _____    ______ ____
ROOT
ATOM      5  O   UNL     1      -4.526 -12.762  18.800  0.00  0.00    -0.268 OA
ATOM      6  N   UNL     1      -3.544 -15.127  14.570  0.00  0.00    -0.180 NA
ATOM      7  N   UNL     1      -4.929 -13.077  16.514  0.00  0.00    -0.311 N 
ATOM      8  C   UNL     1      -5.800 -15.313  15.608  0.00  0.00    +0.025 C 
ATOM      9  C   UNL     1      -5.326 -13.465  14.062  0.00  0.00    +0.053 C 
ATOM     10  C   UNL     1      -6.395 -14.464  14.497  0.00  0.00    +0.017 C 
ATOM     11  C   UNL     1      -4.560 -16.072  15.110  0.00  0.00    +0.114 C 
ATOM     12  C   UNL     1      -4.104 -14.229  13.518  0.00  0.00    +0.118 C 
ATOM     13  C   UNL     1      -5.487 -14.407  16.798  0.00  0.00    +0.130 C 
ATOM     14  C   UNL     1      -4.918 -12.535  15.213  0.00  0.00    +0.035 A 
ATOM     15  C   UNL     1      -4.536 -11.244  15.021  0.00  0.00    +0.009 A 
ATOM     16  C   UNL     1      -4.522 -12.343  17.643  0.00  0.00    +0.252 A 
ATOM     17  C   UNL     1      -4.102 -10.459  16.164  0.00  0.00    +0.016 A 
ATOM     18  C   UNL     1      -4.072 -10.954  17.400  0.00  0.00    +0.071 A 
ENDROOT
BRANCH  15  19
ATOM      2  S   UNL     1      -3.108 -10.660  12.785  0.00  0.00    -0.088 S 
ATOM     19  C   UNL     1      -4.541 -10.661  13.706  0.00  0.00    +0.022 A 
ATOM     21  C   UNL     1      -5.585 -10.067  13.039  0.00  0.00    +0.024 A 
ATOM     22  C   UNL     1      -5.217  -9.594  11.734  0.00  0.00    -0.010 A 
ATOM     23  C   UNL     1      -3.871  -9.857  11.463  0.00  0.00    +0.020 A 
ATOM     24  C   UNL     1      -5.985  -8.937  10.743  0.00  0.00    +0.009 A 
ATOM     25  C   UNL     1      -3.280  -9.483  10.239  0.00  0.00    +0.015 A 
ATOM     26  C   UNL     1      -5.401  -8.565   9.529  0.00  0.00    +0.001 A 
ATOM     27  C   UNL     1      -4.063  -8.836   9.282  0.00  0.00    +0.001 A 
ENDBRANCH  15  19
BRANCH   6   1
ATOM      1  S   UNL     1      -2.010 -15.803  14.228  0.00  0.00    +0.029 S 
ATOM      3  O   UNL     1      -1.578 -16.582  15.368  0.00  0.00    -0.158 OA
ATOM      4  O   UNL     1      -1.169 -14.781  13.643  0.00  0.00    -0.158 OA
ATOM     20  C   UNL     1      -2.477 -16.931  12.939  0.00  0.00    +0.215 C 
ENDBRANCH   6   1
TORSDOF 2
ENDMDL
MODEL 6
REMARK VINA RESULT:      -6.2     26.616     29.042
REMARK  Name = 7144173
REMARK  3 active torsions:
REMARK  status: ('A' for Active; 'I' for Inactive)
REMARK    1  A    between atoms: S_1  and  N_6
REMARK    2  A    between atoms: S_1  and  C_20
REMARK    3  A    between atoms: C_15  and  C_19
REMARK                            x       y       z     vdW  Elec       q    Type
REMARK                         _______ _______ _______ _____ _____    ______ ____
ROOT
ATOM      5  O   UNL     1     -10.297 -11.753  20.390  0.00  0.00    -0.268 OA
ATOM      6  N   UNL     1      -9.927 -10.563  15.604  0.00  0.00    -0.180 NA
ATOM      7  N   UNL     1      -9.102 -10.764  18.634  0.00  0.00    -0.311 N 
ATOM      8  C   UNL     1     -10.050  -8.770  17.329  0.00  0.00    +0.025 C 
ATOM      9  C   UNL     1      -7.867  -9.711  16.713  0.00  0.00    +0.053 C 
ATOM     10  C   UNL     1      -8.591  -8.421  17.088  0.00  0.00    +0.017 C 
ATOM     11  C   UNL     1     -10.685  -9.366  16.063  0.00  0.00    +0.114 C 
ATOM     12  C   UNL     1      -8.474 -10.279  15.415  0.00  0.00    +0.118 C 
ATOM     13  C   UNL     1     -10.133  -9.723  18.522  0.00  0.00    +0.130 C 
ATOM     14  C   UNL     1      -7.934 -10.747  17.843  0.00  0.00    +0.035 A 
ATOM     15  C   UNL     1      -6.939 -11.641  18.088  0.00  0.00    +0.009 A 
ATOM     16  C   UNL     1      -9.305 -11.703  19.662  0.00  0.00    +0.252 A 
ATOM     17  C   UNL     1      -7.119 -12.629  19.138  0.00  0.00    +0.016 A 
ATOM     18  C   UNL     1      -8.224 -12.689  19.880  0.00  0.00    +0.071 A 
ENDROOT
BRANCH  15  19
ATOM      2  S   UNL     1      -5.566 -12.690  15.992  0.00  0.00    -0.088 S 
ATOM     19  C   UNL     1      -5.727 -11.626  17.313  0.00  0.00    +0.022 A 
ATOM     21  C   UNL     1      -4.612 -10.841  17.484  0.00  0.00    +0.024 A 
ATOM     22  C   UNL     1      -3.589 -11.107  16.512  0.00  0.00    -0.010 A 
ATOM     23  C   UNL     1      -3.984 -12.110  15.622  0.00  0.00    +0.020 A 
ATOM     24  C   UNL     1      -2.310 -10.525  16.341  0.00  0.00    +0.009 A 
ATOM     25  C   UNL     1      -3.142 -12.542  14.579  0.00  0.00    +0.015 A 
ATOM     26  C   UNL     1      -1.473 -10.951  15.306  0.00  0.00    +0.001 A 
ATOM     27  C   UNL     1      -1.887 -11.949  14.436  0.00  0.00    +0.001 A 
ENDBRANCH  15  19
BRANCH   6   1
ATOM      1  S   UNL     1     -10.669 -11.482  14.367  0.00  0.00    +0.029 S 
ATOM      3  O   UNL     1      -9.749 -11.600  13.257  0.00  0.00    -0.158 OA
ATOM      4  O   UNL     1     -12.025 -11.009  14.183  0.00  0.00    -0.158 OA
ATOM     20  C   UNL     1     -10.744 -13.054  15.186  0.00  0.00    +0.215 C 
ENDBRANCH   6   1
TORSDOF 2
ENDMDL
MODEL 7
REMARK VINA RESULT:      -6.1     25.524     28.795
REMARK  Name = 7144173
REMARK  3 active torsions:
REMARK  status: ('A' for Active; 'I' for Inactive)
REMARK    1  A    between atoms: S_1  and  N_6
REMARK    2  A    between atoms: S_1  and  C_20
REMARK    3  A    between atoms: C_15  and  C_19
REMARK                            x       y       z     vdW  Elec       q    Type
REMARK                         _______ _______ _______ _____ _____    ______ ____
ROOT
ATOM      5  O   UNL     1     -10.563  12.963  17.632  0.00  0.00    -0.268 OA
ATOM      6  N   UNL     1     -12.947   9.176  15.527  0.00  0.00    -0.180 NA
ATOM      7  N   UNL     1     -11.101  10.683  17.582  0.00  0.00    -0.311 N 
ATOM      8  C   UNL     1     -10.457   9.203  15.588  0.00  0.00    +0.025 C 
ATOM      9  C   UNL     1     -11.705   8.245  17.474  0.00  0.00    +0.053 C 
ATOM     10  C   UNL     1     -10.457   8.078  16.611  0.00  0.00    +0.017 C 
ATOM     11  C   UNL     1     -11.709   9.133  14.700  0.00  0.00    +0.114 C 
ATOM     12  C   UNL     1     -12.960   8.125  16.587  0.00  0.00    +0.118 C 
ATOM     13  C   UNL     1     -10.346  10.535  16.330  0.00  0.00    +0.130 C 
ATOM     14  C   UNL     1     -11.698   9.581  18.228  0.00  0.00    +0.035 A 
ATOM     15  C   UNL     1     -12.253   9.740  19.460  0.00  0.00    +0.009 A 
ATOM     16  C   UNL     1     -11.082  11.972  18.146  0.00  0.00    +0.252 A 
ATOM     17  C   UNL     1     -12.257  11.058  20.068  0.00  0.00    +0.016 A 
ATOM     18  C   UNL     1     -11.729  12.124  19.467  0.00  0.00    +0.071 A 
ENDROOT
BRANCH  15  19
ATOM      2  S   UNL     1     -14.541   8.495  20.231  0.00  0.00    -0.088 S 
ATOM     19  C   UNL     1     -12.844   8.625  20.151  0.00  0.00    +0.022 A 
ATOM     21  C   UNL     1     -12.215   7.588  20.796  0.00  0.00    +0.024 A 
ATOM     22  C   UNL     1     -13.136   6.652  21.376  0.00  0.00    -0.010 A 
ATOM     23  C   UNL     1     -14.460   7.031  21.140  0.00  0.00    +0.020 A 
ATOM     24  C   UNL     1     -12.900   5.465  22.113  0.00  0.00    +0.009 A 
ATOM     25  C   UNL     1     -15.543   6.265  21.616  0.00  0.00    +0.015 A 
ATOM     26  C   UNL     1     -13.971   4.703  22.585  0.00  0.00    +0.001 A 
ATOM     27  C   UNL     1     -15.277   5.100  22.338  0.00  0.00    +0.001 A 
ENDBRANCH  15  19
BRANCH   6   1
ATOM      1  S   UNL     1     -14.410   9.374  14.663  0.00  0.00    +0.029 S 
ATOM      3  O   UNL     1     -14.100   9.678  13.283  0.00  0.00    -0.158 OA
ATOM      4  O   UNL     1     -15.303  10.205  15.442  0.00  0.00    -0.158 OA
ATOM     20  C   UNL     1     -15.012   7.706  14.735  0.00  0.00    +0.215 C 
ENDBRANCH   6   1
TORSDOF 2
ENDMDL
MODEL 8
REMARK VINA RESULT:      -6.1      3.705      7.275
REMARK  Name = 7144173
REMARK  3 active torsions:
REMARK  status: ('A' for Active; 'I' for Inactive)
REMARK    1  A    between atoms: S_1  and  N_6
REMARK    2  A    between atoms: S_1  and  C_20
REMARK    3  A    between atoms: C_15  and  C_19
REMARK                            x       y       z     vdW  Elec       q    Type
REMARK                         _______ _______ _______ _____ _____    ______ ____
ROOT
ATOM      5  O   UNL     1      16.232   6.408   0.293  0.00  0.00    -0.268 OA
ATOM      6  N   UNL     1      11.585   4.846  -0.355  0.00  0.00    -0.180 NA
ATOM      7  N   UNL     1      14.253   5.514   1.173  0.00  0.00    -0.311 N 
ATOM      8  C   UNL     1      13.345   3.248   0.386  0.00  0.00    +0.025 C 
ATOM      9  C   UNL     1      12.108   4.549   2.061  0.00  0.00    +0.053 C 
ATOM     10  C   UNL     1      12.721   3.182   1.770  0.00  0.00    +0.017 C 
ATOM     11  C   UNL     1      12.284   3.571  -0.677  0.00  0.00    +0.114 C 
ATOM     12  C   UNL     1      11.010   4.848   1.021  0.00  0.00    +0.118 C 
ATOM     13  C   UNL     1      14.475   4.278   0.409  0.00  0.00    +0.130 C 
ATOM     14  C   UNL     1      13.170   5.657   2.064  0.00  0.00    +0.035 A 
ATOM     15  C   UNL     1      13.091   6.755   2.862  0.00  0.00    +0.009 A 
ATOM     16  C   UNL     1      15.259   6.489   1.043  0.00  0.00    +0.252 A 
ATOM     17  C   UNL     1      14.109   7.785   2.748  0.00  0.00    +0.016 A 
ATOM     18  C   UNL     1      15.127   7.692   1.894  0.00  0.00    +0.071 A 
ENDROOT
BRANCH  15  19
ATOM      2  S   UNL     1      10.596   7.730   3.314  0.00  0.00    -0.088 S 
ATOM     19  C   UNL     1      12.010   6.911   3.797  0.00  0.00    +0.022 A 
ATOM     21  C   UNL     1      11.936   6.478   5.099  0.00  0.00    +0.024 A 
ATOM     22  C   UNL     1      10.692   6.817   5.731  0.00  0.00    -0.010 A 
ATOM     23  C   UNL     1       9.854   7.514   4.855  0.00  0.00    +0.020 A 
ATOM     24  C   UNL     1      10.225   6.559   7.042  0.00  0.00    +0.009 A 
ATOM     25  C   UNL     1       8.576   7.954   5.253  0.00  0.00    +0.015 A 
ATOM     26  C   UNL     1       8.958   6.993   7.440  0.00  0.00    +0.001 A 
ATOM     27  C   UNL     1       8.144   7.683   6.553  0.00  0.00    +0.001 A 
ENDBRANCH  15  19
BRANCH   6   1
ATOM      1  S   UNL     1      10.569   5.466  -1.584  0.00  0.00    +0.029 S 
ATOM      3  O   UNL     1       9.467   4.550  -1.785  0.00  0.00    -0.158 OA
ATOM      4  O   UNL     1      11.390   5.920  -2.685  0.00  0.00    -0.158 OA
ATOM     20  C   UNL     1       9.943   6.897  -0.741  0.00  0.00    +0.215 C 
ENDBRANCH   6   1
TORSDOF 2
ENDMDL
MODEL 9
REMARK VINA RESULT:      -6.0      3.101      5.668
REMARK  Name = 7144173
REMARK  3 active torsions:
REMARK  status: ('A' for Active; 'I' for Inactive)
REMARK    1  A    between atoms: S_1  and  N_6
REMARK    2  A    between atoms: S_1  and  C_20
REMARK    3  A    between atoms: C_15  and  C_19
REMARK                            x       y       z     vdW  Elec       q    Type
REMARK                         _______ _______ _______ _____ _____    ______ ____
ROOT
ATOM      5  O   UNL     1      10.493   9.842   8.292  0.00  0.00    -0.268 OA
ATOM      6  N   UNL     1      10.686   6.741   4.445  0.00  0.00    -0.180 NA
ATOM      7  N   UNL     1       9.403   8.633   6.606  0.00  0.00    -0.311 N 
ATOM      8  C   UNL     1       9.494   6.071   6.527  0.00  0.00    +0.025 C 
ATOM      9  C   UNL     1       8.286   7.309   4.784  0.00  0.00    +0.053 C 
ATOM     10  C   UNL     1       8.157   6.191   5.816  0.00  0.00    +0.017 C 
ATOM     11  C   UNL     1      10.613   5.725   5.532  0.00  0.00    +0.114 C 
ATOM     12  C   UNL     1       9.375   6.936   3.759  0.00  0.00    +0.118 C 
ATOM     13  C   UNL     1       9.767   7.376   7.275  0.00  0.00    +0.130 C 
ATOM     14  C   UNL     1       8.602   8.657   5.446  0.00  0.00    +0.035 A 
ATOM     15  C   UNL     1       8.163   9.846   4.952  0.00  0.00    +0.009 A 
ATOM     16  C   UNL     1       9.807   9.806   7.270  0.00  0.00    +0.252 A 
ATOM     17  C   UNL     1       8.568  11.076   5.609  0.00  0.00    +0.016 A 
ATOM     18  C   UNL     1       9.350  11.086   6.687  0.00  0.00    +0.071 A 
ENDROOT
BRANCH  15  19
ATOM      2  S   UNL     1       8.038   9.924   2.239  0.00  0.00    -0.088 S 
ATOM     19  C   UNL     1       7.323   9.894   3.786  0.00  0.00    +0.022 A 
ATOM     21  C   UNL     1       5.950   9.923   3.721  0.00  0.00    +0.024 A 
ATOM     22  C   UNL     1       5.456   9.970   2.374  0.00  0.00    -0.010 A 
ATOM     23  C   UNL     1       6.505   9.975   1.450  0.00  0.00    +0.020 A 
ATOM     24  C   UNL     1       4.129  10.009   1.881  0.00  0.00    +0.009 A 
ATOM     25  C   UNL     1       6.264  10.019   0.062  0.00  0.00    +0.015 A 
ATOM     26  C   UNL     1       3.887  10.052   0.506  0.00  0.00    +0.001 A 
ATOM     27  C   UNL     1       4.945  10.057  -0.392  0.00  0.00    +0.001 A 
ENDBRANCH  15  19
BRANCH   6   1
ATOM      1  S   UNL     1      12.049   6.631   3.418  0.00  0.00    +0.029 S 
ATOM      3  O   UNL     1      12.042   5.339   2.768  0.00  0.00    -0.158 OA
ATOM      4  O   UNL     1      13.211   7.117   4.131  0.00  0.00    -0.158 OA
ATOM     20  C   UNL     1      11.597   7.853   2.213  0.00  0.00    +0.215 C 
ENDBRANCH   6   1
TORSDOF 2
ENDMDL
MODEL 10
REMARK VINA RESULT:      -5.9      2.128      3.091
REMARK  Name = 7144173
REMARK  3 active torsions:
REMARK  status: ('A' for Active; 'I' for Inactive)
REMARK    1  A    between atoms: S_1  and  N_6
REMARK    2  A    between atoms: S_1  and  C_20
REMARK    3  A    between atoms: C_15  and  C_19
REMARK                            x       y       z     vdW  Elec       q    Type
REMARK                         _______ _______ _______ _____ _____    ______ ____
ROOT
ATOM      5  O   UNL     1      11.282  11.174   5.899  0.00  0.00    -0.268 OA
ATOM      6  N   UNL     1       9.671   6.528   6.418  0.00  0.00    -0.180 NA
ATOM      7  N   UNL     1      10.425   9.209   4.954  0.00  0.00    -0.311 N 
ATOM      8  C   UNL     1       8.118   8.303   5.618  0.00  0.00    +0.025 C 
ATOM      9  C   UNL     1       9.496   7.078   3.996  0.00  0.00    +0.053 C 
ATOM     10  C   UNL     1       8.119   7.694   4.225  0.00  0.00    +0.017 C 
ATOM     11  C   UNL     1       8.384   7.229   6.684  0.00  0.00    +0.114 C 
ATOM     12  C   UNL     1       9.739   5.967   5.037  0.00  0.00    +0.118 C 
ATOM     13  C   UNL     1       9.153   9.428   5.658  0.00  0.00    +0.130 C 
ATOM     14  C   UNL     1      10.608   8.134   4.060  0.00  0.00    +0.035 A 
ATOM     15  C   UNL     1      11.744   8.059   3.316  0.00  0.00    +0.009 A 
ATOM     16  C   UNL     1      11.396  10.209   5.144  0.00  0.00    +0.252 A 
ATOM     17  C   UNL     1      12.771   9.071   3.492  0.00  0.00    +0.016 A 
ATOM     18  C   UNL     1      12.639  10.080   4.352  0.00  0.00    +0.071 A 
ENDROOT
BRANCH  15  19
ATOM      2  S   UNL     1      11.332   7.137   0.794  0.00  0.00    -0.088 S 
ATOM     19  C   UNL     1      11.942   6.987   2.378  0.00  0.00    +0.022 A 
ATOM     21  C   UNL     1      12.584   5.788   2.574  0.00  0.00    +0.024 A 
ATOM     22  C   UNL     1      12.586   4.959   1.402  0.00  0.00    -0.010 A 
ATOM     23  C   UNL     1      11.925   5.583   0.339  0.00  0.00    +0.020 A 
ATOM     24  C   UNL     1      13.133   3.670   1.187  0.00  0.00    +0.009 A 
ATOM     25  C   UNL     1      11.799   4.959  -0.918  0.00  0.00    +0.015 A 
ATOM     26  C   UNL     1      13.009   3.049  -0.059  0.00  0.00    +0.001 A 
ATOM     27  C   UNL     1      12.349   3.688  -1.098  0.00  0.00    +0.001 A 
ENDBRANCH  15  19
BRANCH   6   1
ATOM      1  S   UNL     1      10.224   5.495   7.665  0.00  0.00    +0.029 S 
ATOM      3  O   UNL     1      11.558   5.901   8.049  0.00  0.00    -0.158 OA
ATOM      4  O   UNL     1       9.919   4.127   7.307  0.00  0.00    -0.158 OA
ATOM     20  C   UNL     1       9.109   5.985   8.956  0.00  0.00    +0.215 C 
ENDBRANCH   6   1
TORSDOF 2
ENDMDL
