MODEL 1
REMARK VINA RESULT:      -6.8      0.000      0.000
REMARK  Name = 75536954
REMARK  2 active torsions:
REMARK  status: ('A' for Active; 'I' for Inactive)
REMARK    1  A    between atoms: O_3  and  C_10
REMARK    2  A    between atoms: N_4  and  C_5
REMARK                            x       y       z     vdW  Elec       q    Type
REMARK                         _______ _______ _______ _____ _____    ______ ____
ROOT
ATOM      2  O   UNL     1      -2.174   4.177  25.462  0.00  0.00    -0.376 OA
ATOM      4  N   UNL     1      -2.052   1.246  24.403  0.00  0.00    -0.295 NA
ATOM      8  C   UNL     1      -0.887   1.216  25.294  0.00  0.00    +0.118 C 
ATOM      9  C   UNL     1      -3.196   1.990  24.932  0.00  0.00    +0.113 C 
ATOM     10  C   UNL     1      -0.575   2.480  26.111  0.00  0.00    +0.154 C 
ATOM     13  C   UNL     1      -3.053   3.475  24.595  0.00  0.00    +0.175 C 
ATOM     14  C   UNL     1      -0.809   3.785  25.362  0.00  0.00    +0.192 C 
ENDROOT
BRANCH   4   5
ATOM      1  O   UNL     1      -3.493  -2.682  24.773  0.00  0.00    -0.380 OA
ATOM      5  C   UNL     1      -2.428  -0.115  24.021  0.00  0.00    +0.061 C 
ATOM      6  C   UNL     1      -1.619  -1.137  24.826  0.00  0.00    +0.047 C 
ATOM      7  C   UNL     1      -3.927  -0.353  24.229  0.00  0.00    +0.047 C 
ATOM     11  C   UNL     1      -2.095  -2.552  24.518  0.00  0.00    +0.161 C 
ATOM     12  C   UNL     1      -4.275  -1.811  23.954  0.00  0.00    +0.161 C 
ENDBRANCH   4   5
BRANCH  10   3
ATOM      3  O   UNL     1       0.799   2.433  26.495  0.00  0.00    -0.388 OA
ATOM     15  H   UNL     1       1.315   2.179  25.710  0.00  0.00    +0.210 HD
ENDBRANCH  10   3
TORSDOF 2
ENDMDL
MODEL 2
REMARK VINA RESULT:      -6.7      1.430      2.547
REMARK  Name = 75536954
REMARK  2 active torsions:
REMARK  status: ('A' for Active; 'I' for Inactive)
REMARK    1  A    between atoms: O_3  and  C_10
REMARK    2  A    between atoms: N_4  and  C_5
REMARK                            x       y       z     vdW  Elec       q    Type
REMARK                         _______ _______ _______ _____ _____    ______ ____
ROOT
ATOM      2  O   UNL     1      -2.411   4.392  25.381  0.00  0.00    -0.376 OA
ATOM      4  N   UNL     1      -2.935   1.359  24.883  0.00  0.00    -0.295 NA
ATOM      8  C   UNL     1      -4.325   1.813  25.007  0.00  0.00    +0.118 C 
ATOM      9  C   UNL     1      -2.063   2.278  24.150  0.00  0.00    +0.113 C 
ATOM     10  C   UNL     1      -4.572   3.316  25.211  0.00  0.00    +0.154 C 
ATOM     13  C   UNL     1      -1.503   3.336  25.102  0.00  0.00    +0.175 C 
ATOM     14  C   UNL     1      -3.562   4.001  26.122  0.00  0.00    +0.192 C 
ENDROOT
BRANCH   4   5
ATOM      1  O   UNL     1      -3.263  -2.822  24.655  0.00  0.00    -0.380 OA
ATOM      5  C   UNL     1      -2.896   0.012  24.312  0.00  0.00    +0.061 C 
ATOM      6  C   UNL     1      -1.893  -0.860  25.073  0.00  0.00    +0.047 C 
ATOM      7  C   UNL     1      -4.282  -0.639  24.338  0.00  0.00    +0.047 C 
ATOM     11  C   UNL     1      -1.940  -2.295  24.559  0.00  0.00    +0.161 C 
ATOM     12  C   UNL     1      -4.197  -2.085  23.865  0.00  0.00    +0.161 C 
ENDBRANCH   4   5
BRANCH  10   3
ATOM      3  O   UNL     1      -5.868   3.478  25.789  0.00  0.00    -0.388 OA
ATOM     15  H   UNL     1      -5.986   2.771  26.448  0.00  0.00    +0.210 HD
ENDBRANCH  10   3
TORSDOF 2
ENDMDL
MODEL 3
REMARK VINA RESULT:      -6.2      1.968      5.081
REMARK  Name = 75536954
REMARK  2 active torsions:
REMARK  status: ('A' for Active; 'I' for Inactive)
REMARK    1  A    between atoms: O_3  and  C_10
REMARK    2  A    between atoms: N_4  and  C_5
REMARK                            x       y       z     vdW  Elec       q    Type
REMARK                         _______ _______ _______ _____ _____    ______ ____
ROOT
ATOM      2  O   UNL     1      -0.752  -1.827  25.139  0.00  0.00    -0.376 OA
ATOM      4  N   UNL     1      -2.912   0.250  24.275  0.00  0.00    -0.295 NA
ATOM      8  C   UNL     1      -3.758  -0.947  24.336  0.00  0.00    +0.118 C 
ATOM      9  C   UNL     1      -1.919   0.341  25.346  0.00  0.00    +0.113 C 
ATOM     10  C   UNL     1      -3.108  -2.263  24.794  0.00  0.00    +0.154 C 
ATOM     13  C   UNL     1      -0.654  -0.422  24.952  0.00  0.00    +0.175 C 
ATOM     14  C   UNL     1      -1.688  -2.473  24.283  0.00  0.00    +0.192 C 
ENDROOT
BRANCH   4   5
ATOM      1  O   UNL     1      -4.826   3.773  25.526  0.00  0.00    -0.380 OA
ATOM      5  C   UNL     1      -3.745   1.451  24.212  0.00  0.00    +0.061 C 
ATOM      6  C   UNL     1      -4.885   1.363  25.231  0.00  0.00    +0.047 C 
ATOM      7  C   UNL     1      -2.914   2.713  24.464  0.00  0.00    +0.047 C 
ATOM     11  C   UNL     1      -5.680   2.663  25.252  0.00  0.00    +0.161 C 
ATOM     12  C   UNL     1      -3.818   3.938  24.528  0.00  0.00    +0.161 C 
ENDBRANCH   4   5
BRANCH  10   3
ATOM      3  O   UNL     1      -3.911  -3.344  24.320  0.00  0.00    -0.388 OA
ATOM     15  H   UNL     1      -4.154  -3.147  23.399  0.00  0.00    +0.210 HD
ENDBRANCH  10   3
TORSDOF 2
ENDMDL
MODEL 4
REMARK VINA RESULT:      -5.6     16.098     18.229
REMARK  Name = 75536954
REMARK  2 active torsions:
REMARK  status: ('A' for Active; 'I' for Inactive)
REMARK    1  A    between atoms: O_3  and  C_10
REMARK    2  A    between atoms: N_4  and  C_5
REMARK                            x       y       z     vdW  Elec       q    Type
REMARK                         _______ _______ _______ _____ _____    ______ ____
ROOT
ATOM      2  O   UNL     1      10.710   8.512  19.478  0.00  0.00    -0.376 OA
ATOM      4  N   UNL     1      13.556   7.511  20.267  0.00  0.00    -0.295 NA
ATOM      8  C   UNL     1      12.974   7.626  21.609  0.00  0.00    +0.118 C 
ATOM      9  C   UNL     1      12.640   6.985  19.256  0.00  0.00    +0.113 C 
ATOM     10  C   UNL     1      11.500   8.050  21.718  0.00  0.00    +0.154 C 
ATOM     13  C   UNL     1      11.806   8.122  18.663  0.00  0.00    +0.175 C 
ATOM     14  C   UNL     1      11.078   9.114  20.714  0.00  0.00    +0.192 C 
ENDROOT
BRANCH   4   5
ATOM      1  O   UNL     1      17.658   6.644  20.021  0.00  0.00    -0.380 OA
ATOM      5  C   UNL     1      14.797   6.738  20.322  0.00  0.00    +0.061 C 
ATOM      6  C   UNL     1      15.478   6.727  18.951  0.00  0.00    +0.047 C 
ATOM      7  C   UNL     1      15.752   7.302  21.378  0.00  0.00    +0.047 C 
ATOM     11  C   UNL     1      16.830   6.027  19.035  0.00  0.00    +0.161 C 
ATOM     12  C   UNL     1      17.088   6.570  21.328  0.00  0.00    +0.161 C 
ENDBRANCH   4   5
BRANCH  10   3
ATOM      3  O   UNL     1      11.285   8.572  23.030  0.00  0.00    -0.388 OA
ATOM     15  H   UNL     1      10.906   7.858  23.571  0.00  0.00    +0.210 HD
ENDBRANCH  10   3
TORSDOF 2
ENDMDL
MODEL 5
REMARK VINA RESULT:      -5.2     15.935     18.149
REMARK  Name = 75536954
REMARK  2 active torsions:
REMARK  status: ('A' for Active; 'I' for Inactive)
REMARK    1  A    between atoms: O_3  and  C_10
REMARK    2  A    between atoms: N_4  and  C_5
REMARK                            x       y       z     vdW  Elec       q    Type
REMARK                         _______ _______ _______ _____ _____    ______ ____
ROOT
ATOM      2  O   UNL     1      12.621   9.567  22.409  0.00  0.00    -0.376 OA
ATOM      4  N   UNL     1      12.668   9.333  19.300  0.00  0.00    -0.295 NA
ATOM      8  C   UNL     1      11.438   8.579  19.567  0.00  0.00    +0.118 C 
ATOM      9  C   UNL     1      12.843  10.518  20.139  0.00  0.00    +0.113 C 
ATOM     10  C   UNL     1      10.963   8.474  21.025  0.00  0.00    +0.154 C 
ATOM     13  C   UNL     1      13.513  10.130  21.458  0.00  0.00    +0.175 C 
ATOM     14  C   UNL     1      12.086   8.301  22.040  0.00  0.00    +0.192 C 
ENDROOT
BRANCH   4   5
ATOM      1  O   UNL     1      13.123   8.790  15.160  0.00  0.00    -0.380 OA
ATOM      5  C   UNL     1      12.755   9.665  17.878  0.00  0.00    +0.061 C 
ATOM      6  C   UNL     1      14.125   9.268  17.321  0.00  0.00    +0.047 C 
ATOM      7  C   UNL     1      11.645   8.973  17.080  0.00  0.00    +0.047 C 
ATOM     11  C   UNL     1      14.174   9.500  15.814  0.00  0.00    +0.161 C 
ATOM     12  C   UNL     1      11.831   9.221  15.588  0.00  0.00    +0.161 C 
ENDBRANCH   4   5
BRANCH  10   3
ATOM      3  O   UNL     1      10.097   7.344  21.130  0.00  0.00    -0.388 OA
ATOM     15  H   UNL     1       9.323   7.614  21.653  0.00  0.00    +0.210 HD
ENDBRANCH  10   3
TORSDOF 2
ENDMDL
MODEL 6
REMARK VINA RESULT:      -5.1     17.441     19.523
REMARK  Name = 75536954
REMARK  2 active torsions:
REMARK  status: ('A' for Active; 'I' for Inactive)
REMARK    1  A    between atoms: O_3  and  C_10
REMARK    2  A    between atoms: N_4  and  C_5
REMARK                            x       y       z     vdW  Elec       q    Type
REMARK                         _______ _______ _______ _____ _____    ______ ____
ROOT
ATOM      2  O   UNL     1      12.637   9.935  19.389  0.00  0.00    -0.376 OA
ATOM      4  N   UNL     1      14.548   7.554  20.022  0.00  0.00    -0.295 NA
ATOM      8  C   UNL     1      13.812   6.963  18.899  0.00  0.00    +0.118 C 
ATOM      9  C   UNL     1      14.864   8.973  19.856  0.00  0.00    +0.113 C 
ATOM     10  C   UNL     1      12.757   7.832  18.196  0.00  0.00    +0.154 C 
ATOM     13  C   UNL     1      13.691   9.829  20.335  0.00  0.00    +0.175 C 
ATOM     14  C   UNL     1      11.946   8.717  19.134  0.00  0.00    +0.192 C 
ENDROOT
BRANCH   4   5
ATOM      1  O   UNL     1      18.596   6.435  20.052  0.00  0.00    -0.380 OA
ATOM      5  C   UNL     1      15.748   6.766  20.306  0.00  0.00    +0.061 C 
ATOM      6  C   UNL     1      16.409   6.313  19.001  0.00  0.00    +0.047 C 
ATOM      7  C   UNL     1      16.746   7.566  21.149  0.00  0.00    +0.047 C 
ATOM     11  C   UNL     1      17.724   5.599  19.293  0.00  0.00    +0.161 C 
ATOM     12  C   UNL     1      18.042   6.782  21.322  0.00  0.00    +0.161 C 
ENDBRANCH   4   5
BRANCH  10   3
ATOM      3  O   UNL     1      11.849   6.965  17.515  0.00  0.00    -0.388 OA
ATOM     15  H   UNL     1      12.068   6.997  16.568  0.00  0.00    +0.210 HD
ENDBRANCH  10   3
TORSDOF 2
ENDMDL
MODEL 7
REMARK VINA RESULT:      -5.0     15.806     18.112
REMARK  Name = 75536954
REMARK  2 active torsions:
REMARK  status: ('A' for Active; 'I' for Inactive)
REMARK    1  A    between atoms: O_3  and  C_10
REMARK    2  A    between atoms: N_4  and  C_5
REMARK                            x       y       z     vdW  Elec       q    Type
REMARK                         _______ _______ _______ _____ _____    ______ ____
ROOT
ATOM      2  O   UNL     1      11.157  10.344  22.216  0.00  0.00    -0.376 OA
ATOM      4  N   UNL     1      13.444   8.236  21.991  0.00  0.00    -0.295 NA
ATOM      8  C   UNL     1      12.323   7.405  21.541  0.00  0.00    +0.118 C 
ATOM      9  C   UNL     1      13.407   9.615  21.502  0.00  0.00    +0.113 C 
ATOM     10  C   UNL     1      10.939   8.066  21.429  0.00  0.00    +0.154 C 
ATOM     13  C   UNL     1      12.554  10.477  22.433  0.00  0.00    +0.175 C 
ATOM     14  C   UNL     1      10.628   9.062  22.537  0.00  0.00    +0.192 C 
ENDROOT
BRANCH   4   5
ATOM      1  O   UNL     1      16.991   7.356  19.921  0.00  0.00    -0.380 OA
ATOM      5  C   UNL     1      14.714   7.586  21.668  0.00  0.00    +0.061 C 
ATOM      6  C   UNL     1      14.632   6.911  20.295  0.00  0.00    +0.047 C 
ATOM      7  C   UNL     1      15.870   8.591  21.689  0.00  0.00    +0.047 C 
ATOM     11  C   UNL     1      15.990   6.339  19.903  0.00  0.00    +0.161 C 
ATOM     12  C   UNL     1      17.159   7.925  21.220  0.00  0.00    +0.161 C 
ENDBRANCH   4   5
BRANCH  10   3
ATOM      3  O   UNL     1       9.951   7.036  21.472  0.00  0.00    -0.388 OA
ATOM     15  H   UNL     1       9.972   6.572  20.617  0.00  0.00    +0.210 HD
ENDBRANCH  10   3
TORSDOF 2
ENDMDL
MODEL 8
REMARK VINA RESULT:      -4.9     15.231     16.992
REMARK  Name = 75536954
REMARK  2 active torsions:
REMARK  status: ('A' for Active; 'I' for Inactive)
REMARK    1  A    between atoms: O_3  and  C_10
REMARK    2  A    between atoms: N_4  and  C_5
REMARK                            x       y       z     vdW  Elec       q    Type
REMARK                         _______ _______ _______ _____ _____    ______ ____
ROOT
ATOM      2  O   UNL     1      12.498  13.714  23.355  0.00  0.00    -0.376 OA
ATOM      4  N   UNL     1      11.515  10.872  22.530  0.00  0.00    -0.295 NA
ATOM      8  C   UNL     1      10.819  10.989  23.816  0.00  0.00    +0.118 C 
ATOM      9  C   UNL     1      11.540  12.105  21.743  0.00  0.00    +0.113 C 
ATOM     10  C   UNL     1      10.966  12.307  24.593  0.00  0.00    +0.154 C 
ATOM     13  C   UNL     1      12.727  12.971  22.166  0.00  0.00    +0.175 C 
ATOM     14  C   UNL     1      12.359  12.921  24.529  0.00  0.00    +0.192 C 
ENDROOT
BRANCH   4   5
ATOM      1  O   UNL     1      11.356   7.191  20.512  0.00  0.00    -0.380 OA
ATOM      5  C   UNL     1      10.964   9.756  21.761  0.00  0.00    +0.061 C 
ATOM      6  C   UNL     1      11.724   9.592  20.441  0.00  0.00    +0.047 C 
ATOM      7  C   UNL     1      11.021   8.452  22.563  0.00  0.00    +0.047 C 
ATOM     11  C   UNL     1      11.233   8.356  19.696  0.00  0.00    +0.161 C 
ATOM     12  C   UNL     1      10.569   7.279  21.700  0.00  0.00    +0.161 C 
ENDBRANCH   4   5
BRANCH  10   3
ATOM      3  O   UNL     1      10.662  12.050  25.965  0.00  0.00    -0.388 OA
ATOM     15  H   UNL     1      11.504  11.917  26.433  0.00  0.00    +0.210 HD
ENDBRANCH  10   3
TORSDOF 2
ENDMDL
MODEL 9
REMARK VINA RESULT:      -4.9     14.021     14.877
REMARK  Name = 75536954
REMARK  2 active torsions:
REMARK  status: ('A' for Active; 'I' for Inactive)
REMARK    1  A    between atoms: O_3  and  C_10
REMARK    2  A    between atoms: N_4  and  C_5
REMARK                            x       y       z     vdW  Elec       q    Type
REMARK                         _______ _______ _______ _____ _____    ______ ____
ROOT
ATOM      2  O   UNL     1      -3.424 -10.383  13.707  0.00  0.00    -0.376 OA
ATOM      4  N   UNL     1      -4.751 -11.351  16.358  0.00  0.00    -0.295 NA
ATOM      8  C   UNL     1      -3.378 -11.170  16.843  0.00  0.00    +0.118 C 
ATOM      9  C   UNL     1      -5.201 -10.320  15.423  0.00  0.00    +0.113 C 
ATOM     10  C   UNL     1      -2.334 -10.625  15.855  0.00  0.00    +0.154 C 
ATOM     13  C   UNL     1      -4.781 -10.686  14.000  0.00  0.00    +0.175 C 
ATOM     14  C   UNL     1      -2.476 -11.157  14.435  0.00  0.00    +0.192 C 
ENDROOT
BRANCH   4   5
ATOM      1  O   UNL     1      -6.792 -10.385  19.900  0.00  0.00    -0.380 OA
ATOM      5  C   UNL     1      -5.669 -11.487  17.489  0.00  0.00    +0.061 C 
ATOM      6  C   UNL     1      -4.896 -11.445  18.811  0.00  0.00    +0.047 C 
ATOM      7  C   UNL     1      -6.735 -10.388  17.470  0.00  0.00    +0.047 C 
ATOM     11  C   UNL     1      -5.862 -11.464  19.991  0.00  0.00    +0.161 C 
ATOM     12  C   UNL     1      -7.598 -10.465  18.724  0.00  0.00    +0.161 C 
ENDBRANCH   4   5
BRANCH  10   3
ATOM      3  O   UNL     1      -1.038 -10.987  16.334  0.00  0.00    -0.388 OA
ATOM     15  H   UNL     1      -1.150 -11.736  16.944  0.00  0.00    +0.210 HD
ENDBRANCH  10   3
TORSDOF 2
ENDMDL
MODEL 10
REMARK VINA RESULT:      -4.8     16.130     18.216
REMARK  Name = 75536954
REMARK  2 active torsions:
REMARK  status: ('A' for Active; 'I' for Inactive)
REMARK    1  A    between atoms: O_3  and  C_10
REMARK    2  A    between atoms: N_4  and  C_5
REMARK                            x       y       z     vdW  Elec       q    Type
REMARK                         _______ _______ _______ _____ _____    ______ ____
ROOT
ATOM      2  O   UNL     1      14.808  10.923  17.391  0.00  0.00    -0.376 OA
ATOM      4  N   UNL     1      12.476   9.292  18.665  0.00  0.00    -0.295 NA
ATOM      8  C   UNL     1      12.635   8.530  17.422  0.00  0.00    +0.118 C 
ATOM      9  C   UNL     1      13.735   9.729  19.269  0.00  0.00    +0.113 C 
ATOM     10  C   UNL     1      13.757   8.952  16.460  0.00  0.00    +0.154 C 
ATOM     13  C   UNL     1      14.175  11.059  18.654  0.00  0.00    +0.175 C 
ATOM     14  C   UNL     1      13.956  10.458  16.350  0.00  0.00    +0.192 C 
ENDROOT
BRANCH   4   5
ATOM      1  O   UNL     1      11.389   7.315  22.208  0.00  0.00    -0.380 OA
ATOM      5  C   UNL     1      11.659   8.538  19.616  0.00  0.00    +0.061 C 
ATOM      6  C   UNL     1      12.343   7.216  19.976  0.00  0.00    +0.047 C 
ATOM      7  C   UNL     1      11.395   9.354  20.885  0.00  0.00    +0.047 C 
ATOM     11  C   UNL     1      11.554   6.487  21.058  0.00  0.00    +0.161 C 
ATOM     12  C   UNL     1      10.658   8.506  21.916  0.00  0.00    +0.161 C 
ENDBRANCH   4   5
BRANCH  10   3
ATOM      3  O   UNL     1      13.438   8.454  15.160  0.00  0.00    -0.388 OA
ATOM     15  H   UNL     1      12.553   8.785  14.928  0.00  0.00    +0.210 HD
ENDBRANCH  10   3
TORSDOF 2
ENDMDL
