MODEL 1
REMARK VINA RESULT:      -6.3      0.000      0.000
REMARK  Name = 75536999
REMARK  6 active torsions:
REMARK  status: ('A' for Active; 'I' for Inactive)
REMARK    1  A    between atoms: S_1  and  N_7
REMARK    2  A    between atoms: S_1  and  C_17
REMARK    3  A    between atoms: O_5  and  C_22
REMARK    4  A    between atoms: O_5  and  C_23
REMARK    5  A    between atoms: N_8  and  C_15
REMARK    6  A    between atoms: C_15  and  C_16
REMARK                            x       y       z     vdW  Elec       q    Type
REMARK                         _______ _______ _______ _____ _____    ______ ____
ROOT
ATOM      2  O   UNL     1      13.789   9.840  18.957  0.00  0.00    -0.252 OA
ATOM      6  N   UNL     1      12.262  10.317  20.677  0.00  0.00    -0.278 N 
ATOM      7  N   UNL     1      11.246  11.535  22.980  0.00  0.00    -0.178 NA
ATOM      8  N   UNL     1      12.627   8.165  20.142  0.00  0.00    -0.279 N 
ATOM      9  C   UNL     1      11.323   9.573  21.496  0.00  0.00    +0.111 C 
ATOM     10  C   UNL     1      11.394  10.042  22.946  0.00  0.00    +0.133 C 
ATOM     11  C   UNL     1      11.725   8.116  21.279  0.00  0.00    +0.133 C 
ATOM     12  C   UNL     1      12.280  11.764  20.742  0.00  0.00    +0.127 C 
ATOM     13  C   UNL     1      12.328  12.221  22.197  0.00  0.00    +0.128 C 
ATOM     14  C   UNL     1      12.991   9.486  19.815  0.00  0.00    +0.305 C 
ENDROOT
BRANCH   7   1
ATOM      1  S   UNL     1      10.931  12.202  24.527  0.00  0.00    +0.029 S 
ATOM      3  O   UNL     1      10.915  11.130  25.498  0.00  0.00    -0.158 OA
ATOM      4  O   UNL     1       9.840  13.142  24.413  0.00  0.00    -0.158 OA
ATOM     17  C   UNL     1      12.431  13.122  24.747  0.00  0.00    +0.215 C 
ENDBRANCH   7   1
BRANCH   8  15
ATOM     15  C   UNL     1      13.165   6.966  19.538  0.00  0.00    +0.144 C 
BRANCH  15  16
ATOM     16  C   UNL     1      14.616   6.770  19.874  0.00  0.00    -0.030 A 
ATOM     18  C   UNL     1      15.034   6.798  21.204  0.00  0.00    +0.009 A 
ATOM     19  C   UNL     1      15.545   6.561  18.855  0.00  0.00    +0.009 A 
ATOM     20  C   UNL     1      16.381   6.615  21.515  0.00  0.00    +0.046 A 
ATOM     21  C   UNL     1      16.892   6.378  19.166  0.00  0.00    +0.046 A 
ATOM     22  C   UNL     1      17.311   6.405  20.496  0.00  0.00    +0.120 A 
BRANCH  22   5
ATOM      5  O   UNL     1      18.625   6.227  20.800  0.00  0.00    -0.495 OA
ATOM     23  C   UNL     1      19.151   6.995  21.882  0.00  0.00    +0.277 C 
ENDBRANCH  22   5
ENDBRANCH  15  16
ENDBRANCH   8  15
TORSDOF 4
ENDMDL
MODEL 2
REMARK VINA RESULT:      -6.2      1.610      2.105
REMARK  Name = 75536999
REMARK  6 active torsions:
REMARK  status: ('A' for Active; 'I' for Inactive)
REMARK    1  A    between atoms: S_1  and  N_7
REMARK    2  A    between atoms: S_1  and  C_17
REMARK    3  A    between atoms: O_5  and  C_22
REMARK    4  A    between atoms: O_5  and  C_23
REMARK    5  A    between atoms: N_8  and  C_15
REMARK    6  A    between atoms: C_15  and  C_16
REMARK                            x       y       z     vdW  Elec       q    Type
REMARK                         _______ _______ _______ _____ _____    ______ ____
ROOT
ATOM      2  O   UNL     1      11.804   6.513  20.122  0.00  0.00    -0.252 OA
ATOM      6  N   UNL     1      12.262   8.216  21.675  0.00  0.00    -0.278 N 
ATOM      7  N   UNL     1      11.837  10.528  23.189  0.00  0.00    -0.178 NA
ATOM      8  N   UNL     1      13.876   7.636  20.223  0.00  0.00    -0.279 N 
ATOM      9  C   UNL     1      13.414   8.999  22.079  0.00  0.00    +0.111 C 
ATOM     10  C   UNL     1      13.023  10.460  22.272  0.00  0.00    +0.133 C 
ATOM     11  C   UNL     1      14.430   8.754  20.965  0.00  0.00    +0.133 C 
ATOM     12  C   UNL     1      11.027   8.316  22.426  0.00  0.00    +0.127 C 
ATOM     13  C   UNL     1      10.658   9.782  22.632  0.00  0.00    +0.128 C 
ATOM     14  C   UNL     1      12.553   7.347  20.614  0.00  0.00    +0.305 C 
ENDROOT
BRANCH   7   1
ATOM      1  S   UNL     1      11.486  12.085  23.814  0.00  0.00    +0.029 S 
ATOM      3  O   UNL     1      10.236  12.021  24.538  0.00  0.00    -0.158 OA
ATOM      4  O   UNL     1      11.716  13.063  22.775  0.00  0.00    -0.158 OA
ATOM     17  C   UNL     1      12.802  12.216  24.996  0.00  0.00    +0.215 C 
ENDBRANCH   7   1
BRANCH   8  15
ATOM     15  C   UNL     1      14.589   7.013  19.130  0.00  0.00    +0.144 C 
BRANCH  15  16
ATOM     16  C   UNL     1      15.984   6.620  19.521  0.00  0.00    -0.030 A 
ATOM     18  C   UNL     1      16.485   6.978  20.772  0.00  0.00    +0.009 A 
ATOM     19  C   UNL     1      16.780   5.897  18.632  0.00  0.00    +0.009 A 
ATOM     20  C   UNL     1      17.781   6.612  21.135  0.00  0.00    +0.046 A 
ATOM     21  C   UNL     1      18.076   5.531  18.995  0.00  0.00    +0.046 A 
ATOM     22  C   UNL     1      18.577   5.889  20.246  0.00  0.00    +0.120 A 
BRANCH  22   5
ATOM      5  O   UNL     1      19.842   5.532  20.601  0.00  0.00    -0.495 OA
ATOM     23  C   UNL     1      20.678   6.556  21.138  0.00  0.00    +0.277 C 
ENDBRANCH  22   5
ENDBRANCH  15  16
ENDBRANCH   8  15
TORSDOF 4
ENDMDL
MODEL 3
REMARK VINA RESULT:      -6.1      3.118      4.571
REMARK  Name = 75536999
REMARK  6 active torsions:
REMARK  status: ('A' for Active; 'I' for Inactive)
REMARK    1  A    between atoms: S_1  and  N_7
REMARK    2  A    between atoms: S_1  and  C_17
REMARK    3  A    between atoms: O_5  and  C_22
REMARK    4  A    between atoms: O_5  and  C_23
REMARK    5  A    between atoms: N_8  and  C_15
REMARK    6  A    between atoms: C_15  and  C_16
REMARK                            x       y       z     vdW  Elec       q    Type
REMARK                         _______ _______ _______ _____ _____    ______ ____
ROOT
ATOM      2  O   UNL     1      10.484   8.285  19.756  0.00  0.00    -0.252 OA
ATOM      6  N   UNL     1      11.627   9.136  21.624  0.00  0.00    -0.278 N 
ATOM      7  N   UNL     1      12.313  10.947  23.641  0.00  0.00    -0.178 NA
ATOM      8  N   UNL     1      12.828   8.169  19.989  0.00  0.00    -0.279 N 
ATOM      9  C   UNL     1      12.987   9.127  22.128  0.00  0.00    +0.111 C 
ATOM     10  C   UNL     1      13.364  10.503  22.666  0.00  0.00    +0.133 C 
ATOM     11  C   UNL     1      13.816   8.664  20.931  0.00  0.00    +0.133 C 
ATOM     12  C   UNL     1      10.560   9.668  22.448  0.00  0.00    +0.127 C 
ATOM     13  C   UNL     1      10.958  11.034  22.999  0.00  0.00    +0.128 C 
ATOM     14  C   UNL     1      11.515   8.500  20.380  0.00  0.00    +0.305 C 
ENDROOT
BRANCH   7   1
ATOM      1  S   UNL     1      12.744  12.286  24.620  0.00  0.00    +0.029 S 
ATOM      3  O   UNL     1      13.319  13.310  23.776  0.00  0.00    -0.158 OA
ATOM      4  O   UNL     1      13.426  11.799  25.798  0.00  0.00    -0.158 OA
ATOM     17  C   UNL     1      11.121  12.816  25.102  0.00  0.00    +0.215 C 
ENDBRANCH   7   1
BRANCH   8  15
ATOM     15  C   UNL     1      13.205   7.536  18.745  0.00  0.00    +0.144 C 
BRANCH  15  16
ATOM     16  C   UNL     1      13.267   8.518  17.611  0.00  0.00    -0.030 A 
ATOM     18  C   UNL     1      12.199   8.624  16.720  0.00  0.00    +0.009 A 
ATOM     19  C   UNL     1      14.393   9.324  17.447  0.00  0.00    +0.009 A 
ATOM     20  C   UNL     1      12.257   9.536  15.667  0.00  0.00    +0.046 A 
ATOM     21  C   UNL     1      14.451  10.237  16.394  0.00  0.00    +0.046 A 
ATOM     22  C   UNL     1      13.383  10.343  15.504  0.00  0.00    +0.120 A 
BRANCH  22   5
ATOM      5  O   UNL     1      13.439  11.234  14.476  0.00  0.00    -0.495 OA
ATOM     23  C   UNL     1      14.056  12.493  14.742  0.00  0.00    +0.277 C 
ENDBRANCH  22   5
ENDBRANCH  15  16
ENDBRANCH   8  15
TORSDOF 4
ENDMDL
MODEL 4
REMARK VINA RESULT:      -6.0     27.274     28.564
REMARK  Name = 75536999
REMARK  6 active torsions:
REMARK  status: ('A' for Active; 'I' for Inactive)
REMARK    1  A    between atoms: S_1  and  N_7
REMARK    2  A    between atoms: S_1  and  C_17
REMARK    3  A    between atoms: O_5  and  C_22
REMARK    4  A    between atoms: O_5  and  C_23
REMARK    5  A    between atoms: N_8  and  C_15
REMARK    6  A    between atoms: C_15  and  C_16
REMARK                            x       y       z     vdW  Elec       q    Type
REMARK                         _______ _______ _______ _____ _____    ______ ____
ROOT
ATOM      2  O   UNL     1      -3.430 -14.112  13.977  0.00  0.00    -0.252 OA
ATOM      6  N   UNL     1      -4.074 -12.621  15.676  0.00  0.00    -0.278 N 
ATOM      7  N   UNL     1      -5.779 -11.286  17.445  0.00  0.00    -0.178 NA
ATOM      8  N   UNL     1      -2.666 -11.883  14.088  0.00  0.00    -0.279 N 
ATOM      9  C   UNL     1      -3.718 -11.281  16.099  0.00  0.00    +0.111 C 
ATOM     10  C   UNL     1      -4.969 -10.489  16.465  0.00  0.00    +0.133 C 
ATOM     11  C   UNL     1      -2.935 -10.720  14.914  0.00  0.00    +0.133 C 
ATOM     12  C   UNL     1      -4.960 -13.422  16.497  0.00  0.00    +0.127 C 
ATOM     13  C   UNL     1      -6.196 -12.612  16.875  0.00  0.00    +0.128 C 
ATOM     14  C   UNL     1      -3.392 -13.012  14.515  0.00  0.00    +0.305 C 
ENDROOT
BRANCH   7   1
ATOM      1  S   UNL     1      -7.017 -10.415  18.249  0.00  0.00    +0.029 S 
ATOM      3  O   UNL     1      -7.338  -9.241  17.469  0.00  0.00    -0.158 OA
ATOM      4  O   UNL     1      -6.686 -10.331  19.653  0.00  0.00    -0.158 OA
ATOM     17  C   UNL     1      -8.343 -11.578  18.064  0.00  0.00    +0.215 C 
ENDBRANCH   7   1
BRANCH   8  15
ATOM     15  C   UNL     1      -1.846 -11.806  12.900  0.00  0.00    +0.144 C 
BRANCH  15  16
ATOM     16  C   UNL     1      -2.554 -11.112  11.772  0.00  0.00    -0.030 A 
ATOM     18  C   UNL     1      -3.594 -11.755  11.101  0.00  0.00    +0.009 A 
ATOM     19  C   UNL     1      -2.172  -9.825  11.395  0.00  0.00    +0.009 A 
ATOM     20  C   UNL     1      -4.252 -11.110  10.054  0.00  0.00    +0.046 A 
ATOM     21  C   UNL     1      -2.830  -9.180  10.348  0.00  0.00    +0.046 A 
ATOM     22  C   UNL     1      -3.870  -9.822   9.677  0.00  0.00    +0.120 A 
BRANCH  22   5
ATOM      5  O   UNL     1      -4.513  -9.193   8.656  0.00  0.00    -0.495 OA
ATOM     23  C   UNL     1      -5.278 -10.010   7.770  0.00  0.00    +0.277 C 
ENDBRANCH  22   5
ENDBRANCH  15  16
ENDBRANCH   8  15
TORSDOF 4
ENDMDL
MODEL 5
REMARK VINA RESULT:      -5.8      2.965      7.272
REMARK  Name = 75536999
REMARK  6 active torsions:
REMARK  status: ('A' for Active; 'I' for Inactive)
REMARK    1  A    between atoms: S_1  and  N_7
REMARK    2  A    between atoms: S_1  and  C_17
REMARK    3  A    between atoms: O_5  and  C_22
REMARK    4  A    between atoms: O_5  and  C_23
REMARK    5  A    between atoms: N_8  and  C_15
REMARK    6  A    between atoms: C_15  and  C_16
REMARK                            x       y       z     vdW  Elec       q    Type
REMARK                         _______ _______ _______ _____ _____    ______ ____
ROOT
ATOM      2  O   UNL     1      13.297   6.952  19.565  0.00  0.00    -0.252 OA
ATOM      6  N   UNL     1      15.518   7.615  19.952  0.00  0.00    -0.278 N 
ATOM      7  N   UNL     1      18.046   7.639  21.145  0.00  0.00    -0.178 NA
ATOM      8  N   UNL     1      13.962   9.212  19.676  0.00  0.00    -0.279 N 
ATOM      9  C   UNL     1      16.266   8.858  19.961  0.00  0.00    +0.111 C 
ATOM     10  C   UNL     1      17.223   8.894  21.148  0.00  0.00    +0.133 C 
ATOM     11  C   UNL     1      15.183   9.934  19.984  0.00  0.00    +0.133 C 
ATOM     12  C   UNL     1      16.221   6.353  20.076  0.00  0.00    +0.127 C 
ATOM     13  C   UNL     1      17.191   6.410  21.252  0.00  0.00    +0.128 C 
ATOM     14  C   UNL     1      14.153   7.817  19.709  0.00  0.00    +0.305 C 
ENDROOT
BRANCH   7   1
ATOM      1  S   UNL     1      19.419   7.665  22.172  0.00  0.00    +0.029 S 
ATOM      3  O   UNL     1      19.472   6.418  22.904  0.00  0.00    -0.158 OA
ATOM      4  O   UNL     1      19.471   8.944  22.843  0.00  0.00    -0.158 OA
ATOM     17  C   UNL     1      20.693   7.636  20.939  0.00  0.00    +0.215 C 
ENDBRANCH   7   1
BRANCH   8  15
ATOM     15  C   UNL     1      12.697   9.888  19.497  0.00  0.00    +0.144 C 
BRANCH  15  16
ATOM     16  C   UNL     1      12.109  10.338  20.804  0.00  0.00    -0.030 A 
ATOM     18  C   UNL     1      12.254  11.662  21.215  0.00  0.00    +0.009 A 
ATOM     19  C   UNL     1      11.419   9.430  21.606  0.00  0.00    +0.009 A 
ATOM     20  C   UNL     1      11.708  12.079  22.429  0.00  0.00    +0.046 A 
ATOM     21  C   UNL     1      10.873   9.846  22.820  0.00  0.00    +0.046 A 
ATOM     22  C   UNL     1      11.017  11.171  23.232  0.00  0.00    +0.120 A 
BRANCH  22   5
ATOM      5  O   UNL     1      10.484  11.578  24.416  0.00  0.00    -0.495 OA
ATOM     23  C   UNL     1      10.425  12.985  24.651  0.00  0.00    +0.277 C 
ENDBRANCH  22   5
ENDBRANCH  15  16
ENDBRANCH   8  15
TORSDOF 4
ENDMDL
MODEL 6
REMARK VINA RESULT:      -5.8     26.432     28.592
REMARK  Name = 75536999
REMARK  6 active torsions:
REMARK  status: ('A' for Active; 'I' for Inactive)
REMARK    1  A    between atoms: S_1  and  N_7
REMARK    2  A    between atoms: S_1  and  C_17
REMARK    3  A    between atoms: O_5  and  C_22
REMARK    4  A    between atoms: O_5  and  C_23
REMARK    5  A    between atoms: N_8  and  C_15
REMARK    6  A    between atoms: C_15  and  C_16
REMARK                            x       y       z     vdW  Elec       q    Type
REMARK                         _______ _______ _______ _____ _____    ______ ____
ROOT
ATOM      2  O   UNL     1      -1.147  -9.499  14.706  0.00  0.00    -0.252 OA
ATOM      6  N   UNL     1      -2.281 -10.577  12.953  0.00  0.00    -0.278 N 
ATOM      7  N   UNL     1      -3.595 -10.859  10.501  0.00  0.00    -0.178 NA
ATOM      8  N   UNL     1      -2.907 -11.028  15.063  0.00  0.00    -0.279 N 
ATOM      9  C   UNL     1      -3.282 -11.618  12.821  0.00  0.00    +0.111 C 
ATOM     10  C   UNL     1      -4.313 -11.235  11.764  0.00  0.00    +0.133 C 
ATOM     11  C   UNL     1      -3.844 -11.764  14.234  0.00  0.00    +0.133 C 
ATOM     12  C   UNL     1      -1.626 -10.057  11.769  0.00  0.00    +0.127 C 
ATOM     13  C   UNL     1      -2.665  -9.699  10.711  0.00  0.00    +0.128 C 
ATOM     14  C   UNL     1      -2.001 -10.273  14.292  0.00  0.00    +0.305 C 
ENDROOT
BRANCH   7   1
ATOM      1  S   UNL     1      -4.583 -10.759   9.103  0.00  0.00    +0.029 S 
ATOM      3  O   UNL     1      -4.332 -11.917   8.275  0.00  0.00    -0.158 OA
ATOM      4  O   UNL     1      -4.504  -9.415   8.577  0.00  0.00    -0.158 OA
ATOM     17  C   UNL     1      -6.171 -10.960   9.866  0.00  0.00    +0.215 C 
ENDBRANCH   7   1
BRANCH   8  15
ATOM     15  C   UNL     1      -3.017 -11.001  16.505  0.00  0.00    +0.144 C 
BRANCH  15  16
ATOM     16  C   UNL     1      -4.415 -10.691  16.956  0.00  0.00    -0.030 A 
ATOM     18  C   UNL     1      -4.923 -11.285  18.111  0.00  0.00    +0.009 A 
ATOM     19  C   UNL     1      -5.206  -9.810  16.219  0.00  0.00    +0.009 A 
ATOM     20  C   UNL     1      -6.222 -10.997  18.529  0.00  0.00    +0.046 A 
ATOM     21  C   UNL     1      -6.505  -9.522  16.637  0.00  0.00    +0.046 A 
ATOM     22  C   UNL     1      -7.014 -10.115  17.792  0.00  0.00    +0.120 A 
BRANCH  22   5
ATOM      5  O   UNL     1      -8.281  -9.834  18.202  0.00  0.00    -0.495 OA
ATOM     23  C   UNL     1      -9.222  -9.469  17.193  0.00  0.00    +0.277 C 
ENDBRANCH  22   5
ENDBRANCH  15  16
ENDBRANCH   8  15
TORSDOF 4
ENDMDL
MODEL 7
REMARK VINA RESULT:      -5.7      2.783      5.131
REMARK  Name = 75536999
REMARK  6 active torsions:
REMARK  status: ('A' for Active; 'I' for Inactive)
REMARK    1  A    between atoms: S_1  and  N_7
REMARK    2  A    between atoms: S_1  and  C_17
REMARK    3  A    between atoms: O_5  and  C_22
REMARK    4  A    between atoms: O_5  and  C_23
REMARK    5  A    between atoms: N_8  and  C_15
REMARK    6  A    between atoms: C_15  and  C_16
REMARK                            x       y       z     vdW  Elec       q    Type
REMARK                         _______ _______ _______ _____ _____    ______ ____
ROOT
ATOM      2  O   UNL     1      17.406   6.554  19.478  0.00  0.00    -0.252 OA
ATOM      6  N   UNL     1      15.513   7.375  20.602  0.00  0.00    -0.278 N 
ATOM      7  N   UNL     1      12.885   8.265  20.948  0.00  0.00    -0.178 NA
ATOM      8  N   UNL     1      17.500   8.335  21.021  0.00  0.00    -0.279 N 
ATOM      9  C   UNL     1      15.240   8.331  21.658  0.00  0.00    +0.111 C 
ATOM     10  C   UNL     1      14.020   9.177  21.308  0.00  0.00    +0.133 C 
ATOM     11  C   UNL     1      16.543   9.116  21.784  0.00  0.00    +0.133 C 
ATOM     12  C   UNL     1      14.442   6.538  20.098  0.00  0.00    +0.127 C 
ATOM     13  C   UNL     1      13.221   7.392  19.773  0.00  0.00    +0.128 C 
ATOM     14  C   UNL     1      16.873   7.321  20.270  0.00  0.00    +0.305 C 
ENDROOT
BRANCH   7   1
ATOM      1  S   UNL     1      11.342   9.009  20.886  0.00  0.00    +0.029 S 
ATOM      3  O   UNL     1      10.599   8.443  19.782  0.00  0.00    -0.158 OA
ATOM      4  O   UNL     1      11.510  10.437  21.039  0.00  0.00    -0.158 OA
ATOM     17  C   UNL     1      10.661   8.370  22.394  0.00  0.00    +0.215 C 
ENDBRANCH   7   1
BRANCH   8  15
ATOM     15  C   UNL     1      18.903   8.681  20.968  0.00  0.00    +0.144 C 
BRANCH  15  16
ATOM     16  C   UNL     1      19.746   7.735  21.774  0.00  0.00    -0.030 A 
ATOM     18  C   UNL     1      20.382   6.662  21.151  0.00  0.00    +0.009 A 
ATOM     19  C   UNL     1      19.893   7.930  23.148  0.00  0.00    +0.009 A 
ATOM     20  C   UNL     1      21.165   5.784  21.900  0.00  0.00    +0.046 A 
ATOM     21  C   UNL     1      20.676   7.052  23.897  0.00  0.00    +0.046 A 
ATOM     22  C   UNL     1      21.312   5.979  23.274  0.00  0.00    +0.120 A 
BRANCH  22   5
ATOM      5  O   UNL     1      22.077   5.122  24.004  0.00  0.00    -0.495 OA
ATOM     23  C   UNL     1      22.543   5.588  25.270  0.00  0.00    +0.277 C 
ENDBRANCH  22   5
ENDBRANCH  15  16
ENDBRANCH   8  15
TORSDOF 4
ENDMDL
MODEL 8
REMARK VINA RESULT:      -5.7      3.319      4.931
REMARK  Name = 75536999
REMARK  6 active torsions:
REMARK  status: ('A' for Active; 'I' for Inactive)
REMARK    1  A    between atoms: S_1  and  N_7
REMARK    2  A    between atoms: S_1  and  C_17
REMARK    3  A    between atoms: O_5  and  C_22
REMARK    4  A    between atoms: O_5  and  C_23
REMARK    5  A    between atoms: N_8  and  C_15
REMARK    6  A    between atoms: C_15  and  C_16
REMARK                            x       y       z     vdW  Elec       q    Type
REMARK                         _______ _______ _______ _____ _____    ______ ____
ROOT
ATOM      2  O   UNL     1      17.344  10.763  20.365  0.00  0.00    -0.252 OA
ATOM      6  N   UNL     1      15.609   9.184  20.230  0.00  0.00    -0.278 N 
ATOM      7  N   UNL     1      12.995   8.192  20.278  0.00  0.00    -0.178 NA
ATOM      8  N   UNL     1      17.450   8.648  21.401  0.00  0.00    -0.279 N 
ATOM      9  C   UNL     1      15.400   7.804  20.625  0.00  0.00    +0.111 C 
ATOM     10  C   UNL     1      14.011   7.627  21.227  0.00  0.00    +0.133 C 
ATOM     11  C   UNL     1      16.551   7.523  21.588  0.00  0.00    +0.133 C 
ATOM     12  C   UNL     1      14.614   9.856  19.418  0.00  0.00    +0.127 C 
ATOM     13  C   UNL     1      13.227   9.653  20.018  0.00  0.00    +0.128 C 
ATOM     14  C   UNL     1      16.862   9.669  20.629  0.00  0.00    +0.305 C 
ENDROOT
BRANCH   7   1
ATOM      1  S   UNL     1      11.370   7.758  20.604  0.00  0.00    +0.029 S 
ATOM      3  O   UNL     1      11.305   6.328  20.807  0.00  0.00    -0.158 OA
ATOM      4  O   UNL     1      10.511   8.433  19.658  0.00  0.00    -0.158 OA
ATOM     17  C   UNL     1      11.180   8.547  22.181  0.00  0.00    +0.215 C 
ENDBRANCH   7   1
BRANCH   8  15
ATOM     15  C   UNL     1      18.734   8.721  22.062  0.00  0.00    +0.144 C 
BRANCH  15  16
ATOM     16  C   UNL     1      19.540   7.469  21.865  0.00  0.00    -0.030 A 
ATOM     18  C   UNL     1      19.485   6.789  20.648  0.00  0.00    +0.009 A 
ATOM     19  C   UNL     1      20.342   6.986  22.898  0.00  0.00    +0.009 A 
ATOM     20  C   UNL     1      20.234   5.626  20.466  0.00  0.00    +0.046 A 
ATOM     21  C   UNL     1      21.091   5.824  22.715  0.00  0.00    +0.046 A 
ATOM     22  C   UNL     1      21.037   5.143  21.499  0.00  0.00    +0.120 A 
BRANCH  22   5
ATOM      5  O   UNL     1      21.768   4.009  21.319  0.00  0.00    -0.495 OA
ATOM     23  C   UNL     1      22.191   3.318  22.494  0.00  0.00    +0.277 C 
ENDBRANCH  22   5
ENDBRANCH  15  16
ENDBRANCH   8  15
TORSDOF 4
ENDMDL
MODEL 9
REMARK VINA RESULT:      -5.7      2.067      3.185
REMARK  Name = 75536999
REMARK  6 active torsions:
REMARK  status: ('A' for Active; 'I' for Inactive)
REMARK    1  A    between atoms: S_1  and  N_7
REMARK    2  A    between atoms: S_1  and  C_17
REMARK    3  A    between atoms: O_5  and  C_22
REMARK    4  A    between atoms: O_5  and  C_23
REMARK    5  A    between atoms: N_8  and  C_15
REMARK    6  A    between atoms: C_15  and  C_16
REMARK                            x       y       z     vdW  Elec       q    Type
REMARK                         _______ _______ _______ _____ _____    ______ ____
ROOT
ATOM      2  O   UNL     1      10.140   8.962  22.408  0.00  0.00    -0.252 OA
ATOM      6  N   UNL     1      11.452  10.804  23.048  0.00  0.00    -0.278 N 
ATOM      7  N   UNL     1      12.042  13.331  24.088  0.00  0.00    -0.178 NA
ATOM      8  N   UNL     1      11.834   9.869  21.041  0.00  0.00    -0.279 N 
ATOM      9  C   UNL     1      12.608  11.511  22.531  0.00  0.00    +0.111 C 
ATOM     10  C   UNL     1      12.415  13.018  22.668  0.00  0.00    +0.133 C 
ATOM     11  C   UNL     1      12.725  11.014  21.092  0.00  0.00    +0.133 C 
ATOM     12  C   UNL     1      10.939  11.132  24.363  0.00  0.00    +0.127 C 
ATOM     13  C   UNL     1      10.772  12.642  24.497  0.00  0.00    +0.128 C 
ATOM     14  C   UNL     1      11.032   9.774  22.195  0.00  0.00    +0.305 C 
ENDROOT
BRANCH   7   1
ATOM      1  S   UNL     1      12.146  14.986  24.522  0.00  0.00    +0.029 S 
ATOM      3  O   UNL     1      13.280  15.572  23.841  0.00  0.00    -0.158 OA
ATOM      4  O   UNL     1      11.974  15.102  25.952  0.00  0.00    -0.158 OA
ATOM     17  C   UNL     1      10.668  15.575  23.739  0.00  0.00    +0.215 C 
ENDBRANCH   7   1
BRANCH   8  15
ATOM     15  C   UNL     1      11.726   9.034  19.865  0.00  0.00    +0.144 C 
BRANCH  15  16
ATOM     16  C   UNL     1      12.965   8.215  19.642  0.00  0.00    -0.030 A 
ATOM     18  C   UNL     1      13.626   8.271  18.416  0.00  0.00    +0.009 A 
ATOM     19  C   UNL     1      13.454   7.398  20.661  0.00  0.00    +0.009 A 
ATOM     20  C   UNL     1      14.777   7.511  18.209  0.00  0.00    +0.046 A 
ATOM     21  C   UNL     1      14.604   6.638  20.454  0.00  0.00    +0.046 A 
ATOM     22  C   UNL     1      15.267   6.694  19.228  0.00  0.00    +0.120 A 
BRANCH  22   5
ATOM      5  O   UNL     1      16.390   5.953  19.026  0.00  0.00    -0.495 OA
ATOM     23  C   UNL     1      17.575   6.374  19.701  0.00  0.00    +0.277 C 
ENDBRANCH  22   5
ENDBRANCH  15  16
ENDBRANCH   8  15
TORSDOF 4
ENDMDL
MODEL 10
REMARK VINA RESULT:      -5.7      4.755      8.627
REMARK  Name = 75536999
REMARK  6 active torsions:
REMARK  status: ('A' for Active; 'I' for Inactive)
REMARK    1  A    between atoms: S_1  and  N_7
REMARK    2  A    between atoms: S_1  and  C_17
REMARK    3  A    between atoms: O_5  and  C_22
REMARK    4  A    between atoms: O_5  and  C_23
REMARK    5  A    between atoms: N_8  and  C_15
REMARK    6  A    between atoms: C_15  and  C_16
REMARK                            x       y       z     vdW  Elec       q    Type
REMARK                         _______ _______ _______ _____ _____    ______ ____
ROOT
ATOM      2  O   UNL     1      18.402  10.103  22.184  0.00  0.00    -0.252 OA
ATOM      6  N   UNL     1      19.054   7.851  22.013  0.00  0.00    -0.278 N 
ATOM      7  N   UNL     1      20.770   5.664  21.718  0.00  0.00    -0.178 NA
ATOM      8  N   UNL     1      17.260   8.533  20.844  0.00  0.00    -0.279 N 
ATOM      9  C   UNL     1      18.533   6.641  21.407  0.00  0.00    +0.111 C 
ATOM     10  C   UNL     1      19.655   5.858  20.733  0.00  0.00    +0.133 C 
ATOM     11  C   UNL     1      17.451   7.147  20.456  0.00  0.00    +0.133 C 
ATOM     12  C   UNL     1      20.214   7.778  22.880  0.00  0.00    +0.127 C 
ATOM     13  C   UNL     1      21.320   6.974  22.205  0.00  0.00    +0.128 C 
ATOM     14  C   UNL     1      18.256   8.971  21.740  0.00  0.00    +0.305 C 
ENDROOT
BRANCH   7   1
ATOM      1  S   UNL     1      21.946   4.501  21.269  0.00  0.00    +0.029 S 
ATOM      3  O   UNL     1      22.890   5.122  20.367  0.00  0.00    -0.158 OA
ATOM      4  O   UNL     1      21.273   3.266  20.936  0.00  0.00    -0.158 OA
ATOM     17  C   UNL     1      22.743   4.287  22.839  0.00  0.00    +0.215 C 
ENDBRANCH   7   1
BRANCH   8  15
ATOM     15  C   UNL     1      16.234   9.361  20.251  0.00  0.00    +0.144 C 
BRANCH  15  16
ATOM     16  C   UNL     1      14.873   8.739  20.366  0.00  0.00    -0.030 A 
ATOM     18  C   UNL     1      14.216   8.280  19.225  0.00  0.00    +0.009 A 
ATOM     19  C   UNL     1      14.264   8.620  21.616  0.00  0.00    +0.009 A 
ATOM     20  C   UNL     1      12.952   7.701  19.333  0.00  0.00    +0.046 A 
ATOM     21  C   UNL     1      13.000   8.042  21.724  0.00  0.00    +0.046 A 
ATOM     22  C   UNL     1      12.343   7.582  20.583  0.00  0.00    +0.120 A 
BRANCH  22   5
ATOM      5  O   UNL     1      11.109   7.017  20.688  0.00  0.00    -0.495 OA
ATOM     23  C   UNL     1      10.372   7.286  21.880  0.00  0.00    +0.277 C 
ENDBRANCH  22   5
ENDBRANCH  15  16
ENDBRANCH   8  15
TORSDOF 4
ENDMDL
