REMARK  Name = 40779467
REMARK  11 active torsions:
REMARK  status: ('A' for Active; 'I' for Inactive)
REMARK    1  A    between atoms: S_1  and  N_8
REMARK    2  A    between atoms: S_1  and  C_23
REMARK    3  A    between atoms: O_4  and  C_26
REMARK    4  A    between atoms: O_4  and  C_38
REMARK    5  A    between atoms: O_5  and  C_31
REMARK    6  A    between atoms: O_5  and  C_39
REMARK    7  A    between atoms: N_7  and  C_21
REMARK    8  A    between atoms: N_8  and  C_17
REMARK    9  A    between atoms: C_11  and  C_18
REMARK   10  A    between atoms: C_12  and  C_17
REMARK   11  A    between atoms: C_20  and  C_22
REMARK                            x       y       z     vdW  Elec       q    Type
REMARK                         _______ _______ _______ _____ _____    ______ ____
ROOT
ATOM      6  N   UNL     1       4.436   1.697   0.271  0.00  0.00    -0.297 NA
ATOM     10  C   UNL     1       2.755   2.789  -1.392  0.00  0.00    +0.002 C 
ATOM     11  C   UNL     1       2.300   3.025   0.075  0.00  0.00    +0.055 C 
ATOM     12  C   UNL     1       4.046   0.715  -0.774  0.00  0.00    +0.072 C 
ATOM     13  C   UNL     1       2.899   1.273  -1.644  0.00  0.00    +0.024 C 
ATOM     14  C   UNL     1       4.164   3.406  -1.525  0.00  0.00    +0.019 C 
ATOM     15  C   UNL     1       3.231   2.180   0.991  0.00  0.00    +0.094 C 
ATOM     16  C   UNL     1       5.066   2.856  -0.406  0.00  0.00    +0.085 C 
ENDROOT
BRANCH  11  18
ATOM      7  N   UNL     1       0.189   3.530   1.390  0.00  0.00    -0.270 N 
ATOM      9  N   UNL     1      -1.109   3.209   1.530  0.00  0.00    -0.171 NA
ATOM     18  C   UNL     1       0.828   2.829   0.410  0.00  0.00    +0.044 A 
ATOM     19  C   UNL     1      -0.117   1.991  -0.129  0.00  0.00    +0.053 A 
ATOM     20  C   UNL     1      -1.290   2.268   0.599  0.00  0.00    +0.093 A 
ATOM     21  C   UNL     1       0.763   4.538   2.251  0.00  0.00    +0.172 C 
BRANCH  20  22
ATOM     22  C   UNL     1      -2.579   1.651   0.423  0.00  0.00    +0.003 A 
ATOM     24  C   UNL     1      -2.963   1.185  -0.834  0.00  0.00    +0.018 A 
ATOM     25  C   UNL     1      -3.440   1.519   1.509  0.00  0.00    +0.011 A 
ATOM     28  C   UNL     1      -4.217   0.580  -1.022  0.00  0.00    -0.017 A 
ATOM     29  C   UNL     1      -4.689   0.921   1.340  0.00  0.00    +0.009 A 
ATOM     30  C   UNL     1      -5.093   0.446   0.082  0.00  0.00    -0.018 A 
ATOM     34  C   UNL     1      -4.620   0.105  -2.280  0.00  0.00    +0.008 A 
ATOM     35  C   UNL     1      -6.346  -0.159  -0.106  0.00  0.00    +0.008 A 
ATOM     36  C   UNL     1      -5.869  -0.493  -2.449  0.00  0.00    +0.001 A 
ATOM     37  C   UNL     1      -6.731  -0.625  -1.364  0.00  0.00    +0.001 A 
ENDBRANCH  20  22
ENDBRANCH  11  18
BRANCH  12  17
ATOM     17  C   UNL     1       3.702  -0.655  -0.187  0.00  0.00    +0.124 C 
BRANCH  17   8
ATOM      8  N   UNL     1       3.448  -1.602  -1.286  0.00  0.00    -0.188 NA
ATOM     40  H   UNL     1       3.064  -1.208  -2.152  0.00  0.00    +0.148 HD
BRANCH   8   1
ATOM      1  S   UNL     1       3.045  -3.221  -0.944  0.00  0.00    +0.062 S 
ATOM      2  O   UNL     1       4.054  -3.793  -0.073  0.00  0.00    -0.153 OA
ATOM      3  O   UNL     1       2.683  -3.891  -2.179  0.00  0.00    -0.153 OA
BRANCH   1  23
ATOM     23  C   UNL     1       1.559  -3.032  -0.005  0.00  0.00    +0.150 A 
ATOM     26  C   UNL     1       0.380  -2.598  -0.610  0.00  0.00    +0.147 A 
ATOM     27  C   UNL     1       1.577  -3.323   1.359  0.00  0.00    +0.077 A 
ATOM     31  C   UNL     1       0.415  -3.180   2.118  0.00  0.00    +0.122 A 
ATOM     32  C   UNL     1      -0.782  -2.454   0.148  0.00  0.00    +0.051 A 
ATOM     33  C   UNL     1      -0.764  -2.746   1.512  0.00  0.00    +0.049 A 
BRANCH  26   4
ATOM      4  O   UNL     1       0.340  -2.308  -1.941  0.00  0.00    -0.493 OA
ATOM     38  C   UNL     1      -0.910  -1.871  -2.471  0.00  0.00    +0.277 C 
ENDBRANCH  26   4
BRANCH  31   5
ATOM      5  O   UNL     1       0.431  -3.465   3.449  0.00  0.00    -0.495 OA
ATOM     39  C   UNL     1      -0.792  -3.299   4.163  0.00  0.00    +0.277 C 
ENDBRANCH  31   5
ENDBRANCH   1  23
ENDBRANCH   8   1
ENDBRANCH  17   8
ENDBRANCH  12  17
TORSDOF 8
