REMARK  Name = 26742334
REMARK  9 active torsions:
REMARK  status: ('A' for Active; 'I' for Inactive)
REMARK    1  A    between atoms: O_2  and  C_22
REMARK    2  A    between atoms: O_2  and  C_29
REMARK    3  A    between atoms: N_4  and  C_19
REMARK    4  A    between atoms: N_5  and  C_16
REMARK    5  A    between atoms: N_7  and  C_24
REMARK    6  A    between atoms: C_9  and  C_15
REMARK    7  A    between atoms: C_10  and  C_16
REMARK    8  A    between atoms: C_18  and  C_21
REMARK    9  A    between atoms: C_24  and  C_28
REMARK                            x       y       z     vdW  Elec       q    Type
REMARK                         _______ _______ _______ _____ _____    ______ ____
ROOT
ATOM      3  N   UNL     1       2.215  -3.832   0.463  0.00  0.00    -0.297 NA
ATOM      8  C   UNL     1       1.819  -2.405  -1.679  0.00  0.00    +0.002 C 
ATOM      9  C   UNL     1       2.875  -1.728  -0.763  0.00  0.00    +0.055 C 
ATOM     10  C   UNL     1       0.758  -3.622   0.255  0.00  0.00    +0.074 C 
ATOM     11  C   UNL     1       0.512  -2.611  -0.886  0.00  0.00    +0.024 C 
ATOM     12  C   UNL     1       2.365  -3.807  -2.027  0.00  0.00    +0.019 C 
ATOM     13  C   UNL     1       2.907  -2.523   0.574  0.00  0.00    +0.094 C 
ATOM     14  C   UNL     1       2.748  -4.537  -0.728  0.00  0.00    +0.085 C 
ENDROOT
BRANCH   9  15
ATOM      4  N   UNL     1       3.861   0.566  -0.309  0.00  0.00    -0.270 N 
ATOM      6  N   UNL     1       3.560   1.864  -0.135  0.00  0.00    -0.171 NA
ATOM     15  C   UNL     1       2.775  -0.226  -0.538  0.00  0.00    +0.044 A 
ATOM     17  C   UNL     1       1.687   0.612  -0.512  0.00  0.00    +0.053 A 
ATOM     18  C   UNL     1       2.230   1.886  -0.260  0.00  0.00    +0.096 A 
ATOM     19  C   UNL     1       5.242   0.147  -0.238  0.00  0.00    +0.172 C 
BRANCH  18  21
ATOM     21  C   UNL     1       1.504   3.123  -0.135  0.00  0.00    +0.044 A 
ATOM     22  C   UNL     1       0.532   3.285   0.852  0.00  0.00    +0.129 A 
ATOM     23  C   UNL     1       1.783   4.166  -1.017  0.00  0.00    +0.014 A 
ATOM     25  C   UNL     1      -0.161   4.492   0.957  0.00  0.00    +0.046 A 
ATOM     26  C   UNL     1       1.090   5.372  -0.913  0.00  0.00    +0.001 A 
ATOM     27  C   UNL     1       0.118   5.535   0.074  0.00  0.00    +0.004 A 
BRANCH  22   2
ATOM      2  O   UNL     1       0.238   2.283   1.728  0.00  0.00    -0.494 OA
ATOM     29  C   UNL     1       0.984   2.246   2.943  0.00  0.00    +0.277 C 
ENDBRANCH  22   2
ENDBRANCH  18  21
ENDBRANCH   9  15
BRANCH  10  16
ATOM     16  C   UNL     1       0.038  -3.216   1.542  0.00  0.00    +0.124 C 
BRANCH  16   5
ATOM      1  O   UNL     1      -1.622  -0.895   1.890  0.00  0.00    -0.253 OA
ATOM      5  N   UNL     1      -1.375  -3.135   1.333  0.00  0.00    -0.298 N 
ATOM      7  N   UNL     1      -3.466  -2.154   1.253  0.00  0.00    -0.295 N 
ATOM     20  C   UNL     1      -2.114  -1.962   1.525  0.00  0.00    +0.300 C 
ATOM     35  H   UNL     1      -1.873  -3.981   1.076  0.00  0.00    +0.150 HD
ATOM     36  H   UNL     1      -3.771  -3.068   0.933  0.00  0.00    +0.151 HD
BRANCH   7  24
ATOM     24  C   UNL     1      -4.453  -1.107   1.371  0.00  0.00    +0.141 C 
BRANCH  24  28
ATOM     28  C   UNL     1      -4.620  -0.345   0.088  0.00  0.00    -0.030 A 
ATOM     30  C   UNL     1      -3.836   0.782  -0.161  0.00  0.00    +0.005 A 
ATOM     31  C   UNL     1      -5.559  -0.763  -0.855  0.00  0.00    +0.005 A 
ATOM     32  C   UNL     1      -3.991   1.490  -1.353  0.00  0.00    +0.000 A 
ATOM     33  C   UNL     1      -5.714  -0.056  -2.046  0.00  0.00    +0.000 A 
ATOM     34  C   UNL     1      -4.930   1.071  -2.296  0.00  0.00    +0.000 A 
ENDBRANCH  24  28
ENDBRANCH   7  24
ENDBRANCH  16   5
ENDBRANCH  10  16
TORSDOF 7
