MODEL 1
REMARK VINA RESULT:      -6.5      0.000      0.000
REMARK  Name = 51138129
REMARK  8 active torsions:
REMARK  status: ('A' for Active; 'I' for Inactive)
REMARK    1  A    between atoms: N_4  and  C_26
REMARK    2  A    between atoms: N_5  and  C_27
REMARK    3  A    between atoms: C_6  and  C_12
REMARK    4  A    between atoms: C_7  and  C_14
REMARK    5  A    between atoms: C_12  and  C_15
REMARK    6  A    between atoms: C_15  and  C_24
REMARK    7  A    between atoms: C_15  and  C_25
REMARK    8  A    between atoms: C_26  and  C_28
REMARK                            x       y       z     vdW  Elec       q    Type
REMARK                         _______ _______ _______ _____ _____    ______ ____
ROOT
ATOM      2  N   UNL     1      14.912   9.589  19.327  0.00  0.00    -0.299 NA
ATOM      4  N   UNL     1      11.777  10.781  23.101  0.00  0.00    -0.343 N 
ATOM      6  C   UNL     1      13.766   8.681  19.193  0.00  0.00    +0.085 C 
ATOM      7  C   UNL     1      14.572  11.004  19.320  0.00  0.00    +0.145 C 
ATOM      8  C   UNL     1      14.468  11.562  20.739  0.00  0.00    +0.065 C 
ATOM      9  C   UNL     1      12.747   8.716  20.337  0.00  0.00    -0.021 A 
ATOM     10  C   UNL     1      12.639   9.754  21.306  0.00  0.00    +0.008 A 
ATOM     11  C   UNL     1      13.340  10.990  21.532  0.00  0.00    -0.020 A 
ATOM     13  C   UNL     1      11.652   9.673  22.296  0.00  0.00    +0.050 A 
ATOM     16  C   UNL     1      12.784  11.581  22.648  0.00  0.00    +0.090 A 
ATOM     19  C   UNL     1      11.776   7.686  20.413  0.00  0.00    +0.006 A 
ATOM     22  C   UNL     1      10.733   8.626  22.382  0.00  0.00    +0.026 A 
ATOM     23  C   UNL     1      10.804   7.636  21.410  0.00  0.00    +0.002 A 
ATOM     30  H   UNL     1      15.474   9.348  20.143  0.00  0.00    +0.123 HD
ENDROOT
BRANCH   7  14
ATOM      1  O   UNL     1      16.765  11.871  19.211  0.00  0.00    -0.274 OA
ATOM      3  N   UNL     1      15.480  12.047  17.284  0.00  0.00    -0.298 N 
ATOM      5  N   UNL     1      15.455  12.164  14.422  0.00  0.00    -0.302 NA
ATOM     14  C   UNL     1      15.706  11.678  18.610  0.00  0.00    +0.233 C 
ATOM     17  C   UNL     1      14.232  11.830  16.545  0.00  0.00    +0.123 C 
ATOM     18  C   UNL     1      16.483  12.828  16.564  0.00  0.00    +0.123 C 
ATOM     20  C   UNL     1      14.511  11.295  15.139  0.00  0.00    +0.103 C 
ATOM     21  C   UNL     1      16.721  12.269  15.163  0.00  0.00    +0.103 C 
ATOM     27  C   UNL     1      15.690  11.661  13.070  0.00  0.00    +0.105 C 
ENDBRANCH   7  14
BRANCH   6  12
ATOM     12  C   UNL     1      14.392   7.287  19.004  0.00  0.00    +0.026 C 
BRANCH  12  15
ATOM     15  C   UNL     1      15.717   7.119  19.753  0.00  0.00    -0.015 C 
ATOM     24  C   UNL     1      16.602   6.124  18.998  0.00  0.00    +0.007 C 
ATOM     25  C   UNL     1      15.524   6.648  21.195  0.00  0.00    +0.007 C 
ENDBRANCH  12  15
ENDBRANCH   6  12
BRANCH   4  26
ATOM     26  C   UNL     1      10.955  11.082  24.254  0.00  0.00    +0.148 C 
BRANCH  26  28
ATOM     28  C   UNL     1      10.583  12.534  24.328  0.00  0.00    -0.013 C 
ATOM     29  C   UNL     1      10.611  13.255  25.455  0.00  0.00    +0.005 C 
ENDBRANCH  26  28
ENDBRANCH   4  26
TORSDOF 5
ENDMDL
MODEL 2
REMARK VINA RESULT:      -6.4     27.242     30.342
REMARK  Name = 51138129
REMARK  8 active torsions:
REMARK  status: ('A' for Active; 'I' for Inactive)
REMARK    1  A    between atoms: N_4  and  C_26
REMARK    2  A    between atoms: N_5  and  C_27
REMARK    3  A    between atoms: C_6  and  C_12
REMARK    4  A    between atoms: C_7  and  C_14
REMARK    5  A    between atoms: C_12  and  C_15
REMARK    6  A    between atoms: C_15  and  C_24
REMARK    7  A    between atoms: C_15  and  C_25
REMARK    8  A    between atoms: C_26  and  C_28
REMARK                            x       y       z     vdW  Elec       q    Type
REMARK                         _______ _______ _______ _____ _____    ______ ____
ROOT
ATOM      2  N   UNL     1      -6.577 -12.085  15.791  0.00  0.00    -0.299 NA
ATOM      4  N   UNL     1      -3.622 -10.422  12.050  0.00  0.00    -0.343 N 
ATOM      6  C   UNL     1      -5.371 -11.557  16.441  0.00  0.00    +0.085 C 
ATOM      7  C   UNL     1      -7.272 -11.135  14.934  0.00  0.00    +0.145 C 
ATOM      8  C   UNL     1      -6.881 -11.312  13.468  0.00  0.00    +0.065 C 
ATOM      9  C   UNL     1      -4.227 -11.155  15.505  0.00  0.00    -0.021 A 
ATOM     10  C   UNL     1      -4.355 -10.932  14.104  0.00  0.00    +0.008 A 
ATOM     11  C   UNL     1      -5.454 -10.983  13.179  0.00  0.00    -0.020 A 
ATOM     13  C   UNL     1      -3.230 -10.553  13.361  0.00  0.00    +0.050 A 
ATOM     16  C   UNL     1      -4.957 -10.672  11.930  0.00  0.00    +0.090 A 
ATOM     19  C   UNL     1      -2.949 -10.902  16.065  0.00  0.00    +0.006 A 
ATOM     22  C   UNL     1      -1.968 -10.354  13.923  0.00  0.00    +0.026 A 
ATOM     23  C   UNL     1      -1.850 -10.523  15.297  0.00  0.00    +0.002 A 
ATOM     30  H   UNL     1      -6.373 -12.950  15.292  0.00  0.00    +0.123 HD
ENDROOT
BRANCH   7  14
ATOM      1  O   UNL     1      -9.257 -12.265  14.336  0.00  0.00    -0.274 OA
ATOM      3  N   UNL     1      -9.399 -10.788  16.123  0.00  0.00    -0.298 N 
ATOM      5  N   UNL     1     -10.701 -10.127  18.588  0.00  0.00    -0.302 NA
ATOM     14  C   UNL     1      -8.728 -11.451  15.096  0.00  0.00    +0.233 C 
ATOM     17  C   UNL     1      -8.797  -9.817  17.041  0.00  0.00    +0.123 C 
ATOM     18  C   UNL     1     -10.846 -10.938  16.262  0.00  0.00    +0.123 C 
ATOM     20  C   UNL     1      -9.235 -10.077  18.484  0.00  0.00    +0.103 C 
ATOM     21  C   UNL     1     -11.242 -11.181  17.717  0.00  0.00    +0.103 C 
ATOM     27  C   UNL     1     -11.110 -10.345  19.974  0.00  0.00    +0.105 C 
ENDBRANCH   7  14
BRANCH   6  12
ATOM     12  C   UNL     1      -4.957 -12.651  17.442  0.00  0.00    +0.026 C 
BRANCH  12  15
ATOM     15  C   UNL     1      -4.939 -12.160  18.892  0.00  0.00    -0.015 C 
ATOM     24  C   UNL     1      -5.512 -10.741  18.952  0.00  0.00    +0.007 C 
ATOM     25  C   UNL     1      -3.536 -12.176  19.503  0.00  0.00    +0.007 C 
ENDBRANCH  12  15
ENDBRANCH   6  12
BRANCH   4  26
ATOM     26  C   UNL     1      -2.761 -10.052  10.946  0.00  0.00    +0.148 C 
BRANCH  26  28
ATOM     28  C   UNL     1      -3.349  -8.959  10.104  0.00  0.00    -0.013 C 
ATOM     29  C   UNL     1      -4.103  -9.175   9.019  0.00  0.00    +0.005 C 
ENDBRANCH  26  28
ENDBRANCH   4  26
TORSDOF 5
ENDMDL
MODEL 3
REMARK VINA RESULT:      -6.3     13.251     17.676
REMARK  Name = 51138129
REMARK  8 active torsions:
REMARK  status: ('A' for Active; 'I' for Inactive)
REMARK    1  A    between atoms: N_4  and  C_26
REMARK    2  A    between atoms: N_5  and  C_27
REMARK    3  A    between atoms: C_6  and  C_12
REMARK    4  A    between atoms: C_7  and  C_14
REMARK    5  A    between atoms: C_12  and  C_15
REMARK    6  A    between atoms: C_15  and  C_24
REMARK    7  A    between atoms: C_15  and  C_25
REMARK    8  A    between atoms: C_26  and  C_28
REMARK                            x       y       z     vdW  Elec       q    Type
REMARK                         _______ _______ _______ _____ _____    ______ ____
ROOT
ATOM      2  N   UNL     1      10.397   6.575   2.152  0.00  0.00    -0.299 NA
ATOM      4  N   UNL     1       9.723   6.224   7.144  0.00  0.00    -0.343 N 
ATOM      6  C   UNL     1      10.805   7.875   2.700  0.00  0.00    +0.085 C 
ATOM      7  C   UNL     1      11.099   5.430   2.713  0.00  0.00    +0.145 C 
ATOM      8  C   UNL     1      10.292   4.769   3.829  0.00  0.00    +0.065 C 
ATOM      9  C   UNL     1      10.521   8.091   4.190  0.00  0.00    -0.021 A 
ATOM     10  C   UNL     1      10.227   7.059   5.127  0.00  0.00    +0.008 A 
ATOM     11  C   UNL     1      10.114   5.628   5.037  0.00  0.00    -0.020 A 
ATOM     13  C   UNL     1       9.999   7.390   6.468  0.00  0.00    +0.050 A 
ATOM     16  C   UNL     1       9.795   5.160   6.295  0.00  0.00    +0.090 A 
ATOM     19  C   UNL     1      10.632   9.402   4.719  0.00  0.00    +0.006 A 
ATOM     22  C   UNL     1      10.066   8.694   6.961  0.00  0.00    +0.026 A 
ATOM     23  C   UNL     1      10.401   9.698   6.061  0.00  0.00    +0.002 A 
ATOM     30  H   UNL     1       9.387   6.454   2.214  0.00  0.00    +0.123 HD
ENDROOT
BRANCH   7  14
ATOM      1  O   UNL     1      10.241   3.953   1.083  0.00  0.00    -0.274 OA
ATOM      3  N   UNL     1      12.549   4.207   1.145  0.00  0.00    -0.298 N 
ATOM      5  N   UNL     1      15.005   4.161  -0.328  0.00  0.00    -0.302 NA
ATOM     14  C   UNL     1      11.248   4.464   1.577  0.00  0.00    +0.233 C 
ATOM     17  C   UNL     1      13.764   4.799   1.713  0.00  0.00    +0.123 C 
ATOM     18  C   UNL     1      12.791   3.178   0.135  0.00  0.00    +0.123 C 
ATOM     20  C   UNL     1      14.721   5.257   0.610  0.00  0.00    +0.103 C 
ATOM     21  C   UNL     1      13.761   3.670  -0.937  0.00  0.00    +0.103 C 
ATOM     27  C   UNL     1      15.945   4.599  -1.359  0.00  0.00    +0.105 C 
ENDBRANCH   7  14
BRANCH   6  12
ATOM     12  C   UNL     1      10.100   8.913   1.809  0.00  0.00    +0.026 C 
BRANCH  12  15
ATOM     15  C   UNL     1       8.666   8.515   1.445  0.00  0.00    -0.015 C 
ATOM     24  C   UNL     1       8.407   8.850  -0.026  0.00  0.00    +0.007 C 
ATOM     25  C   UNL     1       7.622   9.204   2.324  0.00  0.00    +0.007 C 
ENDBRANCH  12  15
ENDBRANCH   6  12
BRANCH   4  26
ATOM     26  C   UNL     1       9.420   6.120   8.555  0.00  0.00    +0.148 C 
BRANCH  26  28
ATOM     28  C   UNL     1       9.416   4.699   9.036  0.00  0.00    -0.013 C 
ATOM     29  C   UNL     1       9.052   4.329  10.270  0.00  0.00    +0.005 C 
ENDBRANCH  26  28
ENDBRANCH   4  26
TORSDOF 5
ENDMDL
MODEL 4
REMARK VINA RESULT:      -6.2      4.081      8.115
REMARK  Name = 51138129
REMARK  8 active torsions:
REMARK  status: ('A' for Active; 'I' for Inactive)
REMARK    1  A    between atoms: N_4  and  C_26
REMARK    2  A    between atoms: N_5  and  C_27
REMARK    3  A    between atoms: C_6  and  C_12
REMARK    4  A    between atoms: C_7  and  C_14
REMARK    5  A    between atoms: C_12  and  C_15
REMARK    6  A    between atoms: C_15  and  C_24
REMARK    7  A    between atoms: C_15  and  C_25
REMARK    8  A    between atoms: C_26  and  C_28
REMARK                            x       y       z     vdW  Elec       q    Type
REMARK                         _______ _______ _______ _____ _____    ______ ____
ROOT
ATOM      2  N   UNL     1      16.757   8.848  21.869  0.00  0.00    -0.299 NA
ATOM      4  N   UNL     1      20.726   5.968  20.664  0.00  0.00    -0.343 N 
ATOM      6  C   UNL     1      17.819   9.781  21.474  0.00  0.00    +0.085 C 
ATOM      7  C   UNL     1      16.416   7.851  20.865  0.00  0.00    +0.145 C 
ATOM      8  C   UNL     1      17.133   6.528  21.123  0.00  0.00    +0.065 C 
ATOM      9  C   UNL     1      19.200   9.161  21.234  0.00  0.00    -0.021 A 
ATOM     10  C   UNL     1      19.451   7.773  21.032  0.00  0.00    +0.008 A 
ATOM     11  C   UNL     1      18.616   6.603  20.974  0.00  0.00    -0.020 A 
ATOM     13  C   UNL     1      20.762   7.335  20.809  0.00  0.00    +0.050 A 
ATOM     16  C   UNL     1      19.441   5.519  20.756  0.00  0.00    +0.090 A 
ATOM     19  C   UNL     1      20.321  10.022  21.122  0.00  0.00    +0.006 A 
ATOM     22  C   UNL     1      21.860   8.194  20.748  0.00  0.00    +0.026 A 
ATOM     23  C   UNL     1      21.613   9.553  20.896  0.00  0.00    +0.002 A 
ATOM     30  H   UNL     1      16.971   8.411  22.765  0.00  0.00    +0.123 HD
ENDROOT
BRANCH   7  14
ATOM      1  O   UNL     1      14.438   7.589  22.126  0.00  0.00    -0.274 OA
ATOM      3  N   UNL     1      14.214   7.530  19.815  0.00  0.00    -0.298 N 
ATOM      5  N   UNL     1      12.525   8.038  17.557  0.00  0.00    -0.302 NA
ATOM     14  C   UNL     1      14.938   7.644  21.001  0.00  0.00    +0.233 C 
ATOM     17  C   UNL     1      14.781   7.593  18.464  0.00  0.00    +0.123 C 
ATOM     18  C   UNL     1      12.792   7.193  19.860  0.00  0.00    +0.123 C 
ATOM     20  C   UNL     1      13.928   8.474  17.549  0.00  0.00    +0.103 C 
ATOM     21  C   UNL     1      11.980   8.084  18.922  0.00  0.00    +0.103 C 
ATOM     27  C   UNL     1      11.725   8.865  16.656  0.00  0.00    +0.105 C 
ENDBRANCH   7  14
BRANCH   6  12
ATOM     12  C   UNL     1      17.837  10.847  22.584  0.00  0.00    +0.026 C 
BRANCH  12  15
ATOM     15  C   UNL     1      17.336  12.214  22.110  0.00  0.00    -0.015 C 
ATOM     24  C   UNL     1      15.887  12.407  22.567  0.00  0.00    +0.007 C 
ATOM     25  C   UNL     1      17.424  12.380  20.592  0.00  0.00    +0.007 C 
ENDBRANCH  12  15
ENDBRANCH   6  12
BRANCH   4  26
ATOM     26  C   UNL     1      21.870   5.115  20.427  0.00  0.00    +0.148 C 
BRANCH  26  28
ATOM     28  C   UNL     1      21.785   3.820  21.180  0.00  0.00    -0.013 C 
ATOM     29  C   UNL     1      22.138   3.677  22.463  0.00  0.00    +0.005 C 
ENDBRANCH  26  28
ENDBRANCH   4  26
TORSDOF 5
ENDMDL
MODEL 5
REMARK VINA RESULT:      -6.1     27.444     29.795
REMARK  Name = 51138129
REMARK  8 active torsions:
REMARK  status: ('A' for Active; 'I' for Inactive)
REMARK    1  A    between atoms: N_4  and  C_26
REMARK    2  A    between atoms: N_5  and  C_27
REMARK    3  A    between atoms: C_6  and  C_12
REMARK    4  A    between atoms: C_7  and  C_14
REMARK    5  A    between atoms: C_12  and  C_15
REMARK    6  A    between atoms: C_15  and  C_24
REMARK    7  A    between atoms: C_15  and  C_25
REMARK    8  A    between atoms: C_26  and  C_28
REMARK                            x       y       z     vdW  Elec       q    Type
REMARK                         _______ _______ _______ _____ _____    ______ ____
ROOT
ATOM      2  N   UNL     1      -5.803 -11.101  13.551  0.00  0.00    -0.299 NA
ATOM      4  N   UNL     1      -7.310  -8.608   9.426  0.00  0.00    -0.343 N 
ATOM      6  C   UNL     1      -4.576 -10.599  12.919  0.00  0.00    +0.085 C 
ATOM      7  C   UNL     1      -6.788 -10.077  13.868  0.00  0.00    +0.145 C 
ATOM      8  C   UNL     1      -7.858  -9.974  12.783  0.00  0.00    +0.065 C 
ATOM      9  C   UNL     1      -4.748  -9.957  11.539  0.00  0.00    -0.021 A 
ATOM     10  C   UNL     1      -5.985  -9.511  10.990  0.00  0.00    +0.008 A 
ATOM     11  C   UNL     1      -7.342  -9.491  11.468  0.00  0.00    -0.020 A 
ATOM     13  C   UNL     1      -6.005  -8.927   9.718  0.00  0.00    +0.050 A 
ATOM     16  C   UNL     1      -8.121  -8.937  10.472  0.00  0.00    +0.090 A 
ATOM     19  C   UNL     1      -3.592  -9.703  10.759  0.00  0.00    +0.006 A 
ATOM     22  C   UNL     1      -4.860  -8.728   8.945  0.00  0.00    +0.026 A 
ATOM     23  C   UNL     1      -3.646  -9.117   9.496  0.00  0.00    +0.002 A 
ATOM     30  H   UNL     1      -6.216 -11.851  12.998  0.00  0.00    +0.123 HD
ENDROOT
BRANCH   7  14
ATOM      1  O   UNL     1      -8.587 -10.945  15.126  0.00  0.00    -0.274 OA
ATOM      3  N   UNL     1      -6.643 -10.445  16.297  0.00  0.00    -0.298 N 
ATOM      5  N   UNL     1      -4.976 -11.055  18.545  0.00  0.00    -0.302 NA
ATOM     14  C   UNL     1      -7.427 -10.528  15.146  0.00  0.00    +0.233 C 
ATOM     17  C   UNL     1      -5.262  -9.955  16.349  0.00  0.00    +0.123 C 
ATOM     18  C   UNL     1      -7.233 -10.737  17.602  0.00  0.00    +0.123 C 
ATOM     20  C   UNL     1      -4.387 -10.866  17.212  0.00  0.00    +0.103 C 
ATOM     21  C   UNL     1      -6.322 -11.636  18.435  0.00  0.00    +0.103 C 
ATOM     27  C   UNL     1      -4.116 -11.901  19.371  0.00  0.00    +0.105 C 
ENDBRANCH   7  14
BRANCH   6  12
ATOM     12  C   UNL     1      -3.627 -11.810  12.892  0.00  0.00    +0.026 C 
BRANCH  12  15
ATOM     15  C   UNL     1      -2.596 -11.789  14.024  0.00  0.00    -0.015 C 
ATOM     24  C   UNL     1      -1.996 -10.384  14.133  0.00  0.00    +0.007 C 
ATOM     25  C   UNL     1      -1.479 -12.814  13.824  0.00  0.00    +0.007 C 
ENDBRANCH  12  15
ENDBRANCH   6  12
BRANCH   4  26
ATOM     26  C   UNL     1      -7.774  -7.992   8.202  0.00  0.00    +0.148 C 
BRANCH  26  28
ATOM     28  C   UNL     1      -7.865  -6.498   8.311  0.00  0.00    -0.013 C 
ATOM     29  C   UNL     1      -9.017  -5.817   8.293  0.00  0.00    +0.005 C 
ENDBRANCH  26  28
ENDBRANCH   4  26
TORSDOF 5
ENDMDL
MODEL 6
REMARK VINA RESULT:      -6.0     14.312     18.772
REMARK  Name = 51138129
REMARK  8 active torsions:
REMARK  status: ('A' for Active; 'I' for Inactive)
REMARK    1  A    between atoms: N_4  and  C_26
REMARK    2  A    between atoms: N_5  and  C_27
REMARK    3  A    between atoms: C_6  and  C_12
REMARK    4  A    between atoms: C_7  and  C_14
REMARK    5  A    between atoms: C_12  and  C_15
REMARK    6  A    between atoms: C_15  and  C_24
REMARK    7  A    between atoms: C_15  and  C_25
REMARK    8  A    between atoms: C_26  and  C_28
REMARK                            x       y       z     vdW  Elec       q    Type
REMARK                         _______ _______ _______ _____ _____    ______ ____
ROOT
ATOM      2  N   UNL     1      11.100   5.286   1.025  0.00  0.00    -0.299 NA
ATOM      4  N   UNL     1       8.850   6.415   5.402  0.00  0.00    -0.343 N 
ATOM      6  C   UNL     1      10.576   6.648   0.863  0.00  0.00    +0.085 C 
ATOM      7  C   UNL     1      11.999   5.110   2.156  0.00  0.00    +0.145 C 
ATOM      8  C   UNL     1      11.265   4.550   3.373  0.00  0.00    +0.065 C 
ATOM      9  C   UNL     1       9.683   7.162   1.997  0.00  0.00    -0.021 A 
ATOM     10  C   UNL     1       9.601   6.589   3.299  0.00  0.00    +0.008 A 
ATOM     11  C   UNL     1      10.247   5.479   3.946  0.00  0.00    -0.020 A 
ATOM     13  C   UNL     1       8.752   7.164   4.252  0.00  0.00    +0.050 A 
ATOM     16  C   UNL     1       9.749   5.405   5.231  0.00  0.00    +0.090 A 
ATOM     19  C   UNL     1       8.927   8.342   1.785  0.00  0.00    +0.006 A 
ATOM     22  C   UNL     1       7.980   8.300   4.009  0.00  0.00    +0.026 A 
ATOM     23  C   UNL     1       8.093   8.890   2.757  0.00  0.00    +0.002 A 
ATOM     30  H   UNL     1      10.342   4.605   1.047  0.00  0.00    +0.123 HD
ENDROOT
BRANCH   7  14
ATOM      1  O   UNL     1      12.733   2.914   1.695  0.00  0.00    -0.274 OA
ATOM      3  N   UNL     1      14.251   4.626   1.290  0.00  0.00    -0.298 N 
ATOM      5  N   UNL     1      16.481   5.534  -0.262  0.00  0.00    -0.302 NA
ATOM     14  C   UNL     1      13.019   4.114   1.697  0.00  0.00    +0.233 C 
ATOM     17  C   UNL     1      14.618   6.045   1.281  0.00  0.00    +0.123 C 
ATOM     18  C   UNL     1      15.344   3.715   0.956  0.00  0.00    +0.123 C 
ATOM     20  C   UNL     1      15.335   6.421  -0.018  0.00  0.00    +0.103 C 
ATOM     21  C   UNL     1      16.040   4.133  -0.337  0.00  0.00    +0.103 C 
ATOM     27  C   UNL     1      17.177   5.921  -1.488  0.00  0.00    +0.105 C 
ENDBRANCH   7  14
BRANCH   6  12
ATOM     12  C   UNL     1       9.853   6.629  -0.496  0.00  0.00    +0.026 C 
BRANCH  12  15
ATOM     15  C   UNL     1      10.462   5.631  -1.484  0.00  0.00    -0.015 C 
ATOM     24  C   UNL     1      11.500   6.350  -2.351  0.00  0.00    +0.007 C 
ATOM     25  C   UNL     1       9.412   4.970  -2.378  0.00  0.00    +0.007 C 
ENDBRANCH  12  15
ENDBRANCH   6  12
BRANCH   4  26
ATOM     26  C   UNL     1       8.127   6.662   6.631  0.00  0.00    +0.148 C 
BRANCH  26  28
ATOM     28  C   UNL     1       8.965   7.371   7.655  0.00  0.00    -0.013 C 
ATOM     29  C   UNL     1       9.152   8.696   7.678  0.00  0.00    +0.005 C 
ENDBRANCH  26  28
ENDBRANCH   4  26
TORSDOF 5
ENDMDL
MODEL 7
REMARK VINA RESULT:      -6.0     23.613     27.022
REMARK  Name = 51138129
REMARK  8 active torsions:
REMARK  status: ('A' for Active; 'I' for Inactive)
REMARK    1  A    between atoms: N_4  and  C_26
REMARK    2  A    between atoms: N_5  and  C_27
REMARK    3  A    between atoms: C_6  and  C_12
REMARK    4  A    between atoms: C_7  and  C_14
REMARK    5  A    between atoms: C_12  and  C_15
REMARK    6  A    between atoms: C_15  and  C_24
REMARK    7  A    between atoms: C_15  and  C_25
REMARK    8  A    between atoms: C_26  and  C_28
REMARK                            x       y       z     vdW  Elec       q    Type
REMARK                         _______ _______ _______ _____ _____    ______ ____
ROOT
ATOM      2  N   UNL     1     -13.798   9.388  21.641  0.00  0.00    -0.299 NA
ATOM      4  N   UNL     1     -10.611  10.981  18.063  0.00  0.00    -0.343 N 
ATOM      6  C   UNL     1     -13.081   8.190  21.185  0.00  0.00    +0.085 C 
ATOM      7  C   UNL     1     -12.942  10.464  22.119  0.00  0.00    +0.145 C 
ATOM      8  C   UNL     1     -12.694  11.508  21.032  0.00  0.00    +0.065 C 
ATOM      9  C   UNL     1     -12.177   8.376  19.963  0.00  0.00    -0.021 A 
ATOM     10  C   UNL     1     -11.722   9.630  19.463  0.00  0.00    +0.008 A 
ATOM     11  C   UNL     1     -11.906  10.996  19.872  0.00  0.00    -0.020 A 
ATOM     13  C   UNL     1     -10.884   9.662  18.341  0.00  0.00    +0.050 A 
ATOM     16  C   UNL     1     -11.215  11.790  18.979  0.00  0.00    +0.090 A 
ATOM     19  C   UNL     1     -11.677   7.223  19.306  0.00  0.00    +0.006 A 
ATOM     22  C   UNL     1     -10.441   8.516  17.680  0.00  0.00    +0.026 A 
ATOM     23  C   UNL     1     -10.843   7.290  18.192  0.00  0.00    +0.002 A 
ATOM     30  H   UNL     1     -14.443   9.720  20.926  0.00  0.00    +0.123 HD
ENDROOT
BRANCH   7  14
ATOM      1  O   UNL     1     -14.914  11.282  23.128  0.00  0.00    -0.274 OA
ATOM      3  N   UNL     1     -12.962  11.445  24.377  0.00  0.00    -0.298 N 
ATOM      5  N   UNL     1     -11.786  11.502  26.988  0.00  0.00    -0.302 NA
ATOM     14  C   UNL     1     -13.701  11.099  23.245  0.00  0.00    +0.233 C 
ATOM     17  C   UNL     1     -11.520  11.239  24.544  0.00  0.00    +0.123 C 
ATOM     18  C   UNL     1     -13.599  12.189  25.462  0.00  0.00    +0.123 C 
ATOM     20  C   UNL     1     -11.202  10.669  25.927  0.00  0.00    +0.103 C 
ATOM     21  C   UNL     1     -13.244  11.596  26.824  0.00  0.00    +0.103 C 
ATOM     27  C   UNL     1     -11.449  10.967  28.306  0.00  0.00    +0.105 C 
ENDBRANCH   7  14
BRANCH   6  12
ATOM     12  C   UNL     1     -14.184   7.142  20.949  0.00  0.00    +0.026 C 
BRANCH  12  15
ATOM     15  C   UNL     1     -14.340   6.165  22.118  0.00  0.00    -0.015 C 
ATOM     24  C   UNL     1     -13.128   5.231  22.162  0.00  0.00    +0.007 C 
ATOM     25  C   UNL     1     -15.625   5.339  22.028  0.00  0.00    +0.007 C 
ENDBRANCH  12  15
ENDBRANCH   6  12
BRANCH   4  26
ATOM     26  C   UNL     1      -9.787  11.459  16.973  0.00  0.00    +0.148 C 
BRANCH  26  28
ATOM     28  C   UNL     1      -9.369  12.888  17.157  0.00  0.00    -0.013 C 
ATOM     29  C   UNL     1      -8.186  13.376  16.765  0.00  0.00    +0.005 C 
ENDBRANCH  26  28
ENDBRANCH   4  26
TORSDOF 5
ENDMDL
MODEL 8
REMARK VINA RESULT:      -5.9     26.937     29.677
REMARK  Name = 51138129
REMARK  8 active torsions:
REMARK  status: ('A' for Active; 'I' for Inactive)
REMARK    1  A    between atoms: N_4  and  C_26
REMARK    2  A    between atoms: N_5  and  C_27
REMARK    3  A    between atoms: C_6  and  C_12
REMARK    4  A    between atoms: C_7  and  C_14
REMARK    5  A    between atoms: C_12  and  C_15
REMARK    6  A    between atoms: C_15  and  C_24
REMARK    7  A    between atoms: C_15  and  C_25
REMARK    8  A    between atoms: C_26  and  C_28
REMARK                            x       y       z     vdW  Elec       q    Type
REMARK                         _______ _______ _______ _____ _____    ______ ____
ROOT
ATOM      2  N   UNL     1      -5.230  -9.949  14.908  0.00  0.00    -0.299 NA
ATOM      4  N   UNL     1      -8.590 -10.672  18.608  0.00  0.00    -0.343 N 
ATOM      6  C   UNL     1      -4.541 -10.763  15.918  0.00  0.00    +0.085 C 
ATOM      7  C   UNL     1      -6.471 -10.523  14.408  0.00  0.00    +0.145 C 
ATOM      8  C   UNL     1      -7.687  -9.947  15.131  0.00  0.00    +0.065 C 
ATOM      9  C   UNL     1      -5.292 -10.970  17.237  0.00  0.00    -0.021 A 
ATOM     10  C   UNL     1      -6.684 -10.743  17.432  0.00  0.00    +0.008 A 
ATOM     11  C   UNL     1      -7.757 -10.308  16.578  0.00  0.00    -0.020 A 
ATOM     13  C   UNL     1      -7.253 -10.984  18.689  0.00  0.00    +0.050 A 
ATOM     16  C   UNL     1      -8.904 -10.270  17.344  0.00  0.00    +0.090 A 
ATOM     19  C   UNL     1      -4.584 -11.502  18.345  0.00  0.00    +0.006 A 
ATOM     22  C   UNL     1      -6.529 -11.464  19.781  0.00  0.00    +0.026 A 
ATOM     23  C   UNL     1      -5.181 -11.733  19.582  0.00  0.00    +0.002 A 
ATOM     30  H   UNL     1      -5.373  -8.998  15.244  0.00  0.00    +0.123 HD
ENDROOT
BRANCH   7  14
ATOM      1  O   UNL     1      -6.710  -8.950  12.663  0.00  0.00    -0.274 OA
ATOM      3  N   UNL     1      -6.369 -11.159  12.033  0.00  0.00    -0.298 N 
ATOM      5  N   UNL     1      -5.316 -12.954  10.064  0.00  0.00    -0.302 NA
ATOM     14  C   UNL     1      -6.530 -10.132  12.962  0.00  0.00    +0.233 C 
ATOM     17  C   UNL     1      -6.152 -12.572  12.359  0.00  0.00    +0.123 C 
ATOM     18  C   UNL     1      -6.547 -10.886  10.608  0.00  0.00    +0.123 C 
ATOM     20  C   UNL     1      -5.045 -13.175  11.491  0.00  0.00    +0.103 C 
ATOM     21  C   UNL     1      -5.430 -11.516   9.778  0.00  0.00    +0.103 C 
ATOM     27  C   UNL     1      -4.269 -13.560   9.243  0.00  0.00    +0.105 C 
ENDBRANCH   7  14
BRANCH   6  12
ATOM     12  C   UNL     1      -3.181 -10.070  16.116  0.00  0.00    +0.026 C 
BRANCH  12  15
ATOM     15  C   UNL     1      -1.992 -10.992  15.830  0.00  0.00    -0.015 C 
ATOM     24  C   UNL     1      -0.727 -10.146  15.657  0.00  0.00    +0.007 C 
ATOM     25  C   UNL     1      -2.205 -11.862  14.591  0.00  0.00    +0.007 C 
ENDBRANCH  12  15
ENDBRANCH   6  12
BRANCH   4  26
ATOM     26  C   UNL     1      -9.545 -10.770  19.691  0.00  0.00    +0.148 C 
BRANCH  26  28
ATOM     28  C   UNL     1     -10.875 -10.173  19.337  0.00  0.00    -0.013 C 
ATOM     29  C   UNL     1     -11.897 -10.064  20.194  0.00  0.00    +0.005 C 
ENDBRANCH  26  28
ENDBRANCH   4  26
TORSDOF 5
ENDMDL
MODEL 9
REMARK VINA RESULT:      -5.9     12.404     17.575
REMARK  Name = 51138129
REMARK  8 active torsions:
REMARK  status: ('A' for Active; 'I' for Inactive)
REMARK    1  A    between atoms: N_4  and  C_26
REMARK    2  A    between atoms: N_5  and  C_27
REMARK    3  A    between atoms: C_6  and  C_12
REMARK    4  A    between atoms: C_7  and  C_14
REMARK    5  A    between atoms: C_12  and  C_15
REMARK    6  A    between atoms: C_15  and  C_24
REMARK    7  A    between atoms: C_15  and  C_25
REMARK    8  A    between atoms: C_26  and  C_28
REMARK                            x       y       z     vdW  Elec       q    Type
REMARK                         _______ _______ _______ _____ _____    ______ ____
ROOT
ATOM      2  N   UNL     1       8.782   7.747   5.096  0.00  0.00    -0.299 NA
ATOM      4  N   UNL     1      10.048   6.533   0.361  0.00  0.00    -0.343 N 
ATOM      6  C   UNL     1       9.706   6.612   5.210  0.00  0.00    +0.085 C 
ATOM      7  C   UNL     1       9.310   8.891   4.367  0.00  0.00    +0.145 C 
ATOM      8  C   UNL     1       8.857   8.883   2.908  0.00  0.00    +0.065 C 
ATOM      9  C   UNL     1      10.098   5.933   3.894  0.00  0.00    -0.021 A 
ATOM     10  C   UNL     1       9.927   6.497   2.597  0.00  0.00    +0.008 A 
ATOM     11  C   UNL     1       9.405   7.746   2.111  0.00  0.00    -0.020 A 
ATOM     13  C   UNL     1      10.341   5.776   1.471  0.00  0.00    +0.050 A 
ATOM     16  C   UNL     1       9.491   7.720   0.734  0.00  0.00    +0.090 A 
ATOM     19  C   UNL     1      10.756   4.678   3.947  0.00  0.00    +0.006 A 
ATOM     22  C   UNL     1      10.945   4.520   1.541  0.00  0.00    +0.026 A 
ATOM     23  C   UNL     1      11.159   3.987   2.806  0.00  0.00    +0.002 A 
ATOM     30  H   UNL     1       7.885   7.449   4.714  0.00  0.00    +0.123 HD
ENDROOT
BRANCH   7  14
ATOM      1  O   UNL     1       7.624  10.506   4.716  0.00  0.00    -0.274 OA
ATOM      3  N   UNL     1       9.516  10.673   6.051  0.00  0.00    -0.298 N 
ATOM      5  N   UNL     1      10.607  11.491   8.571  0.00  0.00    -0.302 NA
ATOM     14  C   UNL     1       8.735  10.093   5.053  0.00  0.00    +0.233 C 
ATOM     17  C   UNL     1      10.840  10.204   6.473  0.00  0.00    +0.123 C 
ATOM     18  C   UNL     1       9.091  11.925   6.674  0.00  0.00    +0.123 C 
ATOM     20  C   UNL     1      10.957  10.183   7.998  0.00  0.00    +0.103 C 
ATOM     21  C   UNL     1       9.237  11.867   8.193  0.00  0.00    +0.103 C 
ATOM     27  C   UNL     1      10.753  11.470  10.026  0.00  0.00    +0.105 C 
ENDBRANCH   7  14
BRANCH   6  12
ATOM     12  C   UNL     1       9.018   5.645   6.190  0.00  0.00    +0.026 C 
BRANCH  12  15
ATOM     15  C   UNL     1       9.637   5.670   7.591  0.00  0.00    -0.015 C 
ATOM     24  C   UNL     1      11.022   6.319   7.518  0.00  0.00    +0.007 C 
ATOM     25  C   UNL     1       9.751   4.277   8.211  0.00  0.00    +0.007 C 
ENDBRANCH  12  15
ENDBRANCH   6  12
BRANCH   4  26
ATOM     26  C   UNL     1      10.305   6.151  -1.011  0.00  0.00    +0.148 C 
BRANCH  26  28
ATOM     28  C   UNL     1       9.060   5.714  -1.727  0.00  0.00    -0.013 C 
ATOM     29  C   UNL     1       9.058   5.116  -2.924  0.00  0.00    +0.005 C 
ENDBRANCH  26  28
ENDBRANCH   4  26
TORSDOF 5
ENDMDL
MODEL 10
REMARK VINA RESULT:      -5.7     27.550     30.913
REMARK  Name = 51138129
REMARK  8 active torsions:
REMARK  status: ('A' for Active; 'I' for Inactive)
REMARK    1  A    between atoms: N_4  and  C_26
REMARK    2  A    between atoms: N_5  and  C_27
REMARK    3  A    between atoms: C_6  and  C_12
REMARK    4  A    between atoms: C_7  and  C_14
REMARK    5  A    between atoms: C_12  and  C_15
REMARK    6  A    between atoms: C_15  and  C_24
REMARK    7  A    between atoms: C_15  and  C_25
REMARK    8  A    between atoms: C_26  and  C_28
REMARK                            x       y       z     vdW  Elec       q    Type
REMARK                         _______ _______ _______ _____ _____    ______ ____
ROOT
ATOM      2  N   UNL     1      -9.361 -10.831  16.156  0.00  0.00    -0.299 NA
ATOM      4  N   UNL     1      -4.327 -10.588  16.465  0.00  0.00    -0.343 N 
ATOM      6  C   UNL     1      -9.049 -10.845  17.591  0.00  0.00    +0.085 C 
ATOM      7  C   UNL     1      -8.829  -9.688  15.429  0.00  0.00    +0.145 C 
ATOM      8  C   UNL     1      -7.510 -10.027  14.738  0.00  0.00    +0.065 C 
ATOM      9  C   UNL     1      -7.565 -10.964  17.953  0.00  0.00    -0.021 A 
ATOM     10  C   UNL     1      -6.482 -10.724  17.060  0.00  0.00    +0.008 A 
ATOM     11  C   UNL     1      -6.391 -10.324  15.681  0.00  0.00    -0.020 A 
ATOM     13  C   UNL     1      -5.166 -10.855  17.521  0.00  0.00    +0.050 A 
ATOM     16  C   UNL     1      -5.051 -10.262  15.357  0.00  0.00    +0.090 A 
ATOM     19  C   UNL     1      -7.215 -11.259  19.295  0.00  0.00    +0.006 A 
ATOM     22  C   UNL     1      -4.842 -11.193  18.835  0.00  0.00    +0.026 A 
ATOM     23  C   UNL     1      -5.895 -11.380  19.722  0.00  0.00    +0.002 A 
ATOM     30  H   UNL     1      -9.086 -11.708  15.716  0.00  0.00    +0.123 HD
ENDROOT
BRANCH   7  14
ATOM      1  O   UNL     1      -9.826  -9.956  13.306  0.00  0.00    -0.274 OA
ATOM      3  N   UNL     1     -10.811  -8.408  14.730  0.00  0.00    -0.298 N 
ATOM      5  N   UNL     1     -13.220  -7.074  15.523  0.00  0.00    -0.302 NA
ATOM     14  C   UNL     1      -9.860  -9.369  14.389  0.00  0.00    +0.233 C 
ATOM     17  C   UNL     1     -10.876  -7.695  16.010  0.00  0.00    +0.123 C 
ATOM     18  C   UNL     1     -11.767  -7.942  13.727  0.00  0.00    +0.123 C 
ATOM     20  C   UNL     1     -12.312  -7.635  16.534  0.00  0.00    +0.103 C 
ATOM     21  C   UNL     1     -13.184  -7.883  14.295  0.00  0.00    +0.103 C 
ATOM     27  C   UNL     1     -14.583  -6.992  16.045  0.00  0.00    +0.105 C 
ENDBRANCH   7  14
BRANCH   6  12
ATOM     12  C   UNL     1      -9.890 -12.001  18.162  0.00  0.00    +0.026 C 
BRANCH  12  15
ATOM     15  C   UNL     1     -10.978 -11.528  19.131  0.00  0.00    -0.015 C 
ATOM     24  C   UNL     1     -10.836 -10.020  19.353  0.00  0.00    +0.007 C 
ATOM     25  C   UNL     1     -10.928 -12.255  20.475  0.00  0.00    +0.007 C 
ENDBRANCH  12  15
ENDBRANCH   6  12
BRANCH   4  26
ATOM     26  C   UNL     1      -2.880 -10.622  16.510  0.00  0.00    +0.148 C 
BRANCH  26  28
ATOM     28  C   UNL     1      -2.276 -10.998  15.189  0.00  0.00    -0.013 C 
ATOM     29  C   UNL     1      -1.497 -10.185  14.465  0.00  0.00    +0.005 C 
ENDBRANCH  26  28
ENDBRANCH   4  26
TORSDOF 5
ENDMDL
