MODEL 1
REMARK VINA RESULT:      -6.1      0.000      0.000
REMARK  Name = 45784321
REMARK  3 active torsions:
REMARK  status: ('A' for Active; 'I' for Inactive)
REMARK    1  A    between atoms: N_1  and  C_10
REMARK    2  A    between atoms: C_5  and  C_9
REMARK    3  A    between atoms: C_15  and  C_17
REMARK                            x       y       z     vdW  Elec       q    Type
REMARK                         _______ _______ _______ _____ _____    ______ ____
ROOT
ATOM      2  N   UNL     1      15.570   6.241  19.407  0.00  0.00    -0.342 N 
ATOM      3  N   UNL     1      15.056   8.012  20.649  0.00  0.00    -0.232 NA
ATOM      9  C   UNL     1      14.589   7.092  19.834  0.00  0.00    +0.113 A 
ATOM     11  C   UNL     1      16.749   6.638  19.986  0.00  0.00    +0.067 A 
ATOM     12  C   UNL     1      16.401   7.744  20.755  0.00  0.00    +0.089 A 
ATOM     13  C   UNL     1      18.050   6.138  19.904  0.00  0.00    +0.046 A 
ATOM     14  C   UNL     1      17.399   8.404  21.494  0.00  0.00    +0.031 A 
ATOM     15  C   UNL     1      19.029   6.808  20.645  0.00  0.00    +0.054 A 
ATOM     16  C   UNL     1      18.711   7.921  21.427  0.00  0.00    +0.021 A 
ATOM     18  H   UNL     1      15.453   5.458  18.778  0.00  0.00    +0.167 HD
ENDROOT
BRANCH   9   5
ATOM      1  N   UNL     1      11.516   7.889  18.004  0.00  0.00    -0.305 NA
ATOM      5  C   UNL     1      13.157   6.931  19.378  0.00  0.00    +0.070 C 
ATOM      6  C   UNL     1      12.117   7.656  20.249  0.00  0.00    +0.028 C 
ATOM      7  C   UNL     1      12.917   7.465  17.960  0.00  0.00    +0.095 C 
ATOM      8  C   UNL     1      11.370   8.573  19.290  0.00  0.00    +0.085 C 
ATOM     10  C   UNL     1      11.158   8.740  16.880  0.00  0.00    +0.104 C 
ENDBRANCH   9   5
BRANCH  15  17
ATOM      4  N   UNL     1      21.477   5.965  20.564  0.00  0.00    -0.191 NA
ATOM     17  C   UNL     1      20.380   6.343  20.600  0.00  0.00    +0.099 C 
ENDBRANCH  15  17
TORSDOF 2
ENDMDL
MODEL 2
REMARK VINA RESULT:      -6.0      1.818      2.780
REMARK  Name = 45784321
REMARK  3 active torsions:
REMARK  status: ('A' for Active; 'I' for Inactive)
REMARK    1  A    between atoms: N_1  and  C_10
REMARK    2  A    between atoms: C_5  and  C_9
REMARK    3  A    between atoms: C_15  and  C_17
REMARK                            x       y       z     vdW  Elec       q    Type
REMARK                         _______ _______ _______ _____ _____    ______ ____
ROOT
ATOM      2  N   UNL     1      14.742   7.794  21.196  0.00  0.00    -0.342 N 
ATOM      3  N   UNL     1      14.275   6.884  19.223  0.00  0.00    -0.232 NA
ATOM      9  C   UNL     1      13.794   7.568  20.238  0.00  0.00    +0.113 A 
ATOM     11  C   UNL     1      15.913   7.219  20.771  0.00  0.00    +0.067 A 
ATOM     12  C   UNL     1      15.594   6.658  19.538  0.00  0.00    +0.089 A 
ATOM     13  C   UNL     1      17.184   7.144  21.344  0.00  0.00    +0.046 A 
ATOM     14  C   UNL     1      16.592   5.978  18.818  0.00  0.00    +0.031 A 
ATOM     15  C   UNL     1      18.163   6.464  20.614  0.00  0.00    +0.054 A 
ATOM     16  C   UNL     1      17.874   5.890  19.373  0.00  0.00    +0.021 A 
ATOM     18  H   UNL     1      14.609   8.296  22.065  0.00  0.00    +0.167 HD
ENDROOT
BRANCH   9   5
ATOM      1  N   UNL     1      10.981   9.285  21.840  0.00  0.00    -0.305 NA
ATOM      5  C   UNL     1      12.379   8.075  20.398  0.00  0.00    +0.070 C 
ATOM      6  C   UNL     1      11.424   7.109  21.118  0.00  0.00    +0.028 C 
ATOM      7  C   UNL     1      12.297   9.376  21.206  0.00  0.00    +0.095 C 
ATOM      8  C   UNL     1      10.880   7.899  22.300  0.00  0.00    +0.085 C 
ATOM     10  C   UNL     1      10.818  10.242  22.923  0.00  0.00    +0.104 C 
ENDBRANCH   9   5
BRANCH  15  17
ATOM      4  N   UNL     1      20.557   6.263  21.582  0.00  0.00    -0.191 NA
ATOM     17  C   UNL     1      19.484   6.353  21.149  0.00  0.00    +0.099 C 
ENDBRANCH  15  17
TORSDOF 2
ENDMDL
MODEL 3
REMARK VINA RESULT:      -5.8     12.908     16.451
REMARK  Name = 45784321
REMARK  3 active torsions:
REMARK  status: ('A' for Active; 'I' for Inactive)
REMARK    1  A    between atoms: N_1  and  C_10
REMARK    2  A    between atoms: C_5  and  C_9
REMARK    3  A    between atoms: C_15  and  C_17
REMARK                            x       y       z     vdW  Elec       q    Type
REMARK                         _______ _______ _______ _____ _____    ______ ____
ROOT
ATOM      2  N   UNL     1      10.305   4.302   5.072  0.00  0.00    -0.342 N 
ATOM      3  N   UNL     1       9.692   6.375   4.553  0.00  0.00    -0.232 NA
ATOM      9  C   UNL     1      10.147   5.234   4.084  0.00  0.00    +0.113 A 
ATOM     11  C   UNL     1       9.925   4.879   6.257  0.00  0.00    +0.067 A 
ATOM     12  C   UNL     1       9.548   6.172   5.906  0.00  0.00    +0.089 A 
ATOM     13  C   UNL     1       9.883   4.395   7.565  0.00  0.00    +0.046 A 
ATOM     14  C   UNL     1       9.097   7.049   6.908  0.00  0.00    +0.031 A 
ATOM     15  C   UNL     1       9.432   5.281   8.549  0.00  0.00    +0.054 A 
ATOM     16  C   UNL     1       9.045   6.585   8.228  0.00  0.00    +0.021 A 
ATOM     18  H   UNL     1      10.641   3.355   4.955  0.00  0.00    +0.167 HD
ENDROOT
BRANCH   9   5
ATOM      1  N   UNL     1      12.192   4.121   1.255  0.00  0.00    -0.305 NA
ATOM      5  C   UNL     1      10.479   4.916   2.644  0.00  0.00    +0.070 C 
ATOM      6  C   UNL     1      11.079   6.086   1.846  0.00  0.00    +0.028 C 
ATOM      7  C   UNL     1      11.504   3.783   2.502  0.00  0.00    +0.095 C 
ATOM      8  C   UNL     1      12.412   5.566   1.325  0.00  0.00    +0.085 C 
ATOM     10  C   UNL     1      13.433   3.379   1.087  0.00  0.00    +0.104 C 
ENDBRANCH   9   5
BRANCH  15  17
ATOM      4  N   UNL     1       9.315   4.487  11.012  0.00  0.00    -0.191 NA
ATOM     17  C   UNL     1       9.367   4.843   9.909  0.00  0.00    +0.099 C 
ENDBRANCH  15  17
TORSDOF 2
ENDMDL
MODEL 4
REMARK VINA RESULT:      -5.7      1.473      2.133
REMARK  Name = 45784321
REMARK  3 active torsions:
REMARK  status: ('A' for Active; 'I' for Inactive)
REMARK    1  A    between atoms: N_1  and  C_10
REMARK    2  A    between atoms: C_5  and  C_9
REMARK    3  A    between atoms: C_15  and  C_17
REMARK                            x       y       z     vdW  Elec       q    Type
REMARK                         _______ _______ _______ _____ _____    ______ ____
ROOT
ATOM      2  N   UNL     1      15.513   8.057  20.000  0.00  0.00    -0.342 N 
ATOM      3  N   UNL     1      16.083   6.199  18.922  0.00  0.00    -0.232 NA
ATOM      9  C   UNL     1      15.158   7.121  19.069  0.00  0.00    +0.113 A 
ATOM     11  C   UNL     1      16.750   7.717  20.486  0.00  0.00    +0.067 A 
ATOM     12  C   UNL     1      17.083   6.554  19.798  0.00  0.00    +0.089 A 
ATOM     13  C   UNL     1      17.579   8.309  21.440  0.00  0.00    +0.046 A 
ATOM     14  C   UNL     1      18.315   5.931  20.064  0.00  0.00    +0.031 A 
ATOM     15  C   UNL     1      18.800   7.676  21.692  0.00  0.00    +0.054 A 
ATOM     16  C   UNL     1      19.163   6.508  21.017  0.00  0.00    +0.021 A 
ATOM     18  H   UNL     1      14.965   8.859  20.283  0.00  0.00    +0.167 HD
ENDROOT
BRANCH   9   5
ATOM      1  N   UNL     1      12.641   8.494  16.788  0.00  0.00    -0.305 NA
ATOM      5  C   UNL     1      13.839   7.203  18.336  0.00  0.00    +0.070 C 
ATOM      6  C   UNL     1      12.741   7.995  19.067  0.00  0.00    +0.028 C 
ATOM      7  C   UNL     1      13.958   7.880  16.964  0.00  0.00    +0.095 C 
ATOM      8  C   UNL     1      12.323   9.085  18.089  0.00  0.00    +0.085 C 
ATOM     10  C   UNL     1      12.625   9.476  15.714  0.00  0.00    +0.104 C 
ENDBRANCH   9   5
BRANCH  15  17
ATOM      4  N   UNL     1      20.417   8.688  23.444  0.00  0.00    -0.191 NA
ATOM     17  C   UNL     1      19.692   8.235  22.660  0.00  0.00    +0.099 C 
ENDBRANCH  15  17
TORSDOF 2
ENDMDL
MODEL 5
REMARK VINA RESULT:      -5.7      4.900      6.575
REMARK  Name = 45784321
REMARK  3 active torsions:
REMARK  status: ('A' for Active; 'I' for Inactive)
REMARK    1  A    between atoms: N_1  and  C_10
REMARK    2  A    between atoms: C_5  and  C_9
REMARK    3  A    between atoms: C_15  and  C_17
REMARK                            x       y       z     vdW  Elec       q    Type
REMARK                         _______ _______ _______ _____ _____    ______ ____
ROOT
ATOM      2  N   UNL     1      12.494   9.872  19.115  0.00  0.00    -0.342 N 
ATOM      3  N   UNL     1      11.656   7.814  19.051  0.00  0.00    -0.232 NA
ATOM      9  C   UNL     1      12.321   8.731  18.383  0.00  0.00    +0.113 A 
ATOM     11  C   UNL     1      11.902   9.680  20.337  0.00  0.00    +0.067 A 
ATOM     12  C   UNL     1      11.386   8.389  20.272  0.00  0.00    +0.089 A 
ATOM     13  C   UNL     1      11.776  10.500  21.459  0.00  0.00    +0.046 A 
ATOM     14  C   UNL     1      10.701   7.868  21.384  0.00  0.00    +0.031 A 
ATOM     15  C   UNL     1      11.092   9.967  22.556  0.00  0.00    +0.054 A 
ATOM     16  C   UNL     1      10.564   8.674  22.521  0.00  0.00    +0.021 A 
ATOM     18  H   UNL     1      12.973  10.711  18.814  0.00  0.00    +0.167 HD
ENDROOT
BRANCH   9   5
ATOM      1  N   UNL     1      14.202   9.700  15.391  0.00  0.00    -0.305 NA
ATOM      5  C   UNL     1      12.860   8.610  16.976  0.00  0.00    +0.070 C 
ATOM      6  C   UNL     1      11.969   9.231  15.887  0.00  0.00    +0.028 C 
ATOM      7  C   UNL     1      14.223   9.292  16.797  0.00  0.00    +0.095 C 
ATOM      8  C   UNL     1      12.859  10.241  15.177  0.00  0.00    +0.085 C 
ATOM     10  C   UNL     1      15.245  10.664  15.077  0.00  0.00    +0.104 C 
ENDBRANCH   9   5
BRANCH  15  17
ATOM      4  N   UNL     1      10.800  11.405  24.690  0.00  0.00    -0.191 NA
ATOM     17  C   UNL     1      10.931  10.760  23.734  0.00  0.00    +0.099 C 
ENDBRANCH  15  17
TORSDOF 2
ENDMDL
MODEL 6
REMARK VINA RESULT:      -5.6     27.485     29.461
REMARK  Name = 45784321
REMARK  3 active torsions:
REMARK  status: ('A' for Active; 'I' for Inactive)
REMARK    1  A    between atoms: N_1  and  C_10
REMARK    2  A    between atoms: C_5  and  C_9
REMARK    3  A    between atoms: C_15  and  C_17
REMARK                            x       y       z     vdW  Elec       q    Type
REMARK                         _______ _______ _______ _____ _____    ______ ____
ROOT
ATOM      2  N   UNL     1      -8.674  -9.834  18.564  0.00  0.00    -0.342 N 
ATOM      3  N   UNL     1      -8.204  -8.986  16.564  0.00  0.00    -0.232 NA
ATOM      9  C   UNL     1      -9.132  -9.132  17.485  0.00  0.00    +0.113 A 
ATOM     11  C   UNL     1      -7.364 -10.163  18.325  0.00  0.00    +0.067 A 
ATOM     12  C   UNL     1      -7.095  -9.623  17.071  0.00  0.00    +0.089 A 
ATOM     13  C   UNL     1      -6.421 -10.866  19.076  0.00  0.00    +0.046 A 
ATOM     14  C   UNL     1      -5.813  -9.784  16.517  0.00  0.00    +0.031 A 
ATOM     15  C   UNL     1      -5.151 -11.016  18.509  0.00  0.00    +0.054 A 
ATOM     16  C   UNL     1      -4.851 -10.485  17.253  0.00  0.00    +0.021 A 
ATOM     18  H   UNL     1      -9.203 -10.070  19.393  0.00  0.00    +0.167 HD
ENDROOT
BRANCH   9   5
ATOM      1  N   UNL     1     -12.468  -8.569  16.078  0.00  0.00    -0.305 NA
ATOM      5  C   UNL     1     -10.551  -8.615  17.427  0.00  0.00    +0.070 C 
ATOM      6  C   UNL     1     -10.706  -7.219  16.801  0.00  0.00    +0.028 C 
ATOM      7  C   UNL     1     -11.483  -9.515  16.605  0.00  0.00    +0.095 C 
ATOM      8  C   UNL     1     -11.685  -7.409  15.651  0.00  0.00    +0.085 C 
ATOM     10  C   UNL     1     -13.257  -9.135  14.994  0.00  0.00    +0.104 C 
ENDBRANCH   9   5
BRANCH  15  17
ATOM      4  N   UNL     1      -3.323 -12.305  19.816  0.00  0.00    -0.191 NA
ATOM     17  C   UNL     1      -4.142 -11.728  19.231  0.00  0.00    +0.099 C 
ENDBRANCH  15  17
TORSDOF 2
ENDMDL
MODEL 7
REMARK VINA RESULT:      -5.5      1.771      7.144
REMARK  Name = 45784321
REMARK  3 active torsions:
REMARK  status: ('A' for Active; 'I' for Inactive)
REMARK    1  A    between atoms: N_1  and  C_10
REMARK    2  A    between atoms: C_5  and  C_9
REMARK    3  A    between atoms: C_15  and  C_17
REMARK                            x       y       z     vdW  Elec       q    Type
REMARK                         _______ _______ _______ _____ _____    ______ ____
ROOT
ATOM      2  N   UNL     1      18.083   6.202  19.804  0.00  0.00    -0.342 N 
ATOM      3  N   UNL     1      18.319   7.583  21.530  0.00  0.00    -0.232 NA
ATOM      9  C   UNL     1      18.935   6.746  20.725  0.00  0.00    +0.113 A 
ATOM     11  C   UNL     1      16.834   6.723  20.030  0.00  0.00    +0.067 A 
ATOM     12  C   UNL     1      17.008   7.581  21.112  0.00  0.00    +0.089 A 
ATOM     13  C   UNL     1      15.606   6.522  19.399  0.00  0.00    +0.046 A 
ATOM     14  C   UNL     1      15.900   8.290  21.608  0.00  0.00    +0.031 A 
ATOM     15  C   UNL     1      14.514   7.235  19.906  0.00  0.00    +0.054 A 
ATOM     16  C   UNL     1      14.657   8.104  20.991  0.00  0.00    +0.021 A 
ATOM     18  H   UNL     1      18.326   5.535  19.084  0.00  0.00    +0.167 HD
ENDROOT
BRANCH   9   5
ATOM      1  N   UNL     1      21.875   4.610  21.193  0.00  0.00    -0.305 NA
ATOM      5  C   UNL     1      20.401   6.379  20.752  0.00  0.00    +0.070 C 
ATOM      6  C   UNL     1      21.102   6.618  22.100  0.00  0.00    +0.028 C 
ATOM      7  C   UNL     1      20.653   4.899  20.440  0.00  0.00    +0.095 C 
ATOM      8  C   UNL     1      21.683   5.265  22.487  0.00  0.00    +0.085 C 
ATOM     10  C   UNL     1      22.122   3.182  21.325  0.00  0.00    +0.104 C 
ENDBRANCH   9   5
BRANCH  15  17
ATOM      4  N   UNL     1      12.186   6.935  18.810  0.00  0.00    -0.191 NA
ATOM     17  C   UNL     1      13.229   7.070  19.302  0.00  0.00    +0.099 C 
ENDBRANCH  15  17
TORSDOF 2
ENDMDL
MODEL 8
REMARK VINA RESULT:      -5.4      4.691      7.037
REMARK  Name = 45784321
REMARK  3 active torsions:
REMARK  status: ('A' for Active; 'I' for Inactive)
REMARK    1  A    between atoms: N_1  and  C_10
REMARK    2  A    between atoms: C_5  and  C_9
REMARK    3  A    between atoms: C_15  and  C_17
REMARK                            x       y       z     vdW  Elec       q    Type
REMARK                         _______ _______ _______ _____ _____    ______ ____
ROOT
ATOM      2  N   UNL     1      11.522  10.771  21.585  0.00  0.00    -0.342 N 
ATOM      3  N   UNL     1      10.983   9.121  22.974  0.00  0.00    -0.232 NA
ATOM      9  C   UNL     1      11.027  10.425  22.812  0.00  0.00    +0.113 A 
ATOM     11  C   UNL     1      11.816   9.613  20.911  0.00  0.00    +0.067 A 
ATOM     12  C   UNL     1      11.472   8.599  21.799  0.00  0.00    +0.089 A 
ATOM     13  C   UNL     1      12.339   9.375  19.639  0.00  0.00    +0.046 A 
ATOM     14  C   UNL     1      11.653   7.260  21.412  0.00  0.00    +0.031 A 
ATOM     15  C   UNL     1      12.513   8.037  19.271  0.00  0.00    +0.054 A 
ATOM     16  C   UNL     1      12.176   6.997  20.140  0.00  0.00    +0.021 A 
ATOM     18  H   UNL     1      11.649  11.711  21.233  0.00  0.00    +0.167 HD
ENDROOT
BRANCH   9   5
ATOM      1  N   UNL     1      11.072  13.651  24.549  0.00  0.00    -0.305 NA
ATOM      5  C   UNL     1      10.601  11.476  23.811  0.00  0.00    +0.070 C 
ATOM      6  C   UNL     1      11.329  11.413  25.165  0.00  0.00    +0.028 C 
ATOM      7  C   UNL     1      10.833  12.907  23.311  0.00  0.00    +0.095 C 
ATOM      8  C   UNL     1      11.953  12.791  25.341  0.00  0.00    +0.085 C 
ATOM     10  C   UNL     1      11.650  14.964  24.306  0.00  0.00    +0.104 C 
ENDBRANCH   9   5
BRANCH  15  17
ATOM      4  N   UNL     1      13.479   7.480  16.933  0.00  0.00    -0.191 NA
ATOM     17  C   UNL     1      13.046   7.730  17.980  0.00  0.00    +0.099 C 
ENDBRANCH  15  17
TORSDOF 2
ENDMDL
MODEL 9
REMARK VINA RESULT:      -5.3     31.740     32.959
REMARK  Name = 45784321
REMARK  3 active torsions:
REMARK  status: ('A' for Active; 'I' for Inactive)
REMARK    1  A    between atoms: N_1  and  C_10
REMARK    2  A    between atoms: C_5  and  C_9
REMARK    3  A    between atoms: C_15  and  C_17
REMARK                            x       y       z     vdW  Elec       q    Type
REMARK                         _______ _______ _______ _____ _____    ______ ____
ROOT
ATOM      2  N   UNL     1     -13.863   4.683  31.919  0.00  0.00    -0.342 N 
ATOM      3  N   UNL     1     -14.545   4.120  33.958  0.00  0.00    -0.232 NA
ATOM      9  C   UNL     1     -14.148   5.108  33.187  0.00  0.00    +0.113 A 
ATOM     11  C   UNL     1     -14.093   3.331  31.869  0.00  0.00    +0.067 A 
ATOM     12  C   UNL     1     -14.517   3.005  33.153  0.00  0.00    +0.089 A 
ATOM     13  C   UNL     1     -13.968   2.396  30.840  0.00  0.00    +0.046 A 
ATOM     14  C   UNL     1     -14.841   1.669  33.448  0.00  0.00    +0.031 A 
ATOM     15  C   UNL     1     -14.294   1.072  31.151  0.00  0.00    +0.054 A 
ATOM     16  C   UNL     1     -14.724   0.713  32.431  0.00  0.00    +0.021 A 
ATOM     18  H   UNL     1     -13.541   5.258  31.152  0.00  0.00    +0.167 HD
ENDROOT
BRANCH   9   5
ATOM      1  N   UNL     1     -14.885   8.697  33.203  0.00  0.00    -0.305 NA
ATOM      5  C   UNL     1     -13.999   6.559  33.581  0.00  0.00    +0.070 C 
ATOM      6  C   UNL     1     -13.029   7.370  32.706  0.00  0.00    +0.028 C 
ATOM      7  C   UNL     1     -15.321   7.335  33.517  0.00  0.00    +0.095 C 
ATOM      8  C   UNL     1     -13.855   8.534  32.176  0.00  0.00    +0.085 C 
ATOM     10  C   UNL     1     -15.982   9.543  32.758  0.00  0.00    +0.104 C 
ENDBRANCH   9   5
BRANCH  15  17
ATOM      4  N   UNL     1     -14.098  -0.746  29.316  0.00  0.00    -0.191 NA
ATOM     17  C   UNL     1     -14.186   0.068  30.139  0.00  0.00    +0.099 C 
ENDBRANCH  15  17
TORSDOF 2
ENDMDL
MODEL 10
REMARK VINA RESULT:      -5.3     26.302     28.917
REMARK  Name = 45784321
REMARK  3 active torsions:
REMARK  status: ('A' for Active; 'I' for Inactive)
REMARK    1  A    between atoms: N_1  and  C_10
REMARK    2  A    between atoms: C_5  and  C_9
REMARK    3  A    between atoms: C_15  and  C_17
REMARK                            x       y       z     vdW  Elec       q    Type
REMARK                         _______ _______ _______ _____ _____    ______ ____
ROOT
ATOM      2  N   UNL     1      -7.884  -9.180  16.029  0.00  0.00    -0.342 N 
ATOM      3  N   UNL     1      -8.436  -9.865  18.070  0.00  0.00    -0.232 NA
ATOM      9  C   UNL     1      -8.871  -9.296  16.967  0.00  0.00    +0.113 A 
ATOM     11  C   UNL     1      -6.736  -9.710  16.560  0.00  0.00    +0.067 A 
ATOM     12  C   UNL     1      -7.107 -10.130  17.835  0.00  0.00    +0.089 A 
ATOM     13  C   UNL     1      -5.444  -9.853  16.051  0.00  0.00    +0.046 A 
ATOM     14  C   UNL     1      -6.144 -10.731  18.664  0.00  0.00    +0.031 A 
ATOM     15  C   UNL     1      -4.500 -10.453  16.890  0.00  0.00    +0.054 A 
ATOM     16  C   UNL     1      -4.842 -10.885  18.174  0.00  0.00    +0.021 A 
ATOM     18  H   UNL     1      -7.978  -8.777  15.106  0.00  0.00    +0.167 HD
ENDROOT
BRANCH   9   5
ATOM      1  N   UNL     1     -11.655  -7.932  15.014  0.00  0.00    -0.305 NA
ATOM      5  C   UNL     1     -10.274  -8.803  16.697  0.00  0.00    +0.070 C 
ATOM      6  C   UNL     1     -10.488  -7.299  16.935  0.00  0.00    +0.028 C 
ATOM      7  C   UNL     1     -10.720  -9.034  15.247  0.00  0.00    +0.095 C 
ATOM      8  C   UNL     1     -11.012  -6.761  15.611  0.00  0.00    +0.085 C 
ATOM     10  C   UNL     1     -11.950  -7.743  13.602  0.00  0.00    +0.104 C 
ENDBRANCH   9   5
BRANCH  15  17
ATOM      4  N   UNL     1      -2.071 -10.767  16.047  0.00  0.00    -0.191 NA
ATOM     17  C   UNL     1      -3.159 -10.626  16.424  0.00  0.00    +0.099 C 
ENDBRANCH  15  17
TORSDOF 2
ENDMDL
