REMARK  Name = 75536693
REMARK  8 active torsions:
REMARK  status: ('A' for Active; 'I' for Inactive)
REMARK    1  A    between atoms: S_1  and  N_8
REMARK    2  A    between atoms: S_1  and  C_16
REMARK    3  A    between atoms: O_4  and  C_10
REMARK    4  A    between atoms: N_7  and  C_9
REMARK    5  A    between atoms: N_7  and  C_14
REMARK    6  A    between atoms: N_8  and  C_13
REMARK    7  A    between atoms: C_11  and  C_13
REMARK    8  A    between atoms: C_14  and  C_15
REMARK                            x       y       z     vdW  Elec       q    Type
REMARK                         _______ _______ _______ _____ _____    ______ ____
ROOT
ATOM      3  O   UNL     1       0.312  -1.176   1.438  0.00  0.00    -0.371 OA
ATOM      9  C   UNL     1      -1.630  -1.150   0.072  0.00  0.00    +0.111 C 
ATOM     10  C   UNL     1      -0.423  -0.798  -0.777  0.00  0.00    +0.164 C 
ATOM     11  C   UNL     1       0.708  -1.367   0.070  0.00  0.00    +0.164 C 
ATOM     12  C   UNL     1      -1.098  -0.894   1.472  0.00  0.00    +0.181 C 
ENDROOT
BRANCH  10   4
ATOM      4  O   UNL     1      -0.468  -1.389  -2.062  0.00  0.00    -0.388 OA
ATOM     28  H   UNL     1      -0.556  -2.351  -1.953  0.00  0.00    +0.210 HD
ENDBRANCH  10   4
BRANCH   9   7
ATOM      7  N   UNL     1      -2.811  -0.361  -0.238  0.00  0.00    -0.305 NA
ATOM     27  H   UNL     1      -2.928  -0.320  -1.251  0.00  0.00    +0.123 HD
BRANCH   7  14
ATOM     14  C   UNL     1      -4.007  -0.953   0.350  0.00  0.00    +0.119 C 
BRANCH  14  15
ATOM      2  F   UNL     1      -4.618   1.470   1.683  0.00  0.00    -0.205 F 
ATOM     15  C   UNL     1      -5.239  -0.140   0.053  0.00  0.00    +0.002 A 
ATOM     17  C   UNL     1      -5.479   1.045   0.748  0.00  0.00    +0.128 A 
ATOM     18  C   UNL     1      -6.141  -0.574  -0.919  0.00  0.00    +0.008 A 
ATOM     21  C   UNL     1      -6.621   1.797   0.471  0.00  0.00    +0.038 A 
ATOM     22  C   UNL     1      -7.283   0.178  -1.196  0.00  0.00    +0.000 A 
ATOM     23  C   UNL     1      -7.523   1.363  -0.501  0.00  0.00    +0.003 A 
ENDBRANCH  14  15
ENDBRANCH   7  14
ENDBRANCH   9   7
BRANCH  11  13
ATOM     13  C   UNL     1       2.043  -0.688  -0.178  0.00  0.00    +0.140 C 
BRANCH  13   8
ATOM      8  N   UNL     1       3.076  -1.299   0.682  0.00  0.00    -0.187 NA
ATOM     29  H   UNL     1       2.893  -1.265   1.692  0.00  0.00    +0.148 HD
BRANCH   8   1
ATOM      1  S   UNL     1       4.692  -1.369   0.154  0.00  0.00    +0.058 S 
ATOM      5  O   UNL     1       4.745  -2.009  -1.147  0.00  0.00    -0.153 OA
ATOM      6  O   UNL     1       5.522  -1.853   1.240  0.00  0.00    -0.153 OA
BRANCH   1  16
ATOM     16  C   UNL     1       5.075   0.343  -0.065  0.00  0.00    +0.105 A 
ATOM     19  C   UNL     1       5.603   1.080   0.995  0.00  0.00    +0.028 A 
ATOM     20  C   UNL     1       4.846   0.957  -1.296  0.00  0.00    +0.028 A 
ATOM     24  C   UNL     1       5.902   2.432   0.824  0.00  0.00    +0.002 A 
ATOM     25  C   UNL     1       5.145   2.309  -1.467  0.00  0.00    +0.002 A 
ATOM     26  C   UNL     1       5.673   3.046  -0.407  0.00  0.00    +0.000 A 
ENDBRANCH   1  16
ENDBRANCH   8   1
ENDBRANCH  13   8
ENDBRANCH  11  13
TORSDOF 8
