MODEL 1
REMARK VINA RESULT:      -6.8      0.000      0.000
REMARK  Name = 51137941
REMARK  5 active torsions:
REMARK  status: ('A' for Active; 'I' for Inactive)
REMARK    1  A    between atoms: O_6  and  C_20
REMARK    2  A    between atoms: O_6  and  C_24
REMARK    3  A    between atoms: C_12  and  C_16
REMARK    4  A    between atoms: C_18  and  C_20
REMARK    5  A    between atoms: C_19  and  C_23
REMARK                            x       y       z     vdW  Elec       q    Type
REMARK                         _______ _______ _______ _____ _____    ______ ____
ROOT
ATOM      7  N   UNL     1      12.450   8.064   6.889  0.00  0.00    -0.299 N 
ATOM      9  N   UNL     1      11.048   6.563   7.964  0.00  0.00    -0.210 NA
ATOM     10  N   UNL     1      10.256   8.722   7.242  0.00  0.00    -0.223 NA
ATOM     12  C   UNL     1      14.649   7.789   6.033  0.00  0.00    +0.095 C 
ATOM     13  C   UNL     1      14.318   9.282   6.133  0.00  0.00    +0.033 C 
ATOM     14  C   UNL     1      13.596   7.157   6.964  0.00  0.00    +0.121 C 
ATOM     15  C   UNL     1      12.793   9.322   6.232  0.00  0.00    +0.109 C 
ATOM     17  C   UNL     1      11.198   7.770   7.386  0.00  0.00    +0.218 A 
ATOM     19  C   UNL     1       9.811   6.310   8.438  0.00  0.00    +0.149 A 
ATOM     21  C   UNL     1       9.043   8.401   7.738  0.00  0.00    +0.116 A 
ATOM     22  C   UNL     1       8.759   7.199   8.353  0.00  0.00    +0.052 A 
ENDROOT
BRANCH  12  16
ATOM      5  O   UNL     1      13.454   6.959   4.055  0.00  0.00    -0.421 OA
ATOM      8  N   UNL     1      15.659   7.184   3.755  0.00  0.00    -0.112 NA
ATOM     11  N   UNL     1      15.113   6.713   2.575  0.00  0.00    -0.109 NA
ATOM     16  C   UNL     1      14.654   7.313   4.589  0.00  0.00    +0.222 A 
ATOM     18  C   UNL     1      13.824   6.597   2.796  0.00  0.00    +0.254 A 
BRANCH  18  20
ATOM     20  C   UNL     1      12.757   6.145   1.895  0.00  0.00    +0.326 C 
BRANCH  20   6
ATOM      6  O   UNL     1      12.012   5.085   2.501  0.00  0.00    -0.483 OA
BRANCH   6  24
ATOM      4  F   UNL     1       7.600   6.558   5.428  0.00  0.00    -0.205 F 
ATOM     24  C   UNL     1      10.916   5.451   3.229  0.00  0.00    +0.121 A 
ATOM     25  C   UNL     1      10.538   4.704   4.345  0.00  0.00    +0.048 A 
ATOM     26  C   UNL     1      10.174   6.572   2.856  0.00  0.00    +0.048 A 
ATOM     27  C   UNL     1       9.418   5.078   5.088  0.00  0.00    +0.042 A 
ATOM     28  C   UNL     1       9.053   6.946   3.599  0.00  0.00    +0.042 A 
ATOM     29  C   UNL     1       8.675   6.198   4.715  0.00  0.00    +0.124 A 
ENDBRANCH   6  24
ENDBRANCH  20   6
ENDBRANCH  18  20
ENDBRANCH  12  16
BRANCH  19  23
ATOM      1  F   UNL     1      10.438   4.747  10.138  0.00  0.00    -0.164 F 
ATOM      2  F   UNL     1       9.793   3.941   8.225  0.00  0.00    -0.164 F 
ATOM      3  F   UNL     1       8.341   4.813   9.589  0.00  0.00    -0.164 F 
ATOM     23  C   UNL     1       9.600   4.983   9.086  0.00  0.00    +0.434 C 
ENDBRANCH  19  23
TORSDOF 5
ENDMDL
MODEL 2
REMARK VINA RESULT:      -6.4     29.874     33.181
REMARK  Name = 51137941
REMARK  5 active torsions:
REMARK  status: ('A' for Active; 'I' for Inactive)
REMARK    1  A    between atoms: O_6  and  C_20
REMARK    2  A    between atoms: O_6  and  C_24
REMARK    3  A    between atoms: C_12  and  C_16
REMARK    4  A    between atoms: C_18  and  C_20
REMARK    5  A    between atoms: C_19  and  C_23
REMARK                            x       y       z     vdW  Elec       q    Type
REMARK                         _______ _______ _______ _____ _____    ______ ____
ROOT
ATOM      7  N   UNL     1     -15.908   6.777  22.183  0.00  0.00    -0.299 N 
ATOM      9  N   UNL     1     -13.906   7.191  21.090  0.00  0.00    -0.210 NA
ATOM     10  N   UNL     1     -14.777   8.725  22.732  0.00  0.00    -0.223 NA
ATOM     12  C   UNL     1     -17.282   4.840  22.218  0.00  0.00    +0.095 C 
ATOM     13  C   UNL     1     -18.068   6.038  22.759  0.00  0.00    +0.033 C 
ATOM     14  C   UNL     1     -16.123   5.520  21.465  0.00  0.00    +0.121 C 
ATOM     15  C   UNL     1     -16.991   7.061  23.120  0.00  0.00    +0.109 C 
ATOM     17  C   UNL     1     -14.817   7.599  21.994  0.00  0.00    +0.218 A 
ATOM     19  C   UNL     1     -12.853   8.019  20.930  0.00  0.00    +0.149 A 
ATOM     21  C   UNL     1     -13.697   9.505  22.522  0.00  0.00    +0.116 A 
ATOM     22  C   UNL     1     -12.693   9.200  21.625  0.00  0.00    +0.052 A 
ENDROOT
BRANCH  12  16
ATOM      5  O   UNL     1     -17.379   4.148  24.573  0.00  0.00    -0.421 OA
ATOM      8  N   UNL     1     -16.156   2.794  23.279  0.00  0.00    -0.112 NA
ATOM     11  N   UNL     1     -16.128   2.294  24.567  0.00  0.00    -0.109 NA
ATOM     16  C   UNL     1     -16.898   3.875  23.329  0.00  0.00    +0.222 A 
ATOM     18  C   UNL     1     -16.855   3.116  25.288  0.00  0.00    +0.254 A 
BRANCH  18  20
ATOM     20  C   UNL     1     -17.173   3.072  26.721  0.00  0.00    +0.326 C 
BRANCH  20   6
ATOM      6  O   UNL     1     -16.045   3.492  27.492  0.00  0.00    -0.483 OA
BRANCH   6  24
ATOM      4  F   UNL     1     -14.738   0.366  31.820  0.00  0.00    -0.205 F 
ATOM     24  C   UNL     1     -15.720   2.714  28.568  0.00  0.00    +0.121 A 
ATOM     25  C   UNL     1     -16.288   1.448  28.711  0.00  0.00    +0.048 A 
ATOM     26  C   UNL     1     -14.819   3.187  29.523  0.00  0.00    +0.048 A 
ATOM     27  C   UNL     1     -15.957   0.655  29.809  0.00  0.00    +0.042 A 
ATOM     28  C   UNL     1     -14.489   2.394  30.622  0.00  0.00    +0.042 A 
ATOM     29  C   UNL     1     -15.057   1.128  30.765  0.00  0.00    +0.124 A 
ENDBRANCH   6  24
ENDBRANCH  20   6
ENDBRANCH  18  20
ENDBRANCH  12  16
BRANCH  19  23
ATOM      1  F   UNL     1     -10.631   8.265  20.078  0.00  0.00    -0.164 F 
ATOM      2  F   UNL     1     -12.209   7.822  18.650  0.00  0.00    -0.164 F 
ATOM      3  F   UNL     1     -11.497   6.278  20.006  0.00  0.00    -0.164 F 
ATOM     23  C   UNL     1     -11.818   7.604  19.939  0.00  0.00    +0.434 C 
ENDBRANCH  19  23
TORSDOF 5
ENDMDL
MODEL 3
REMARK VINA RESULT:      -6.4     26.136     27.697
REMARK  Name = 51137941
REMARK  5 active torsions:
REMARK  status: ('A' for Active; 'I' for Inactive)
REMARK    1  A    between atoms: O_6  and  C_20
REMARK    2  A    between atoms: O_6  and  C_24
REMARK    3  A    between atoms: C_12  and  C_16
REMARK    4  A    between atoms: C_18  and  C_20
REMARK    5  A    between atoms: C_19  and  C_23
REMARK                            x       y       z     vdW  Elec       q    Type
REMARK                         _______ _______ _______ _____ _____    ______ ____
ROOT
ATOM      7  N   UNL     1      -8.377  -9.922  15.369  0.00  0.00    -0.299 N 
ATOM      9  N   UNL     1      -7.205 -10.437  17.302  0.00  0.00    -0.210 NA
ATOM     10  N   UNL     1      -6.066 -10.019  15.219  0.00  0.00    -0.223 NA
ATOM     12  C   UNL     1     -10.673  -9.411  15.040  0.00  0.00    +0.095 C 
ATOM     13  C   UNL     1     -10.021  -9.739  13.693  0.00  0.00    +0.033 C 
ATOM     14  C   UNL     1      -9.672 -10.013  16.045  0.00  0.00    +0.121 C 
ATOM     15  C   UNL     1      -8.523  -9.586  13.956  0.00  0.00    +0.109 C 
ATOM     17  C   UNL     1      -7.165 -10.135  15.990  0.00  0.00    +0.218 A 
ATOM     19  C   UNL     1      -6.001 -10.638  17.877  0.00  0.00    +0.149 A 
ATOM     21  C   UNL     1      -4.897 -10.233  15.859  0.00  0.00    +0.116 A 
ATOM     22  C   UNL     1      -4.803 -10.549  17.199  0.00  0.00    +0.052 A 
ENDROOT
BRANCH  12  16
ATOM      5  O   UNL     1     -11.848  -7.390  14.290  0.00  0.00    -0.421 OA
ATOM      8  N   UNL     1     -10.483  -7.053  16.029  0.00  0.00    -0.112 NA
ATOM     11  N   UNL     1     -11.076  -5.846  15.712  0.00  0.00    -0.109 NA
ATOM     16  C   UNL     1     -10.963  -7.925  15.174  0.00  0.00    +0.222 A 
ATOM     18  C   UNL     1     -11.865  -6.089  14.692  0.00  0.00    +0.254 A 
BRANCH  18  20
ATOM     20  C   UNL     1     -12.740  -5.176  13.946  0.00  0.00    +0.326 C 
BRANCH  20   6
ATOM      6  O   UNL     1     -11.972  -4.390  13.031  0.00  0.00    -0.483 OA
BRANCH   6  24
ATOM      4  F   UNL     1     -14.559  -2.702   8.485  0.00  0.00    -0.205 F 
ATOM     24  C   UNL     1     -12.615  -3.970  11.901  0.00  0.00    +0.121 A 
ATOM     25  C   UNL     1     -11.986  -4.076  10.660  0.00  0.00    +0.048 A 
ATOM     26  C   UNL     1     -13.901  -3.436  11.988  0.00  0.00    +0.048 A 
ATOM     27  C   UNL     1     -12.643  -3.648   9.506  0.00  0.00    +0.042 A 
ATOM     28  C   UNL     1     -14.558  -3.007  10.834  0.00  0.00    +0.042 A 
ATOM     29  C   UNL     1     -13.928  -3.112   9.593  0.00  0.00    +0.124 A 
ENDBRANCH   6  24
ENDBRANCH  20   6
ENDBRANCH  18  20
ENDBRANCH  12  16
BRANCH  19  23
ATOM      1  F   UNL     1      -4.816 -11.493  19.771  0.00  0.00    -0.164 F 
ATOM      2  F   UNL     1      -6.949 -11.900  19.656  0.00  0.00    -0.164 F 
ATOM      3  F   UNL     1      -6.242  -9.901  20.140  0.00  0.00    -0.164 F 
ATOM     23  C   UNL     1      -6.000 -10.974  19.330  0.00  0.00    +0.434 C 
ENDBRANCH  19  23
TORSDOF 5
ENDMDL
MODEL 4
REMARK VINA RESULT:      -6.4     23.081     25.730
REMARK  Name = 51137941
REMARK  5 active torsions:
REMARK  status: ('A' for Active; 'I' for Inactive)
REMARK    1  A    between atoms: O_6  and  C_20
REMARK    2  A    between atoms: O_6  and  C_24
REMARK    3  A    between atoms: C_12  and  C_16
REMARK    4  A    between atoms: C_18  and  C_20
REMARK    5  A    between atoms: C_19  and  C_23
REMARK                            x       y       z     vdW  Elec       q    Type
REMARK                         _______ _______ _______ _____ _____    ______ ____
ROOT
ATOM      7  N   UNL     1      -6.292 -10.784  16.713  0.00  0.00    -0.299 N 
ATOM      9  N   UNL     1      -8.101 -10.441  15.305  0.00  0.00    -0.210 NA
ATOM     10  N   UNL     1      -7.797  -9.121  17.297  0.00  0.00    -0.223 NA
ATOM     12  C   UNL     1      -4.345 -12.116  16.437  0.00  0.00    +0.095 C 
ATOM     13  C   UNL     1      -4.493 -11.721  17.909  0.00  0.00    +0.033 C 
ATOM     14  C   UNL     1      -5.762 -11.869  15.886  0.00  0.00    +0.121 C 
ATOM     15  C   UNL     1      -5.456 -10.534  17.883  0.00  0.00    +0.109 C 
ATOM     17  C   UNL     1      -7.445 -10.086  16.425  0.00  0.00    +0.218 A 
ATOM     19  C   UNL     1      -9.225  -9.737  15.055  0.00  0.00    +0.149 A 
ATOM     21  C   UNL     1      -8.929  -8.457  16.986  0.00  0.00    +0.116 A 
ATOM     22  C   UNL     1      -9.692  -8.725  15.867  0.00  0.00    +0.052 A 
ENDROOT
BRANCH  12  16
ATOM      5  O   UNL     1      -3.267 -11.244  14.410  0.00  0.00    -0.421 OA
ATOM      8  N   UNL     1      -2.161 -10.780  16.298  0.00  0.00    -0.112 NA
ATOM     11  N   UNL     1      -1.453 -10.236  15.242  0.00  0.00    -0.109 NA
ATOM     16  C   UNL     1      -3.212 -11.357  15.765  0.00  0.00    +0.222 A 
ATOM     18  C   UNL     1      -2.135 -10.531  14.161  0.00  0.00    +0.254 A 
BRANCH  18  20
ATOM     20  C   UNL     1      -1.852 -10.205  12.757  0.00  0.00    +0.326 C 
BRANCH  20   6
ATOM      6  O   UNL     1      -2.374 -11.221  11.897  0.00  0.00    -0.483 OA
BRANCH   6  24
ATOM      4  F   UNL     1      -5.286  -9.502   7.565  0.00  0.00    -0.205 F 
ATOM     24  C   UNL     1      -3.098 -10.794  10.820  0.00  0.00    +0.121 A 
ATOM     25  C   UNL     1      -3.817 -11.712  10.053  0.00  0.00    +0.048 A 
ATOM     26  C   UNL     1      -3.119  -9.439  10.487  0.00  0.00    +0.048 A 
ATOM     27  C   UNL     1      -4.556 -11.276   8.953  0.00  0.00    +0.042 A 
ATOM     28  C   UNL     1      -3.858  -9.003   9.387  0.00  0.00    +0.042 A 
ATOM     29  C   UNL     1      -4.576  -9.921   8.620  0.00  0.00    +0.124 A 
ENDBRANCH   6  24
ENDBRANCH  20   6
ENDBRANCH  18  20
ENDBRANCH  12  16
BRANCH  19  23
ATOM      1  F   UNL     1     -10.017 -11.441  13.574  0.00  0.00    -0.164 F 
ATOM      2  F   UNL     1      -9.454  -9.532  12.697  0.00  0.00    -0.164 F 
ATOM      3  F   UNL     1     -11.291  -9.706  13.849  0.00  0.00    -0.164 F 
ATOM     23  C   UNL     1      -9.982 -10.098  13.822  0.00  0.00    +0.434 C 
ENDBRANCH  19  23
TORSDOF 5
ENDMDL
MODEL 5
REMARK VINA RESULT:      -6.4     24.272     26.964
REMARK  Name = 51137941
REMARK  5 active torsions:
REMARK  status: ('A' for Active; 'I' for Inactive)
REMARK    1  A    between atoms: O_6  and  C_20
REMARK    2  A    between atoms: O_6  and  C_24
REMARK    3  A    between atoms: C_12  and  C_16
REMARK    4  A    between atoms: C_18  and  C_20
REMARK    5  A    between atoms: C_19  and  C_23
REMARK                            x       y       z     vdW  Elec       q    Type
REMARK                         _______ _______ _______ _____ _____    ______ ____
ROOT
ATOM      7  N   UNL     1      -6.425 -10.278  17.307  0.00  0.00    -0.299 N 
ATOM      9  N   UNL     1      -8.423 -10.506  18.460  0.00  0.00    -0.210 NA
ATOM     10  N   UNL     1      -8.169  -8.876  16.703  0.00  0.00    -0.223 NA
ATOM     12  C   UNL     1      -4.467 -11.623  17.318  0.00  0.00    +0.095 C 
ATOM     13  C   UNL     1      -4.155 -10.266  16.681  0.00  0.00    +0.033 C 
ATOM     14  C   UNL     1      -5.773 -11.335  18.082  0.00  0.00    +0.121 C 
ATOM     15  C   UNL     1      -5.526  -9.701  16.311  0.00  0.00    +0.109 C 
ATOM     17  C   UNL     1      -7.728  -9.870  17.498  0.00  0.00    +0.218 A 
ATOM     19  C   UNL     1      -9.693 -10.082  18.619  0.00  0.00    +0.149 A 
ATOM     21  C   UNL     1      -9.448  -8.502  16.916  0.00  0.00    +0.116 A 
ATOM     22  C   UNL     1     -10.265  -9.074  17.870  0.00  0.00    +0.052 A 
ENDROOT
BRANCH  12  16
ATOM      5  O   UNL     1      -3.764 -12.557  15.158  0.00  0.00    -0.421 OA
ATOM      8  N   UNL     1      -5.191 -13.857  16.287  0.00  0.00    -0.112 NA
ATOM     11  N   UNL     1      -4.879 -14.495  15.101  0.00  0.00    -0.109 NA
ATOM     16  C   UNL     1      -4.518 -12.731  16.278  0.00  0.00    +0.222 A 
ATOM     18  C   UNL     1      -4.044 -13.700  14.475  0.00  0.00    +0.254 A 
BRANCH  18  20
ATOM     20  C   UNL     1      -3.385 -13.873  13.173  0.00  0.00    +0.326 C 
BRANCH  20   6
ATOM      6  O   UNL     1      -2.367 -12.883  12.998  0.00  0.00    -0.483 OA
BRANCH   6  24
ATOM      4  F   UNL     1      -3.414  -8.913   9.345  0.00  0.00    -0.205 F 
ATOM     24  C   UNL     1      -2.628 -11.897  12.090  0.00  0.00    +0.121 A 
ATOM     25  C   UNL     1      -3.599 -12.091  11.106  0.00  0.00    +0.048 A 
ATOM     26  C   UNL     1      -1.923 -10.694  12.146  0.00  0.00    +0.048 A 
ATOM     27  C   UNL     1      -3.864 -11.083  10.179  0.00  0.00    +0.042 A 
ATOM     28  C   UNL     1      -2.188  -9.686  11.218  0.00  0.00    +0.042 A 
ATOM     29  C   UNL     1      -3.159  -9.881  10.234  0.00  0.00    +0.124 A 
ENDBRANCH   6  24
ENDBRANCH  20   6
ENDBRANCH  18  20
ENDBRANCH  12  16
BRANCH  19  23
ATOM      1  F   UNL     1      -9.772 -11.611  20.458  0.00  0.00    -0.164 F 
ATOM      2  F   UNL     1     -11.512 -11.517  19.156  0.00  0.00    -0.164 F 
ATOM      3  F   UNL     1     -11.098  -9.897  20.547  0.00  0.00    -0.164 F 
ATOM     23  C   UNL     1     -10.500 -10.761  19.674  0.00  0.00    +0.434 C 
ENDBRANCH  19  23
TORSDOF 5
ENDMDL
MODEL 6
REMARK VINA RESULT:      -6.3     24.457     27.522
REMARK  Name = 51137941
REMARK  5 active torsions:
REMARK  status: ('A' for Active; 'I' for Inactive)
REMARK    1  A    between atoms: O_6  and  C_20
REMARK    2  A    between atoms: O_6  and  C_24
REMARK    3  A    between atoms: C_12  and  C_16
REMARK    4  A    between atoms: C_18  and  C_20
REMARK    5  A    between atoms: C_19  and  C_23
REMARK                            x       y       z     vdW  Elec       q    Type
REMARK                         _______ _______ _______ _____ _____    ______ ____
ROOT
ATOM      7  N   UNL     1      -4.405 -12.013  16.755  0.00  0.00    -0.299 N 
ATOM      9  N   UNL     1      -3.449 -11.357  14.747  0.00  0.00    -0.210 NA
ATOM     10  N   UNL     1      -3.992 -13.664  15.182  0.00  0.00    -0.223 NA
ATOM     12  C   UNL     1      -5.288 -10.724  18.544  0.00  0.00    +0.095 C 
ATOM     13  C   UNL     1      -5.067 -12.167  19.009  0.00  0.00    +0.033 C 
ATOM     14  C   UNL     1      -4.408 -10.648  17.282  0.00  0.00    +0.121 C 
ATOM     15  C   UNL     1      -4.959 -12.967  17.711  0.00  0.00    +0.109 C 
ATOM     17  C   UNL     1      -3.929 -12.359  15.508  0.00  0.00    +0.218 A 
ATOM     19  C   UNL     1      -2.992 -11.732  13.534  0.00  0.00    +0.149 A 
ATOM     21  C   UNL     1      -3.519 -13.968  13.955  0.00  0.00    +0.116 A 
ATOM     22  C   UNL     1      -3.002 -13.034  13.080  0.00  0.00    +0.052 A 
ENDROOT
BRANCH  12  16
ATOM      5  O   UNL     1      -7.089  -9.511  17.398  0.00  0.00    -0.421 OA
ATOM      8  N   UNL     1      -7.805 -10.892  19.006  0.00  0.00    -0.112 NA
ATOM     11  N   UNL     1      -8.910 -10.278  18.446  0.00  0.00    -0.109 NA
ATOM     16  C   UNL     1      -6.765 -10.415  18.363  0.00  0.00    +0.222 A 
ATOM     18  C   UNL     1      -8.445  -9.481  17.513  0.00  0.00    +0.254 A 
BRANCH  18  20
ATOM     20  C   UNL     1      -9.169  -8.588  16.598  0.00  0.00    +0.326 C 
BRANCH  20   6
ATOM      6  O   UNL     1     -10.197  -7.887  17.302  0.00  0.00    -0.483 OA
BRANCH   6  24
ATOM      4  F   UNL     1     -14.216  -5.720  14.242  0.00  0.00    -0.205 F 
ATOM     24  C   UNL     1     -11.196  -7.348  16.541  0.00  0.00    +0.121 A 
ATOM     25  C   UNL     1     -10.955  -6.202  15.782  0.00  0.00    +0.048 A 
ATOM     26  C   UNL     1     -12.458  -7.944  16.523  0.00  0.00    +0.048 A 
ATOM     27  C   UNL     1     -11.975  -5.652  15.005  0.00  0.00    +0.042 A 
ATOM     28  C   UNL     1     -13.478  -7.394  15.747  0.00  0.00    +0.042 A 
ATOM     29  C   UNL     1     -13.237  -6.248  14.988  0.00  0.00    +0.124 A 
ENDBRANCH   6  24
ENDBRANCH  20   6
ENDBRANCH  18  20
ENDBRANCH  12  16
BRANCH  19  23
ATOM      1  F   UNL     1      -3.408  -9.789  12.201  0.00  0.00    -0.164 F 
ATOM      2  F   UNL     1      -1.837 -11.140  11.542  0.00  0.00    -0.164 F 
ATOM      3  F   UNL     1      -1.524  -9.861  13.273  0.00  0.00    -0.164 F 
ATOM     23  C   UNL     1      -2.453 -10.652  12.658  0.00  0.00    +0.434 C 
ENDBRANCH  19  23
TORSDOF 5
ENDMDL
MODEL 7
REMARK VINA RESULT:      -6.3     23.359     26.241
REMARK  Name = 51137941
REMARK  5 active torsions:
REMARK  status: ('A' for Active; 'I' for Inactive)
REMARK    1  A    between atoms: O_6  and  C_20
REMARK    2  A    between atoms: O_6  and  C_24
REMARK    3  A    between atoms: C_12  and  C_16
REMARK    4  A    between atoms: C_18  and  C_20
REMARK    5  A    between atoms: C_19  and  C_23
REMARK                            x       y       z     vdW  Elec       q    Type
REMARK                         _______ _______ _______ _____ _____    ______ ____
ROOT
ATOM      7  N   UNL     1      -2.802 -11.687  12.439  0.00  0.00    -0.299 N 
ATOM      9  N   UNL     1      -3.734 -10.653  10.586  0.00  0.00    -0.210 NA
ATOM     10  N   UNL     1      -3.581 -13.053  10.737  0.00  0.00    -0.223 NA
ATOM     12  C   UNL     1      -2.140 -10.798  14.540  0.00  0.00    +0.095 C 
ATOM     13  C   UNL     1      -1.531 -12.192  14.357  0.00  0.00    +0.033 C 
ATOM     14  C   UNL     1      -2.516 -10.412  13.097  0.00  0.00    +0.121 C 
ATOM     15  C   UNL     1      -2.372 -12.824  13.247  0.00  0.00    +0.109 C 
ATOM     17  C   UNL     1      -3.398 -11.802  11.202  0.00  0.00    +0.218 A 
ATOM     19  C   UNL     1      -4.315 -10.803   9.378  0.00  0.00    +0.149 A 
ATOM     21  C   UNL     1      -4.168 -13.129   9.524  0.00  0.00    +0.116 A 
ATOM     22  C   UNL     1      -4.559 -12.027   8.791  0.00  0.00    +0.052 A 
ENDROOT
BRANCH  12  16
ATOM      5  O   UNL     1      -4.530 -10.631  15.077  0.00  0.00    -0.421 OA
ATOM      8  N   UNL     1      -3.221 -10.970  16.859  0.00  0.00    -0.112 NA
ATOM     11  N   UNL     1      -4.531 -10.896  17.298  0.00  0.00    -0.109 NA
ATOM     16  C   UNL     1      -3.270 -10.811  15.558  0.00  0.00    +0.222 A 
ATOM     18  C   UNL     1      -5.259 -10.698  16.225  0.00  0.00    +0.254 A 
BRANCH  18  20
ATOM     20  C   UNL     1      -6.714 -10.545  16.096  0.00  0.00    +0.326 C 
BRANCH  20   6
ATOM      6  O   UNL     1      -7.134  -9.304  16.670  0.00  0.00    -0.483 OA
BRANCH   6  24
ATOM      4  F   UNL     1     -12.205  -9.180  18.786  0.00  0.00    -0.205 F 
ATOM     24  C   UNL     1      -8.395  -9.273  17.196  0.00  0.00    +0.121 A 
ATOM     25  C   UNL     1      -8.800 -10.260  18.096  0.00  0.00    +0.048 A 
ATOM     26  C   UNL     1      -9.277  -8.254  16.834  0.00  0.00    +0.048 A 
ATOM     27  C   UNL     1     -10.087 -10.228  18.633  0.00  0.00    +0.042 A 
ATOM     28  C   UNL     1     -10.564  -8.223  17.371  0.00  0.00    +0.042 A 
ATOM     29  C   UNL     1     -10.970  -9.210  18.270  0.00  0.00    +0.124 A 
ENDBRANCH   6  24
ENDBRANCH  20   6
ENDBRANCH  18  20
ENDBRANCH  12  16
BRANCH  19  23
ATOM      1  F   UNL     1      -3.794  -8.544   8.786  0.00  0.00    -0.164 F 
ATOM      2  F   UNL     1      -5.887  -9.038   9.110  0.00  0.00    -0.164 F 
ATOM      3  F   UNL     1      -4.867  -9.723   7.315  0.00  0.00    -0.164 F 
ATOM     23  C   UNL     1      -4.705  -9.554   8.661  0.00  0.00    +0.434 C 
ENDBRANCH  19  23
TORSDOF 5
ENDMDL
MODEL 8
REMARK VINA RESULT:      -6.1      2.973      3.787
REMARK  Name = 51137941
REMARK  5 active torsions:
REMARK  status: ('A' for Active; 'I' for Inactive)
REMARK    1  A    between atoms: O_6  and  C_20
REMARK    2  A    between atoms: O_6  and  C_24
REMARK    3  A    between atoms: C_12  and  C_16
REMARK    4  A    between atoms: C_18  and  C_20
REMARK    5  A    between atoms: C_19  and  C_23
REMARK                            x       y       z     vdW  Elec       q    Type
REMARK                         _______ _______ _______ _____ _____    ______ ____
ROOT
ATOM      7  N   UNL     1      11.777   7.780   3.991  0.00  0.00    -0.299 N 
ATOM      9  N   UNL     1      10.888   6.568   5.756  0.00  0.00    -0.210 NA
ATOM     10  N   UNL     1       9.480   7.469   4.020  0.00  0.00    -0.223 NA
ATOM     12  C   UNL     1      14.032   8.130   3.333  0.00  0.00    +0.095 C 
ATOM     13  C   UNL     1      13.127   9.146   2.629  0.00  0.00    +0.033 C 
ATOM     14  C   UNL     1      13.144   7.650   4.497  0.00  0.00    +0.121 C 
ATOM     15  C   UNL     1      11.726   8.547   2.751  0.00  0.00    +0.109 C 
ATOM     17  C   UNL     1      10.668   7.249   4.616  0.00  0.00    +0.218 A 
ATOM     19  C   UNL     1       9.782   6.062   6.340  0.00  0.00    +0.149 A 
ATOM     21  C   UNL     1       8.417   6.935   4.657  0.00  0.00    +0.116 A 
ATOM     22  C   UNL     1       8.508   6.216   5.831  0.00  0.00    +0.052 A 
ENDROOT
BRANCH  12  16
ATOM      5  O   UNL     1      14.192   5.774   2.656  0.00  0.00    -0.421 OA
ATOM      8  N   UNL     1      15.248   7.188   1.281  0.00  0.00    -0.112 NA
ATOM     11  N   UNL     1      15.415   5.907   0.788  0.00  0.00    -0.109 NA
ATOM     16  C   UNL     1      14.528   7.062   2.371  0.00  0.00    +0.222 A 
ATOM     18  C   UNL     1      14.783   5.115   1.622  0.00  0.00    +0.254 A 
BRANCH  18  20
ATOM     20  C   UNL     1      14.627   3.655   1.591  0.00  0.00    +0.326 C 
BRANCH  20   6
ATOM      6  O   UNL     1      13.244   3.302   1.678  0.00  0.00    -0.483 OA
BRANCH   6  24
ATOM      4  F   UNL     1      10.163   4.379  -2.744  0.00  0.00    -0.205 F 
ATOM     24  C   UNL     1      12.478   3.569   0.578  0.00  0.00    +0.121 A 
ATOM     25  C   UNL     1      12.850   3.069  -0.670  0.00  0.00    +0.048 A 
ATOM     26  C   UNL     1      11.323   4.343   0.704  0.00  0.00    +0.048 A 
ATOM     27  C   UNL     1      12.068   3.343  -1.793  0.00  0.00    +0.042 A 
ATOM     28  C   UNL     1      10.542   4.617  -0.418  0.00  0.00    +0.042 A 
ATOM     29  C   UNL     1      10.914   4.117  -1.667  0.00  0.00    +0.124 A 
ENDBRANCH   6  24
ENDBRANCH  20   6
ENDBRANCH  18  20
ENDBRANCH  12  16
BRANCH  19  23
ATOM      1  F   UNL     1      11.196   5.513   8.189  0.00  0.00    -0.164 F 
ATOM      2  F   UNL     1       9.895   3.948   7.422  0.00  0.00    -0.164 F 
ATOM      3  F   UNL     1       9.063   5.595   8.573  0.00  0.00    -0.164 F 
ATOM     23  C   UNL     1       9.980   5.298   7.605  0.00  0.00    +0.434 C 
ENDBRANCH  19  23
TORSDOF 5
ENDMDL
MODEL 9
REMARK VINA RESULT:      -6.1     26.392     28.379
REMARK  Name = 51137941
REMARK  5 active torsions:
REMARK  status: ('A' for Active; 'I' for Inactive)
REMARK    1  A    between atoms: O_6  and  C_20
REMARK    2  A    between atoms: O_6  and  C_24
REMARK    3  A    between atoms: C_12  and  C_16
REMARK    4  A    between atoms: C_18  and  C_20
REMARK    5  A    between atoms: C_19  and  C_23
REMARK                            x       y       z     vdW  Elec       q    Type
REMARK                         _______ _______ _______ _____ _____    ______ ____
ROOT
ATOM      7  N   UNL     1     -13.121  -6.721  13.463  0.00  0.00    -0.299 N 
ATOM      9  N   UNL     1     -12.587  -5.364  11.660  0.00  0.00    -0.210 NA
ATOM     10  N   UNL     1     -14.211  -4.682  13.305  0.00  0.00    -0.223 NA
ATOM     12  C   UNL     1     -12.111  -8.723  14.247  0.00  0.00    +0.095 C 
ATOM     13  C   UNL     1     -13.493  -8.558  14.888  0.00  0.00    +0.033 C 
ATOM     14  C   UNL     1     -12.195  -7.772  13.038  0.00  0.00    +0.121 C 
ATOM     15  C   UNL     1     -13.822  -7.078  14.692  0.00  0.00    +0.109 C 
ATOM     17  C   UNL     1     -13.314  -5.539  12.780  0.00  0.00    +0.218 A 
ATOM     19  C   UNL     1     -12.801  -4.197  11.019  0.00  0.00    +0.149 A 
ATOM     21  C   UNL     1     -14.374  -3.535  12.613  0.00  0.00    +0.116 A 
ATOM     22  C   UNL     1     -13.691  -3.236  11.452  0.00  0.00    +0.052 A 
ENDROOT
BRANCH  12  16
ATOM      5  O   UNL     1     -10.370  -9.549  15.769  0.00  0.00    -0.421 OA
ATOM      8  N   UNL     1     -10.528  -7.318  15.694  0.00  0.00    -0.112 NA
ATOM     11  N   UNL     1      -9.518  -7.646  16.580  0.00  0.00    -0.109 NA
ATOM     16  C   UNL     1     -10.996  -8.459  15.245  0.00  0.00    +0.222 A 
ATOM     18  C   UNL     1      -9.462  -8.957  16.592  0.00  0.00    +0.254 A 
BRANCH  18  20
ATOM     20  C   UNL     1      -8.575  -9.849  17.350  0.00  0.00    +0.326 C 
BRANCH  20   6
ATOM      6  O   UNL     1      -7.206  -9.520  17.096  0.00  0.00    -0.483 OA
BRANCH   6  24
ATOM      4  F   UNL     1      -3.439 -12.464  19.806  0.00  0.00    -0.205 F 
ATOM     24  C   UNL     1      -6.269 -10.251  17.769  0.00  0.00    +0.121 A 
ATOM     25  C   UNL     1      -5.076 -10.607  17.139  0.00  0.00    +0.048 A 
ATOM     26  C   UNL     1      -6.506 -10.643  19.088  0.00  0.00    +0.048 A 
ATOM     27  C   UNL     1      -4.120 -11.355  17.827  0.00  0.00    +0.042 A 
ATOM     28  C   UNL     1      -5.550 -11.391  19.775  0.00  0.00    +0.042 A 
ATOM     29  C   UNL     1      -4.357 -11.747  19.145  0.00  0.00    +0.124 A 
ENDBRANCH   6  24
ENDBRANCH  20   6
ENDBRANCH  18  20
ENDBRANCH  12  16
BRANCH  19  23
ATOM      1  F   UNL     1     -12.723  -3.334   8.789  0.00  0.00    -0.164 F 
ATOM      2  F   UNL     1     -11.559  -5.121   9.214  0.00  0.00    -0.164 F 
ATOM      3  F   UNL     1     -10.906  -3.187   9.964  0.00  0.00    -0.164 F 
ATOM     23  C   UNL     1     -12.015  -3.962   9.773  0.00  0.00    +0.434 C 
ENDBRANCH  19  23
TORSDOF 5
ENDMDL
MODEL 10
REMARK VINA RESULT:      -6.1     23.508     26.686
REMARK  Name = 51137941
REMARK  5 active torsions:
REMARK  status: ('A' for Active; 'I' for Inactive)
REMARK    1  A    between atoms: O_6  and  C_20
REMARK    2  A    between atoms: O_6  and  C_24
REMARK    3  A    between atoms: C_12  and  C_16
REMARK    4  A    between atoms: C_18  and  C_20
REMARK    5  A    between atoms: C_19  and  C_23
REMARK                            x       y       z     vdW  Elec       q    Type
REMARK                         _______ _______ _______ _____ _____    ______ ____
ROOT
ATOM      7  N   UNL     1      -6.750 -10.894  11.267  0.00  0.00    -0.299 N 
ATOM      9  N   UNL     1      -4.475 -10.622  11.621  0.00  0.00    -0.210 NA
ATOM     10  N   UNL     1      -5.614  -9.461   9.843  0.00  0.00    -0.223 NA
ATOM     12  C   UNL     1      -8.403 -11.980  12.583  0.00  0.00    +0.095 C 
ATOM     13  C   UNL     1      -8.946 -11.737  11.171  0.00  0.00    +0.033 C 
ATOM     14  C   UNL     1      -6.883 -11.837  12.379  0.00  0.00    +0.121 C 
ATOM     15  C   UNL     1      -8.024 -10.662  10.595  0.00  0.00    +0.109 C 
ATOM     17  C   UNL     1      -5.563 -10.300  10.896  0.00  0.00    +0.218 A 
ATOM     19  C   UNL     1      -3.332 -10.023  11.230  0.00  0.00    +0.149 A 
ATOM     21  C   UNL     1      -4.435  -8.897   9.507  0.00  0.00    +0.116 A 
ATOM     22  C   UNL     1      -3.250  -9.144  10.170  0.00  0.00    +0.052 A 
ENDROOT
BRANCH  12  16
ATOM      5  O   UNL     1      -8.474 -10.998  14.832  0.00  0.00    -0.421 OA
ATOM      8  N   UNL     1     -10.087 -10.260  13.469  0.00  0.00    -0.112 NA
ATOM     11  N   UNL     1     -10.240  -9.633  14.691  0.00  0.00    -0.109 NA
ATOM     16  C   UNL     1      -9.044 -11.046  13.597  0.00  0.00    +0.222 A 
ATOM     18  C   UNL     1      -9.278 -10.093  15.455  0.00  0.00    +0.254 A 
BRANCH  18  20
ATOM     20  C   UNL     1      -8.957  -9.773  16.852  0.00  0.00    +0.326 C 
BRANCH  20   6
ATOM      6  O   UNL     1      -7.675  -9.145  16.935  0.00  0.00    -0.483 OA
BRANCH   6  24
ATOM      4  F   UNL     1      -3.670 -12.069  19.305  0.00  0.00    -0.205 F 
ATOM     24  C   UNL     1      -6.679  -9.872  17.524  0.00  0.00    +0.121 A 
ATOM     25  C   UNL     1      -5.492 -10.117  16.833  0.00  0.00    +0.048 A 
ATOM     26  C   UNL     1      -6.850 -10.369  18.816  0.00  0.00    +0.048 A 
ATOM     27  C   UNL     1      -4.475 -10.859  17.435  0.00  0.00    +0.042 A 
ATOM     28  C   UNL     1      -5.833 -11.112  19.418  0.00  0.00    +0.042 A 
ATOM     29  C   UNL     1      -4.646 -11.357  18.727  0.00  0.00    +0.124 A 
ENDBRANCH   6  24
ENDBRANCH  20   6
ENDBRANCH  18  20
ENDBRANCH  12  16
BRANCH  19  23
ATOM      1  F   UNL     1      -1.757 -11.671  11.957  0.00  0.00    -0.164 F 
ATOM      2  F   UNL     1      -2.227 -10.057  13.336  0.00  0.00    -0.164 F 
ATOM      3  F   UNL     1      -0.991  -9.676  11.587  0.00  0.00    -0.164 F 
ATOM     23  C   UNL     1      -2.102 -10.351  12.008  0.00  0.00    +0.434 C 
ENDBRANCH  19  23
TORSDOF 5
ENDMDL
