MODEL 1
REMARK VINA RESULT:      -6.1      0.000      0.000
REMARK  Name = 75367091
REMARK  8 active torsions:
REMARK  status: ('A' for Active; 'I' for Inactive)
REMARK    1  A    between atoms: O_3  and  C_8
REMARK    2  A    between atoms: N_5  and  C_7
REMARK    3  A    between atoms: N_5  and  C_12
REMARK    4  A    between atoms: N_6  and  C_11
REMARK    5  A    between atoms: C_9  and  C_11
REMARK    6  A    between atoms: C_12  and  C_13
REMARK    7  A    between atoms: C_14  and  C_17
REMARK    8  A    between atoms: C_20  and  C_23
REMARK                            x       y       z     vdW  Elec       q    Type
REMARK                         _______ _______ _______ _____ _____    ______ ____
ROOT
ATOM      2  O   UNL     1      11.511  13.710  23.811  0.00  0.00    -0.371 OA
ATOM      7  C   UNL     1      10.988  11.452  24.288  0.00  0.00    +0.111 C 
ATOM      8  C   UNL     1      12.491  11.621  24.423  0.00  0.00    +0.164 C 
ATOM      9  C   UNL     1      12.775  13.025  23.891  0.00  0.00    +0.165 C 
ATOM     10  C   UNL     1      10.501  12.886  24.405  0.00  0.00    +0.181 C 
ENDROOT
BRANCH   8   3
ATOM      3  O   UNL     1      12.812  11.575  25.815  0.00  0.00    -0.388 OA
ATOM     28  H   UNL     1      12.431  12.369  26.227  0.00  0.00    +0.210 HD
ENDBRANCH   8   3
BRANCH   7   5
ATOM      5  N   UNL     1      10.623  10.885  22.992  0.00  0.00    -0.305 NA
ATOM     27  H   UNL     1       9.670  11.165  22.760  0.00  0.00    +0.123 HD
BRANCH   5  12
ATOM     12  C   UNL     1      10.683   9.429  23.020  0.00  0.00    +0.116 C 
BRANCH  12  13
ATOM     13  C   UNL     1      11.211   8.864  21.727  0.00  0.00    -0.034 A 
ATOM     15  C   UNL     1      11.326   7.483  21.566  0.00  0.00    +0.005 A 
ATOM     16  C   UNL     1      11.585   9.722  20.693  0.00  0.00    +0.005 A 
ATOM     18  C   UNL     1      11.816   6.960  20.370  0.00  0.00    +0.003 A 
ATOM     19  C   UNL     1      12.075   9.198  19.497  0.00  0.00    +0.003 A 
ATOM     20  C   UNL     1      12.191   7.817  19.335  0.00  0.00    -0.050 A 
ATOM     23  C   UNL     1      12.716   7.256  18.056  0.00  0.00    +0.044 C 
ENDBRANCH  12  13
ENDBRANCH   5  12
ENDBRANCH   7   5
BRANCH   9  11
ATOM     11  C   UNL     1      13.413  13.036  22.510  0.00  0.00    +0.138 C 
BRANCH  11   6
ATOM      4  O   UNL     1      16.044  11.922  22.224  0.00  0.00    -0.270 OA
ATOM      6  N   UNL     1      13.738  11.708  22.076  0.00  0.00    -0.309 N 
ATOM     14  C   UNL     1      15.047  11.251  21.967  0.00  0.00    +0.244 C 
ATOM     29  H   UNL     1      12.964  11.129  21.768  0.00  0.00    +0.149 HD
BRANCH  14  17
ATOM      1  F   UNL     1      15.685   5.990  20.112  0.00  0.00    -0.205 F 
ATOM     17  C   UNL     1      15.217   9.859  21.476  0.00  0.00    +0.037 A 
ATOM     21  C   UNL     1      14.901   8.783  22.307  0.00  0.00    +0.016 A 
ATOM     22  C   UNL     1      15.690   9.627  20.185  0.00  0.00    +0.016 A 
ATOM     24  C   UNL     1      15.060   7.476  21.847  0.00  0.00    +0.039 A 
ATOM     25  C   UNL     1      15.849   8.319  19.724  0.00  0.00    +0.039 A 
ATOM     26  C   UNL     1      15.534   7.245  20.555  0.00  0.00    +0.123 A 
ENDBRANCH  14  17
ENDBRANCH  11   6
ENDBRANCH   9  11
TORSDOF 7
ENDMDL
MODEL 2
REMARK VINA RESULT:      -5.6     26.714     29.004
REMARK  Name = 75367091
REMARK  8 active torsions:
REMARK  status: ('A' for Active; 'I' for Inactive)
REMARK    1  A    between atoms: O_3  and  C_8
REMARK    2  A    between atoms: N_5  and  C_7
REMARK    3  A    between atoms: N_5  and  C_12
REMARK    4  A    between atoms: N_6  and  C_11
REMARK    5  A    between atoms: C_9  and  C_11
REMARK    6  A    between atoms: C_12  and  C_13
REMARK    7  A    between atoms: C_14  and  C_17
REMARK    8  A    between atoms: C_20  and  C_23
REMARK                            x       y       z     vdW  Elec       q    Type
REMARK                         _______ _______ _______ _____ _____    ______ ____
ROOT
ATOM      2  O   UNL     1      -3.882 -12.292  15.669  0.00  0.00    -0.371 OA
ATOM      7  C   UNL     1      -2.099 -11.185  14.575  0.00  0.00    +0.111 C 
ATOM      8  C   UNL     1      -2.237 -10.587  15.963  0.00  0.00    +0.164 C 
ATOM      9  C   UNL     1      -3.529 -11.186  16.519  0.00  0.00    +0.165 C 
ATOM     10  C   UNL     1      -2.820 -12.513  14.734  0.00  0.00    +0.181 C 
ENDROOT
BRANCH   8   3
ATOM      3  O   UNL     1      -1.134 -11.047  16.748  0.00  0.00    -0.388 OA
ATOM     28  H   UNL     1      -1.490 -11.343  17.603  0.00  0.00    +0.210 HD
ENDBRANCH   8   3
BRANCH   7   5
ATOM      5  N   UNL     1      -2.755 -10.358  13.564  0.00  0.00    -0.305 NA
ATOM     27  H   UNL     1      -3.668 -10.758  13.345  0.00  0.00    +0.123 HD
BRANCH   5  12
ATOM     12  C   UNL     1      -1.968 -10.306  12.338  0.00  0.00    +0.116 C 
BRANCH  12  13
ATOM     13  C   UNL     1      -2.839 -10.317  11.110  0.00  0.00    -0.034 A 
ATOM     15  C   UNL     1      -2.971  -9.163  10.338  0.00  0.00    +0.005 A 
ATOM     16  C   UNL     1      -3.516 -11.481  10.746  0.00  0.00    +0.005 A 
ATOM     18  C   UNL     1      -3.780  -9.172   9.203  0.00  0.00    +0.003 A 
ATOM     19  C   UNL     1      -4.326 -11.490   9.611  0.00  0.00    +0.003 A 
ATOM     20  C   UNL     1      -4.457 -10.336   8.838  0.00  0.00    -0.050 A 
ATOM     23  C   UNL     1      -5.323 -10.345   7.623  0.00  0.00    +0.044 C 
ENDBRANCH  12  13
ENDBRANCH   5  12
ENDBRANCH   7   5
BRANCH   9  11
ATOM     11  C   UNL     1      -4.693 -10.207  16.540  0.00  0.00    +0.138 C 
BRANCH  11   6
ATOM      4  O   UNL     1      -7.097 -11.311  15.422  0.00  0.00    -0.270 OA
ATOM      6  N   UNL     1      -5.207  -9.980  15.220  0.00  0.00    -0.309 N 
ATOM     14  C   UNL     1      -6.386 -10.559  14.760  0.00  0.00    +0.244 C 
ATOM     29  H   UNL     1      -4.625  -9.434  14.594  0.00  0.00    +0.149 HD
BRANCH  14  17
ATOM      1  F   UNL     1      -7.826  -9.376   9.464  0.00  0.00    -0.205 F 
ATOM     17  C   UNL     1      -6.768 -10.245  13.359  0.00  0.00    +0.037 A 
ATOM     21  C   UNL     1      -6.172  -9.171  12.698  0.00  0.00    +0.016 A 
ATOM     22  C   UNL     1      -7.721 -11.026  12.705  0.00  0.00    +0.016 A 
ATOM     24  C   UNL     1      -6.530  -8.877  11.382  0.00  0.00    +0.039 A 
ATOM     25  C   UNL     1      -8.079 -10.731  11.389  0.00  0.00    +0.039 A 
ATOM     26  C   UNL     1      -7.484  -9.658  10.728  0.00  0.00    +0.123 A 
ENDBRANCH  14  17
ENDBRANCH  11   6
ENDBRANCH   9  11
TORSDOF 7
ENDMDL
MODEL 3
REMARK VINA RESULT:      -5.5      3.125      5.385
REMARK  Name = 75367091
REMARK  8 active torsions:
REMARK  status: ('A' for Active; 'I' for Inactive)
REMARK    1  A    between atoms: O_3  and  C_8
REMARK    2  A    between atoms: N_5  and  C_7
REMARK    3  A    between atoms: N_5  and  C_12
REMARK    4  A    between atoms: N_6  and  C_11
REMARK    5  A    between atoms: C_9  and  C_11
REMARK    6  A    between atoms: C_12  and  C_13
REMARK    7  A    between atoms: C_14  and  C_17
REMARK    8  A    between atoms: C_20  and  C_23
REMARK                            x       y       z     vdW  Elec       q    Type
REMARK                         _______ _______ _______ _____ _____    ______ ____
ROOT
ATOM      2  O   UNL     1      12.964   7.603  21.790  0.00  0.00    -0.371 OA
ATOM      7  C   UNL     1      11.288   9.236  21.439  0.00  0.00    +0.111 C 
ATOM      8  C   UNL     1      10.893   7.990  20.668  0.00  0.00    +0.164 C 
ATOM      9  C   UNL     1      12.112   7.072  20.759  0.00  0.00    +0.165 C 
ATOM     10  C   UNL     1      12.283   8.679  22.444  0.00  0.00    +0.181 C 
ENDROOT
BRANCH   8   3
ATOM      3  O   UNL     1       9.798   7.380  21.356  0.00  0.00    -0.388 OA
ATOM     28  H   UNL     1      10.157   6.641  21.877  0.00  0.00    +0.210 HD
ENDBRANCH   8   3
BRANCH   7   5
ATOM      5  N   UNL     1      11.925  10.226  20.574  0.00  0.00    -0.305 NA
ATOM     27  H   UNL     1      12.593   9.756  19.963  0.00  0.00    +0.123 HD
BRANCH   5  12
ATOM     12  C   UNL     1      12.639  11.226  21.358  0.00  0.00    +0.116 C 
BRANCH  12  13
ATOM     13  C   UNL     1      11.715  12.292  21.884  0.00  0.00    -0.034 A 
ATOM     15  C   UNL     1      11.274  12.242  23.206  0.00  0.00    +0.005 A 
ATOM     16  C   UNL     1      11.300  13.329  21.048  0.00  0.00    +0.005 A 
ATOM     18  C   UNL     1      10.416  13.228  23.693  0.00  0.00    +0.003 A 
ATOM     19  C   UNL     1      10.442  14.316  21.535  0.00  0.00    +0.003 A 
ATOM     20  C   UNL     1      10.000  14.266  22.857  0.00  0.00    -0.050 A 
ATOM     23  C   UNL     1       9.083  15.320  23.378  0.00  0.00    +0.044 C 
ENDBRANCH  12  13
ENDBRANCH   5  12
ENDBRANCH   7   5
BRANCH   9  11
ATOM     11  C   UNL     1      12.913   6.995  19.468  0.00  0.00    +0.138 C 
BRANCH  11   6
ATOM      4  O   UNL     1      15.195   8.736  19.391  0.00  0.00    -0.270 OA
ATOM      6  N   UNL     1      14.277   6.631  19.722  0.00  0.00    -0.309 N 
ATOM     14  C   UNL     1      15.324   7.545  19.663  0.00  0.00    +0.244 C 
ATOM     29  H   UNL     1      14.464   5.645  19.871  0.00  0.00    +0.149 HD
BRANCH  14  17
ATOM      1  F   UNL     1      20.460   5.504  20.651  0.00  0.00    -0.205 F 
ATOM     17  C   UNL     1      16.683   7.004  19.925  0.00  0.00    +0.037 A 
ATOM     21  C   UNL     1      17.162   5.930  19.176  0.00  0.00    +0.016 A 
ATOM     22  C   UNL     1      17.480   7.573  20.919  0.00  0.00    +0.016 A 
ATOM     24  C   UNL     1      18.438   5.422  19.422  0.00  0.00    +0.039 A 
ATOM     25  C   UNL     1      18.756   7.065  21.164  0.00  0.00    +0.039 A 
ATOM     26  C   UNL     1      19.235   5.990  20.416  0.00  0.00    +0.123 A 
ENDBRANCH  14  17
ENDBRANCH  11   6
ENDBRANCH   9  11
TORSDOF 7
ENDMDL
MODEL 4
REMARK VINA RESULT:      -5.4     26.811     29.300
REMARK  Name = 75367091
REMARK  8 active torsions:
REMARK  status: ('A' for Active; 'I' for Inactive)
REMARK    1  A    between atoms: O_3  and  C_8
REMARK    2  A    between atoms: N_5  and  C_7
REMARK    3  A    between atoms: N_5  and  C_12
REMARK    4  A    between atoms: N_6  and  C_11
REMARK    5  A    between atoms: C_9  and  C_11
REMARK    6  A    between atoms: C_12  and  C_13
REMARK    7  A    between atoms: C_14  and  C_17
REMARK    8  A    between atoms: C_20  and  C_23
REMARK                            x       y       z     vdW  Elec       q    Type
REMARK                         _______ _______ _______ _____ _____    ______ ____
ROOT
ATOM      2  O   UNL     1      -1.916 -10.076  13.928  0.00  0.00    -0.371 OA
ATOM      7  C   UNL     1      -2.152 -12.188  14.970  0.00  0.00    +0.111 C 
ATOM      8  C   UNL     1      -2.222 -12.399  13.468  0.00  0.00    +0.164 C 
ATOM      9  C   UNL     1      -2.286 -10.990  12.879  0.00  0.00    +0.165 C 
ATOM     10  C   UNL     1      -1.476 -10.830  15.063  0.00  0.00    +0.181 C 
ENDROOT
BRANCH   8   3
ATOM      3  O   UNL     1      -1.003 -13.021  13.057  0.00  0.00    -0.388 OA
ATOM     28  H   UNL     1      -0.918 -12.889  12.097  0.00  0.00    +0.210 HD
ENDBRANCH   8   3
BRANCH   7   5
ATOM      5  N   UNL     1      -3.483 -12.147  15.571  0.00  0.00    -0.305 NA
ATOM     27  H   UNL     1      -4.099 -11.583  14.984  0.00  0.00    +0.123 HD
BRANCH   5  12
ATOM     12  C   UNL     1      -3.440 -11.551  16.900  0.00  0.00    +0.116 C 
BRANCH  12  13
ATOM     13  C   UNL     1      -4.674 -11.873  17.701  0.00  0.00    -0.034 A 
ATOM     15  C   UNL     1      -5.530 -12.891  17.282  0.00  0.00    +0.005 A 
ATOM     16  C   UNL     1      -4.960 -11.153  18.861  0.00  0.00    +0.005 A 
ATOM     18  C   UNL     1      -6.674 -13.188  18.022  0.00  0.00    +0.003 A 
ATOM     19  C   UNL     1      -6.104 -11.451  19.601  0.00  0.00    +0.003 A 
ATOM     20  C   UNL     1      -6.961 -12.468  19.182  0.00  0.00    -0.050 A 
ATOM     23  C   UNL     1      -8.186 -12.787  19.972  0.00  0.00    +0.044 C 
ENDBRANCH  12  13
ENDBRANCH   5  12
ENDBRANCH   7   5
BRANCH   9  11
ATOM     11  C   UNL     1      -3.668 -10.603  12.374  0.00  0.00    +0.138 C 
BRANCH  11   6
ATOM      4  O   UNL     1      -6.396 -11.494  12.471  0.00  0.00    -0.270 OA
ATOM      6  N   UNL     1      -4.589 -10.425  13.459  0.00  0.00    -0.309 N 
ATOM     14  C   UNL     1      -5.899 -10.892  13.420  0.00  0.00    +0.244 C 
ATOM     29  H   UNL     1      -4.268  -9.863  14.240  0.00  0.00    +0.149 HD
BRANCH  14  17
ATOM      1  F   UNL     1      -9.054  -9.803  17.935  0.00  0.00    -0.205 F 
ATOM     17  C   UNL     1      -6.735 -10.603  14.614  0.00  0.00    +0.037 A 
ATOM     21  C   UNL     1      -7.924 -11.304  14.819  0.00  0.00    +0.016 A 
ATOM     22  C   UNL     1      -6.329  -9.634  15.531  0.00  0.00    +0.016 A 
ATOM     24  C   UNL     1      -8.708 -11.033  15.941  0.00  0.00    +0.039 A 
ATOM     25  C   UNL     1      -7.113  -9.363  16.653  0.00  0.00    +0.039 A 
ATOM     26  C   UNL     1      -8.302 -10.062  16.857  0.00  0.00    +0.123 A 
ENDBRANCH  14  17
ENDBRANCH  11   6
ENDBRANCH   9  11
TORSDOF 7
ENDMDL
MODEL 5
REMARK VINA RESULT:      -5.4      3.743      5.285
REMARK  Name = 75367091
REMARK  8 active torsions:
REMARK  status: ('A' for Active; 'I' for Inactive)
REMARK    1  A    between atoms: O_3  and  C_8
REMARK    2  A    between atoms: N_5  and  C_7
REMARK    3  A    between atoms: N_5  and  C_12
REMARK    4  A    between atoms: N_6  and  C_11
REMARK    5  A    between atoms: C_9  and  C_11
REMARK    6  A    between atoms: C_12  and  C_13
REMARK    7  A    between atoms: C_14  and  C_17
REMARK    8  A    between atoms: C_20  and  C_23
REMARK                            x       y       z     vdW  Elec       q    Type
REMARK                         _______ _______ _______ _____ _____    ______ ____
ROOT
ATOM      2  O   UNL     1      11.896   8.994  21.468  0.00  0.00    -0.371 OA
ATOM      7  C   UNL     1      12.315   7.600  19.602  0.00  0.00    +0.111 C 
ATOM      8  C   UNL     1      12.985   6.974  20.811  0.00  0.00    +0.164 C 
ATOM      9  C   UNL     1      12.864   8.026  21.913  0.00  0.00    +0.165 C 
ATOM     10  C   UNL     1      11.301   8.527  20.252  0.00  0.00    +0.181 C 
ENDROOT
BRANCH   8   3
ATOM      3  O   UNL     1      12.227   5.820  21.182  0.00  0.00    -0.388 OA
ATOM     28  H   UNL     1      12.817   5.050  21.114  0.00  0.00    +0.210 HD
ENDBRANCH   8   3
BRANCH   7   5
ATOM      5  N   UNL     1      13.264   8.358  18.791  0.00  0.00    -0.305 NA
ATOM     27  H   UNL     1      13.719   9.060  19.376  0.00  0.00    +0.123 HD
BRANCH   5  12
ATOM     12  C   UNL     1      12.590   9.040  17.693  0.00  0.00    +0.116 C 
BRANCH  12  13
ATOM     13  C   UNL     1      13.480  10.062  17.035  0.00  0.00    -0.034 A 
ATOM     15  C   UNL     1      14.278  10.897  17.816  0.00  0.00    +0.005 A 
ATOM     16  C   UNL     1      13.504  10.173  15.644  0.00  0.00    +0.005 A 
ATOM     18  C   UNL     1      15.100  11.844  17.207  0.00  0.00    +0.003 A 
ATOM     19  C   UNL     1      14.326  11.120  15.036  0.00  0.00    +0.003 A 
ATOM     20  C   UNL     1      15.125  11.956  15.817  0.00  0.00    -0.050 A 
ATOM     23  C   UNL     1      16.004  12.971  15.166  0.00  0.00    +0.044 C 
ENDBRANCH  12  13
ENDBRANCH   5  12
ENDBRANCH   7   5
BRANCH   9  11
ATOM     11  C   UNL     1      14.168   8.752  22.207  0.00  0.00    +0.138 C 
BRANCH  11   6
ATOM      4  O   UNL     1      16.119   9.234  20.156  0.00  0.00    -0.270 OA
ATOM      6  N   UNL     1      15.303   7.933  21.895  0.00  0.00    -0.309 N 
ATOM     14  C   UNL     1      16.202   8.245  20.879  0.00  0.00    +0.244 C 
ATOM     29  H   UNL     1      15.383   7.057  22.400  0.00  0.00    +0.149 HD
BRANCH  14  17
ATOM      1  F   UNL     1      20.393   4.599  20.065  0.00  0.00    -0.205 F 
ATOM     17  C   UNL     1      17.310   7.279  20.665  0.00  0.00    +0.037 A 
ATOM     21  C   UNL     1      17.218   6.326  19.650  0.00  0.00    +0.016 A 
ATOM     22  C   UNL     1      18.444   7.327  21.476  0.00  0.00    +0.016 A 
ATOM     24  C   UNL     1      18.260   5.420  19.448  0.00  0.00    +0.039 A 
ATOM     25  C   UNL     1      19.486   6.421  21.273  0.00  0.00    +0.039 A 
ATOM     26  C   UNL     1      19.393   5.468  20.260  0.00  0.00    +0.123 A 
ENDBRANCH  14  17
ENDBRANCH  11   6
ENDBRANCH   9  11
TORSDOF 7
ENDMDL
MODEL 6
REMARK VINA RESULT:      -5.4     27.404     29.763
REMARK  Name = 75367091
REMARK  8 active torsions:
REMARK  status: ('A' for Active; 'I' for Inactive)
REMARK    1  A    between atoms: O_3  and  C_8
REMARK    2  A    between atoms: N_5  and  C_7
REMARK    3  A    between atoms: N_5  and  C_12
REMARK    4  A    between atoms: N_6  and  C_11
REMARK    5  A    between atoms: C_9  and  C_11
REMARK    6  A    between atoms: C_12  and  C_13
REMARK    7  A    between atoms: C_14  and  C_17
REMARK    8  A    between atoms: C_20  and  C_23
REMARK                            x       y       z     vdW  Elec       q    Type
REMARK                         _______ _______ _______ _____ _____    ______ ____
ROOT
ATOM      2  O   UNL     1     -10.757  -7.372  17.095  0.00  0.00    -0.371 OA
ATOM      7  C   UNL     1      -9.757  -8.569  15.314  0.00  0.00    +0.111 C 
ATOM      8  C   UNL     1     -10.933  -9.384  15.821  0.00  0.00    +0.164 C 
ATOM      9  C   UNL     1     -11.385  -8.667  17.094  0.00  0.00    +0.165 C 
ATOM     10  C   UNL     1     -10.087  -7.183  15.843  0.00  0.00    +0.181 C 
ENDROOT
BRANCH   8   3
ATOM      3  O   UNL     1     -11.974  -9.302  14.845  0.00  0.00    -0.388 OA
ATOM     28  H   UNL     1     -11.666  -8.704  14.142  0.00  0.00    +0.210 HD
ENDBRANCH   8   3
BRANCH   7   5
ATOM      5  N   UNL     1      -8.492  -9.046  15.867  0.00  0.00    -0.305 NA
ATOM     27  H   UNL     1      -7.857  -8.256  15.982  0.00  0.00    +0.123 HD
BRANCH   5  12
ATOM     12  C   UNL     1      -7.864 -10.017  14.979  0.00  0.00    +0.116 C 
BRANCH  12  13
ATOM     13  C   UNL     1      -6.419 -10.250  15.333  0.00  0.00    -0.034 A 
ATOM     15  C   UNL     1      -5.838  -9.546  16.387  0.00  0.00    +0.005 A 
ATOM     16  C   UNL     1      -5.662 -11.168  14.605  0.00  0.00    +0.005 A 
ATOM     18  C   UNL     1      -4.499  -9.760  16.714  0.00  0.00    +0.003 A 
ATOM     19  C   UNL     1      -4.323 -11.382  14.931  0.00  0.00    +0.003 A 
ATOM     20  C   UNL     1      -3.741 -10.678  15.986  0.00  0.00    -0.050 A 
ATOM     23  C   UNL     1      -2.309 -10.906  16.336  0.00  0.00    +0.044 C 
ENDBRANCH  12  13
ENDBRANCH   5  12
ENDBRANCH   7   5
BRANCH   9  11
ATOM     11  C   UNL     1     -10.990  -9.391  18.372  0.00  0.00    +0.138 C 
BRANCH  11   6
ATOM      4  O   UNL     1      -9.439 -10.671  20.421  0.00  0.00    -0.270 OA
ATOM      6  N   UNL     1      -9.799 -10.169  18.185  0.00  0.00    -0.309 N 
ATOM     14  C   UNL     1      -9.109 -10.756  19.241  0.00  0.00    +0.244 C 
ATOM     29  H   UNL     1      -9.426 -10.208  17.243  0.00  0.00    +0.149 HD
BRANCH  14  17
ATOM      1  F   UNL     1      -4.458 -13.596  17.893  0.00  0.00    -0.205 F 
ATOM     17  C   UNL     1      -7.878 -11.506  18.883  0.00  0.00    +0.037 A 
ATOM     21  C   UNL     1      -6.687 -11.260  19.568  0.00  0.00    +0.016 A 
ATOM     22  C   UNL     1      -7.913 -12.460  17.865  0.00  0.00    +0.016 A 
ATOM     24  C   UNL     1      -5.531 -11.965  19.232  0.00  0.00    +0.039 A 
ATOM     25  C   UNL     1      -6.757 -13.165  17.530  0.00  0.00    +0.039 A 
ATOM     26  C   UNL     1      -5.567 -12.918  18.213  0.00  0.00    +0.123 A 
ENDBRANCH  14  17
ENDBRANCH  11   6
ENDBRANCH   9  11
TORSDOF 7
ENDMDL
MODEL 7
REMARK VINA RESULT:      -5.3     28.235     30.720
REMARK  Name = 75367091
REMARK  8 active torsions:
REMARK  status: ('A' for Active; 'I' for Inactive)
REMARK    1  A    between atoms: O_3  and  C_8
REMARK    2  A    between atoms: N_5  and  C_7
REMARK    3  A    between atoms: N_5  and  C_12
REMARK    4  A    between atoms: N_6  and  C_11
REMARK    5  A    between atoms: C_9  and  C_11
REMARK    6  A    between atoms: C_12  and  C_13
REMARK    7  A    between atoms: C_14  and  C_17
REMARK    8  A    between atoms: C_20  and  C_23
REMARK                            x       y       z     vdW  Elec       q    Type
REMARK                         _______ _______ _______ _____ _____    ______ ____
ROOT
ATOM      2  O   UNL     1      -6.325 -11.872  17.202  0.00  0.00    -0.371 OA
ATOM      7  C   UNL     1      -6.002  -9.972  15.828  0.00  0.00    +0.111 C 
ATOM      8  C   UNL     1      -5.071  -9.849  17.021  0.00  0.00    +0.164 C 
ATOM      9  C   UNL     1      -5.489 -10.979  17.960  0.00  0.00    +0.165 C 
ATOM     10  C   UNL     1      -6.318 -11.459  15.831  0.00  0.00    +0.181 C 
ENDROOT
BRANCH   8   3
ATOM      3  O   UNL     1      -3.740 -10.092  16.561  0.00  0.00    -0.388 OA
ATOM     28  H   UNL     1      -3.336  -9.228  16.368  0.00  0.00    +0.210 HD
ENDBRANCH   8   3
BRANCH   7   5
ATOM      5  N   UNL     1      -7.219  -9.185  16.011  0.00  0.00    -0.305 NA
ATOM     27  H   UNL     1      -7.435  -9.127  17.007  0.00  0.00    +0.123 HD
BRANCH   5  12
ATOM     12  C   UNL     1      -8.351  -9.801  15.329  0.00  0.00    +0.116 C 
BRANCH  12  13
ATOM     13  C   UNL     1      -9.615  -9.002  15.503  0.00  0.00    -0.034 A 
ATOM     15  C   UNL     1      -9.704  -8.051  16.520  0.00  0.00    +0.005 A 
ATOM     16  C   UNL     1     -10.697  -9.213  14.648  0.00  0.00    +0.005 A 
ATOM     18  C   UNL     1     -10.876  -7.313  16.683  0.00  0.00    +0.003 A 
ATOM     19  C   UNL     1     -11.868  -8.474  14.811  0.00  0.00    +0.003 A 
ATOM     20  C   UNL     1     -11.958  -7.524  15.828  0.00  0.00    -0.050 A 
ATOM     23  C   UNL     1     -13.211  -6.733  16.003  0.00  0.00    +0.044 C 
ENDBRANCH  12  13
ENDBRANCH   5  12
ENDBRANCH   7   5
BRANCH   9  11
ATOM     11  C   UNL     1      -6.273 -10.504  19.174  0.00  0.00    +0.138 C 
BRANCH  11   6
ATOM      4  O   UNL     1      -8.447 -12.124  20.120  0.00  0.00    -0.270 OA
ATOM      6  N   UNL     1      -7.664 -10.338  18.863  0.00  0.00    -0.309 N 
ATOM     14  C   UNL     1      -8.654 -11.174  19.369  0.00  0.00    +0.244 C 
ATOM     29  H   UNL     1      -7.895  -9.622  18.182  0.00  0.00    +0.149 HD
BRANCH  14  17
ATOM      1  F   UNL     1     -13.908 -10.087  17.715  0.00  0.00    -0.205 F 
ATOM     17  C   UNL     1     -10.044 -10.885  18.931  0.00  0.00    +0.037 A 
ATOM     21  C   UNL     1     -10.581 -11.554  17.831  0.00  0.00    +0.016 A 
ATOM     22  C   UNL     1     -10.813  -9.948  19.621  0.00  0.00    +0.016 A 
ATOM     24  C   UNL     1     -11.886 -11.284  17.419  0.00  0.00    +0.039 A 
ATOM     25  C   UNL     1     -12.118  -9.677  19.209  0.00  0.00    +0.039 A 
ATOM     26  C   UNL     1     -12.654 -10.345  18.109  0.00  0.00    +0.123 A 
ENDBRANCH  14  17
ENDBRANCH  11   6
ENDBRANCH   9  11
TORSDOF 7
ENDMDL
MODEL 8
REMARK VINA RESULT:      -5.3     26.916     29.409
REMARK  Name = 75367091
REMARK  8 active torsions:
REMARK  status: ('A' for Active; 'I' for Inactive)
REMARK    1  A    between atoms: O_3  and  C_8
REMARK    2  A    between atoms: N_5  and  C_7
REMARK    3  A    between atoms: N_5  and  C_12
REMARK    4  A    between atoms: N_6  and  C_11
REMARK    5  A    between atoms: C_9  and  C_11
REMARK    6  A    between atoms: C_12  and  C_13
REMARK    7  A    between atoms: C_14  and  C_17
REMARK    8  A    between atoms: C_20  and  C_23
REMARK                            x       y       z     vdW  Elec       q    Type
REMARK                         _______ _______ _______ _____ _____    ______ ____
ROOT
ATOM      2  O   UNL     1      -7.937 -11.747  17.781  0.00  0.00    -0.371 OA
ATOM      7  C   UNL     1      -5.820 -11.959  18.818  0.00  0.00    +0.111 C 
ATOM      8  C   UNL     1      -6.229 -10.498  18.887  0.00  0.00    +0.164 C 
ATOM      9  C   UNL     1      -7.481 -10.402  18.016  0.00  0.00    +0.165 C 
ATOM     10  C   UNL     1      -7.154 -12.645  18.575  0.00  0.00    +0.181 C 
ENDROOT
BRANCH   8   3
ATOM      3  O   UNL     1      -6.581 -10.208  20.242  0.00  0.00    -0.388 OA
ATOM     28  H   UNL     1      -6.745 -11.057  20.688  0.00  0.00    +0.210 HD
ENDBRANCH   8   3
BRANCH   7   5
ATOM      5  N   UNL     1      -4.900 -12.209  17.711  0.00  0.00    -0.305 NA
ATOM     27  H   UNL     1      -4.486 -13.134  17.822  0.00  0.00    +0.123 HD
BRANCH   5  12
ATOM     12  C   UNL     1      -3.827 -11.222  17.688  0.00  0.00    +0.116 C 
BRANCH  12  13
ATOM     13  C   UNL     1      -3.317 -10.980  16.291  0.00  0.00    -0.034 A 
ATOM     15  C   UNL     1      -1.991 -10.598  16.090  0.00  0.00    +0.005 A 
ATOM     16  C   UNL     1      -4.172 -11.137  15.200  0.00  0.00    +0.005 A 
ATOM     18  C   UNL     1      -1.519 -10.372  14.798  0.00  0.00    +0.003 A 
ATOM     19  C   UNL     1      -3.700 -10.911  13.907  0.00  0.00    +0.003 A 
ATOM     20  C   UNL     1      -2.373 -10.528  13.706  0.00  0.00    -0.050 A 
ATOM     23  C   UNL     1      -1.868 -10.285  12.324  0.00  0.00    +0.044 C 
ENDBRANCH  12  13
ENDBRANCH   5  12
ENDBRANCH   7   5
BRANCH   9  11
ATOM     11  C   UNL     1      -7.235  -9.738  16.669  0.00  0.00    +0.138 C 
BRANCH  11   6
ATOM      4  O   UNL     1      -9.543 -10.283  15.050  0.00  0.00    -0.270 OA
ATOM      6  N   UNL     1      -8.287  -8.820  16.341  0.00  0.00    -0.309 N 
ATOM     14  C   UNL     1      -9.374  -9.172  15.546  0.00  0.00    +0.244 C 
ATOM     29  H   UNL     1      -8.167  -7.861  16.650  0.00  0.00    +0.149 HD
BRANCH  14  17
ATOM      1  F   UNL     1     -13.121  -5.116  14.529  0.00  0.00    -0.205 F 
ATOM     17  C   UNL     1     -10.364  -8.098  15.276  0.00  0.00    +0.037 A 
ATOM     21  C   UNL     1     -11.298  -8.253  14.251  0.00  0.00    +0.016 A 
ATOM     22  C   UNL     1     -10.363  -6.937  16.049  0.00  0.00    +0.016 A 
ATOM     24  C   UNL     1     -12.229  -7.245  13.997  0.00  0.00    +0.039 A 
ATOM     25  C   UNL     1     -11.294  -5.929  15.796  0.00  0.00    +0.039 A 
ATOM     26  C   UNL     1     -12.226  -6.083  14.770  0.00  0.00    +0.123 A 
ENDBRANCH  14  17
ENDBRANCH  11   6
ENDBRANCH   9  11
TORSDOF 7
ENDMDL
MODEL 9
REMARK VINA RESULT:      -5.2     27.066     28.992
REMARK  Name = 75367091
REMARK  8 active torsions:
REMARK  status: ('A' for Active; 'I' for Inactive)
REMARK    1  A    between atoms: O_3  and  C_8
REMARK    2  A    between atoms: N_5  and  C_7
REMARK    3  A    between atoms: N_5  and  C_12
REMARK    4  A    between atoms: N_6  and  C_11
REMARK    5  A    between atoms: C_9  and  C_11
REMARK    6  A    between atoms: C_12  and  C_13
REMARK    7  A    between atoms: C_14  and  C_17
REMARK    8  A    between atoms: C_20  and  C_23
REMARK                            x       y       z     vdW  Elec       q    Type
REMARK                         _______ _______ _______ _____ _____    ______ ____
ROOT
ATOM      2  O   UNL     1      -3.731 -11.584  10.738  0.00  0.00    -0.371 OA
ATOM      7  C   UNL     1      -5.331  -9.849  10.910  0.00  0.00    +0.111 C 
ATOM      8  C   UNL     1      -3.989  -9.215  10.590  0.00  0.00    +0.164 C 
ATOM      9  C   UNL     1      -2.980 -10.356  10.713  0.00  0.00    +0.165 C 
ATOM     10  C   UNL     1      -5.108 -11.289  10.478  0.00  0.00    +0.181 C 
ENDROOT
BRANCH   8   3
ATOM      3  O   UNL     1      -4.030  -8.773   9.231  0.00  0.00    -0.388 OA
ATOM     28  H   UNL     1      -3.189  -9.032   8.816  0.00  0.00    +0.210 HD
ENDBRANCH   8   3
BRANCH   7   5
ATOM      5  N   UNL     1      -5.634  -9.778  12.338  0.00  0.00    -0.305 NA
ATOM     27  H   UNL     1      -4.769  -9.882  12.869  0.00  0.00    +0.123 HD
BRANCH   5  12
ATOM     12  C   UNL     1      -6.549 -10.841  12.734  0.00  0.00    +0.116 C 
BRANCH  12  13
ATOM     13  C   UNL     1      -6.917 -10.752  14.191  0.00  0.00    -0.034 A 
ATOM     15  C   UNL     1      -7.759 -11.708  14.757  0.00  0.00    +0.005 A 
ATOM     16  C   UNL     1      -6.417  -9.711  14.974  0.00  0.00    +0.005 A 
ATOM     18  C   UNL     1      -8.102 -11.625  16.106  0.00  0.00    +0.003 A 
ATOM     19  C   UNL     1      -6.759  -9.627  16.323  0.00  0.00    +0.003 A 
ATOM     20  C   UNL     1      -7.602 -10.584  16.890  0.00  0.00    -0.050 A 
ATOM     23  C   UNL     1      -7.970 -10.494  18.333  0.00  0.00    +0.044 C 
ENDBRANCH  12  13
ENDBRANCH   5  12
ENDBRANCH   7   5
BRANCH   9  11
ATOM     11  C   UNL     1      -2.134 -10.287  11.975  0.00  0.00    +0.138 C 
BRANCH  11   6
ATOM      4  O   UNL     1      -1.427 -10.008  14.744  0.00  0.00    -0.270 OA
ATOM      6  N   UNL     1      -2.824 -10.856  13.097  0.00  0.00    -0.309 N 
ATOM     14  C   UNL     1      -2.408 -10.667  14.412  0.00  0.00    +0.244 C 
ATOM     29  H   UNL     1      -3.595 -11.480  12.887  0.00  0.00    +0.149 HD
BRANCH  14  17
ATOM      1  F   UNL     1      -5.454 -13.234  18.369  0.00  0.00    -0.205 F 
ATOM     17  C   UNL     1      -3.215 -11.346  15.458  0.00  0.00    +0.037 A 
ATOM     21  C   UNL     1      -3.917 -12.511  15.151  0.00  0.00    +0.016 A 
ATOM     22  C   UNL     1      -3.269 -10.819  16.749  0.00  0.00    +0.016 A 
ATOM     24  C   UNL     1      -4.675 -13.149  16.134  0.00  0.00    +0.039 A 
ATOM     25  C   UNL     1      -4.026 -11.457  17.732  0.00  0.00    +0.039 A 
ATOM     26  C   UNL     1      -4.728 -12.621  17.425  0.00  0.00    +0.123 A 
ENDBRANCH  14  17
ENDBRANCH  11   6
ENDBRANCH   9  11
TORSDOF 7
ENDMDL
MODEL 10
REMARK VINA RESULT:      -5.2     28.323     30.605
REMARK  Name = 75367091
REMARK  8 active torsions:
REMARK  status: ('A' for Active; 'I' for Inactive)
REMARK    1  A    between atoms: O_3  and  C_8
REMARK    2  A    between atoms: N_5  and  C_7
REMARK    3  A    between atoms: N_5  and  C_12
REMARK    4  A    between atoms: N_6  and  C_11
REMARK    5  A    between atoms: C_9  and  C_11
REMARK    6  A    between atoms: C_12  and  C_13
REMARK    7  A    between atoms: C_14  and  C_17
REMARK    8  A    between atoms: C_20  and  C_23
REMARK                            x       y       z     vdW  Elec       q    Type
REMARK                         _______ _______ _______ _____ _____    ______ ____
ROOT
ATOM      2  O   UNL     1      -5.300 -10.290  18.499  0.00  0.00    -0.371 OA
ATOM      7  C   UNL     1      -6.227 -12.396  19.053  0.00  0.00    +0.111 C 
ATOM      8  C   UNL     1      -5.154 -12.622  18.004  0.00  0.00    +0.164 C 
ATOM      9  C   UNL     1      -4.762 -11.219  17.539  0.00  0.00    +0.165 C 
ATOM     10  C   UNL     1      -5.850 -11.028  19.596  0.00  0.00    +0.181 C 
ENDROOT
BRANCH   8   3
ATOM      3  O   UNL     1      -4.034 -13.230  18.649  0.00  0.00    -0.388 OA
ATOM     28  H   UNL     1      -3.696 -12.595  19.304  0.00  0.00    +0.210 HD
ENDBRANCH   8   3
BRANCH   7   5
ATOM      5  N   UNL     1      -7.563 -12.368  18.462  0.00  0.00    -0.305 NA
ATOM     27  H   UNL     1      -7.704 -11.473  17.994  0.00  0.00    +0.123 HD
BRANCH   5  12
ATOM     12  C   UNL     1      -8.592 -12.522  19.483  0.00  0.00    +0.116 C 
BRANCH  12  13
ATOM     13  C   UNL     1      -9.840 -11.751  19.142  0.00  0.00    -0.034 A 
ATOM     15  C   UNL     1     -10.285 -10.736  19.989  0.00  0.00    +0.005 A 
ATOM     16  C   UNL     1     -10.552 -12.054  17.981  0.00  0.00    +0.005 A 
ATOM     18  C   UNL     1     -11.442 -10.024  19.675  0.00  0.00    +0.003 A 
ATOM     19  C   UNL     1     -11.709 -11.341  17.667  0.00  0.00    +0.003 A 
ATOM     20  C   UNL     1     -12.154 -10.326  18.514  0.00  0.00    -0.050 A 
ATOM     23  C   UNL     1     -13.392  -9.563  18.179  0.00  0.00    +0.044 C 
ENDBRANCH  12  13
ENDBRANCH   5  12
ENDBRANCH   7   5
BRANCH   9  11
ATOM     11  C   UNL     1      -5.307 -10.858  16.166  0.00  0.00    +0.138 C 
BRANCH  11   6
ATOM      4  O   UNL     1      -7.998 -11.581  15.468  0.00  0.00    -0.270 OA
ATOM      6  N   UNL     1      -6.472 -10.027  16.270  0.00  0.00    -0.309 N 
ATOM     14  C   UNL     1      -7.743 -10.462  15.908  0.00  0.00    +0.244 C 
ATOM     29  H   UNL     1      -6.320  -9.063  16.548  0.00  0.00    +0.149 HD
BRANCH  14  17
ATOM      1  F   UNL     1     -11.895  -6.721  16.446  0.00  0.00    -0.205 F 
ATOM     17  C   UNL     1      -8.841  -9.471  16.049  0.00  0.00    +0.037 A 
ATOM     21  C   UNL     1      -9.828  -9.379  15.068  0.00  0.00    +0.016 A 
ATOM     22  C   UNL     1      -8.887  -8.635  17.165  0.00  0.00    +0.016 A 
ATOM     24  C   UNL     1     -10.860  -8.450  15.201  0.00  0.00    +0.039 A 
ATOM     25  C   UNL     1      -9.918  -7.705  17.298  0.00  0.00    +0.039 A 
ATOM     26  C   UNL     1     -10.904  -7.613  16.317  0.00  0.00    +0.123 A 
ENDBRANCH  14  17
ENDBRANCH  11   6
ENDBRANCH   9  11
TORSDOF 7
ENDMDL
