REMARK  Name = 11865930
REMARK  6 active torsions:
REMARK  status: ('A' for Active; 'I' for Inactive)
REMARK    1  A    between atoms: O_5  and  C_28
REMARK    2  A    between atoms: O_5  and  C_33
REMARK    3  A    between atoms: N_9  and  C_13
REMARK    4  A    between atoms: C_20  and  C_23
REMARK    5  A    between atoms: C_25  and  C_26
REMARK    6  A    between atoms: C_26  and  C_27
REMARK                            x       y       z     vdW  Elec       q    Type
REMARK                         _______ _______ _______ _____ _____    ______ ____
ROOT
ATOM      1  O   UNL     1       0.013   0.832   2.177  0.00  0.00    -0.273 OA
ATOM      2  O   UNL     1       3.163   3.509  -1.783  0.00  0.00    -0.274 OA
ATOM      4  O   UNL     1      -1.905  -0.591   0.334  0.00  0.00    -0.275 OA
ATOM      6  N   UNL     1       1.869   1.411   0.910  0.00  0.00    -0.287 N 
ATOM      7  N   UNL     1      -1.778   1.718   0.260  0.00  0.00    -0.288 N 
ATOM      8  N   UNL     1       1.044   3.621  -1.004  0.00  0.00    -0.309 N 
ATOM     10  C   UNL     1      -0.343   1.798  -0.006  0.00  0.00    +0.182 C 
ATOM     11  C   UNL     1       2.495   1.662  -0.393  0.00  0.00    +0.164 C 
ATOM     12  C   UNL     1      -0.050   3.297  -0.114  0.00  0.00    +0.104 C 
ATOM     13  C   UNL     1       4.027   0.483   1.070  0.00  0.00    +0.092 C 
ATOM     14  C   UNL     1       3.996   1.423  -0.132  0.00  0.00    +0.055 C 
ATOM     15  C   UNL     1       2.850   0.978   1.898  0.00  0.00    +0.131 C 
ATOM     16  C   UNL     1      -1.387   3.883  -0.561  0.00  0.00    +0.043 C 
ATOM     17  C   UNL     1       0.504   1.278   1.141  0.00  0.00    +0.239 C 
ATOM     18  C   UNL     1      -2.389   3.044   0.218  0.00  0.00    +0.110 C 
ATOM     19  C   UNL     1       2.286   3.031  -1.053  0.00  0.00    +0.234 C 
ATOM     25  C   UNL     1      -2.457   0.511   0.299  0.00  0.00    +0.221 C 
ATOM     34  H   UNL     1       0.959   4.497  -1.511  0.00  0.00    +0.149 HD
ENDROOT
BRANCH  13   9
ATOM      3  O   UNL     1       6.099  -1.419   0.491  0.00  0.00    -0.276 OA
ATOM      9  N   UNL     1       3.852  -0.893   0.670  0.00  0.00    -0.311 N 
ATOM     23  C   UNL     1       4.912  -1.751   0.408  0.00  0.00    +0.216 C 
ATOM     35  H   UNL     1       2.905  -1.235   0.537  0.00  0.00    +0.149 HD
BRANCH  23  20
ATOM     20  C   UNL     1       4.465  -3.146  -0.004  0.00  0.00    +0.075 C 
ATOM     21  C   UNL     1       5.559  -4.093  -0.541  0.00  0.00    +0.013 C 
ATOM     22  C   UNL     1       3.784  -3.276  -1.382  0.00  0.00    +0.013 C 
ATOM     24  C   UNL     1       4.498  -4.636  -1.522  0.00  0.00    +0.001 C 
ENDBRANCH  23  20
ENDBRANCH  13   9
BRANCH  25  26
ATOM     26  C   UNL     1      -3.962   0.605   0.305  0.00  0.00    +0.134 C 
BRANCH  26  27
ATOM     27  C   UNL     1      -4.575  -0.758   0.390  0.00  0.00    +0.003 A 
ATOM     28  C   UNL     1      -4.875  -1.474  -0.767  0.00  0.00    +0.124 A 
ATOM     29  C   UNL     1      -4.844  -1.304   1.643  0.00  0.00    +0.008 A 
ATOM     30  C   UNL     1      -5.446  -2.743  -0.670  0.00  0.00    +0.046 A 
ATOM     31  C   UNL     1      -5.415  -2.573   1.739  0.00  0.00    +0.001 A 
ATOM     32  C   UNL     1      -5.716  -3.292   0.583  0.00  0.00    +0.004 A 
BRANCH  28   5
ATOM      5  O   UNL     1      -4.619  -0.952  -1.999  0.00  0.00    -0.495 OA
ATOM     33  C   UNL     1      -5.655  -0.183  -2.606  0.00  0.00    +0.277 C 
ENDBRANCH  28   5
ENDBRANCH  26  27
ENDBRANCH  25  26
TORSDOF 5
