MODEL 1
REMARK VINA RESULT:      -8.4      0.000      0.000
REMARK  Name = 56776123
REMARK  3 active torsions:
REMARK  status: ('A' for Active; 'I' for Inactive)
REMARK    1  A    between atoms: N_8  and  C_29
REMARK    2  A    between atoms: C_11  and  C_16
REMARK    3  A    between atoms: C_16  and  C_18
REMARK                            x       y       z     vdW  Elec       q    Type
REMARK                         _______ _______ _______ _____ _____    ______ ____
ROOT
ATOM      1  O   UNL     1      17.100   9.760  21.305  0.00  0.00    -0.492 OA
ATOM      3  O   UNL     1      12.988   6.939  20.976  0.00  0.00    -0.274 OA
ATOM      5  N   UNL     1      12.846   9.001  19.924  0.00  0.00    -0.300 N 
ATOM      7  N   UNL     1      15.725   7.688  19.433  0.00  0.00    -0.304 NA
ATOM     10  C   UNL     1      13.563  11.370  19.561  0.00  0.00    +0.010 C 
ATOM     11  C   UNL     1      12.283  11.825  20.311  0.00  0.00    +0.004 C 
ATOM     12  C   UNL     1      11.861  10.782  21.356  0.00  0.00    +0.023 C 
ATOM     13  C   UNL     1      13.289   9.986  18.924  0.00  0.00    +0.111 C 
ATOM     14  C   UNL     1      14.821  11.341  20.464  0.00  0.00    +0.008 C 
ATOM     15  C   UNL     1      11.685   9.406  20.721  0.00  0.00    +0.108 C 
ATOM     17  C   UNL     1      16.133  11.238  19.672  0.00  0.00    +0.041 C 
ATOM     19  C   UNL     1      13.358   7.710  20.082  0.00  0.00    +0.229 C 
ATOM     20  C   UNL     1      17.337  10.970  20.578  0.00  0.00    +0.229 C 
ATOM     21  C   UNL     1      14.387   7.215  19.086  0.00  0.00    +0.178 C 
ATOM     26  C   UNL     1      16.241   7.119  20.681  0.00  0.00    +0.120 C 
ATOM     27  C   UNL     1      18.084   8.815  21.195  0.00  0.00    +0.125 A 
ATOM     28  C   UNL     1      17.692   7.494  20.909  0.00  0.00    +0.010 A 
ATOM     29  C   UNL     1      20.026   6.820  21.029  0.00  0.00    +0.030 A 
ATOM     30  C   UNL     1      18.683   6.505  20.819  0.00  0.00    +0.031 A 
ATOM     31  C   UNL     1      19.429   9.124  21.428  0.00  0.00    +0.048 A 
ATOM     34  C   UNL     1      20.398   8.126  21.339  0.00  0.00    +0.027 A 
ATOM     37  H   UNL     1      15.712   8.697  19.519  0.00  0.00    +0.123 HD
ENDROOT
BRANCH  29   8
ATOM      8  N   UNL     1      21.002   5.820  20.939  0.00  0.00    -0.327 N 
ATOM      9  N   UNL     1      22.938   3.766  20.510  0.00  0.00    -0.313 NA
ATOM     32  C   UNL     1      20.569   4.462  20.581  0.00  0.00    +0.120 C 
ATOM     33  C   UNL     1      22.372   6.172  20.554  0.00  0.00    +0.120 C 
ATOM     35  C   UNL     1      21.609   3.434  21.022  0.00  0.00    +0.100 C 
ATOM     36  C   UNL     1      23.350   5.082  20.995  0.00  0.00    +0.100 C 
ATOM     38  H   UNL     1      23.606   3.066  20.829  0.00  0.00    +0.122 HD
ENDBRANCH  29   8
BRANCH  11  16
ATOM     16  C   UNL     1      12.401  13.211  20.944  0.00  0.00    +0.100 C 
BRANCH  16  18
ATOM      2  O   UNL     1      10.181  13.635  21.658  0.00  0.00    -0.276 OA
ATOM      4  O   UNL     1      12.322  12.287  25.908  0.00  0.00    -0.377 OA
ATOM      6  N   UNL     1      11.754  13.259  23.325  0.00  0.00    -0.297 N 
ATOM     18  C   UNL     1      11.341  13.390  22.000  0.00  0.00    +0.216 C 
ATOM     22  C   UNL     1      10.787  13.414  24.412  0.00  0.00    +0.136 C 
ATOM     23  C   UNL     1      13.141  13.095  23.771  0.00  0.00    +0.136 C 
ATOM     24  C   UNL     1      10.970  12.311  25.444  0.00  0.00    +0.179 C 
ATOM     25  C   UNL     1      13.227  12.008  24.835  0.00  0.00    +0.179 C 
ENDBRANCH  16  18
ENDBRANCH  11  16
TORSDOF 3
ENDMDL
MODEL 2
REMARK VINA RESULT:      -7.9     28.037     31.411
REMARK  Name = 56776123
REMARK  3 active torsions:
REMARK  status: ('A' for Active; 'I' for Inactive)
REMARK    1  A    between atoms: N_8  and  C_29
REMARK    2  A    between atoms: C_11  and  C_16
REMARK    3  A    between atoms: C_16  and  C_18
REMARK                            x       y       z     vdW  Elec       q    Type
REMARK                         _______ _______ _______ _____ _____    ______ ____
ROOT
ATOM      1  O   UNL     1      -6.434  -9.345  12.278  0.00  0.00    -0.492 OA
ATOM      3  O   UNL     1      -1.490 -10.038  12.051  0.00  0.00    -0.274 OA
ATOM      5  N   UNL     1      -2.589 -11.340  13.623  0.00  0.00    -0.300 N 
ATOM      7  N   UNL     1      -4.301 -11.162  10.923  0.00  0.00    -0.304 NA
ATOM     10  C   UNL     1      -4.516 -11.858  15.133  0.00  0.00    +0.010 C 
ATOM     11  C   UNL     1      -3.641 -11.401  16.331  0.00  0.00    +0.004 C 
ATOM     12  C   UNL     1      -2.634 -10.327  15.896  0.00  0.00    +0.023 C 
ATOM     13  C   UNL     1      -3.578 -12.360  14.008  0.00  0.00    +0.111 C 
ATOM     14  C   UNL     1      -5.475 -10.754  14.622  0.00  0.00    +0.008 C 
ATOM     15  C   UNL     1      -1.783 -10.811  14.727  0.00  0.00    +0.108 C 
ATOM     17  C   UNL     1      -6.572 -11.287  13.690  0.00  0.00    +0.041 C 
ATOM     19  C   UNL     1      -2.293 -10.941  12.318  0.00  0.00    +0.229 C 
ATOM     20  C   UNL     1      -7.354 -10.161  13.011  0.00  0.00    +0.229 C 
ATOM     21  C   UNL     1      -2.956 -11.676  11.170  0.00  0.00    +0.178 C 
ATOM     26  C   UNL     1      -4.318  -9.784  10.425  0.00  0.00    +0.120 C 
ATOM     27  C   UNL     1      -6.742  -9.168  10.956  0.00  0.00    +0.125 A 
ATOM     28  C   UNL     1      -5.713  -9.355  10.014  0.00  0.00    +0.010 A 
ATOM     29  C   UNL     1      -7.274  -8.751   8.250  0.00  0.00    +0.030 A 
ATOM     30  C   UNL     1      -6.001  -9.151   8.656  0.00  0.00    +0.031 A 
ATOM     31  C   UNL     1      -8.012  -8.744  10.548  0.00  0.00    +0.048 A 
ATOM     34  C   UNL     1      -8.276  -8.542   9.195  0.00  0.00    +0.027 A 
ATOM     37  H   UNL     1      -4.838 -11.202  11.781  0.00  0.00    +0.123 HD
ENDROOT
BRANCH  29   8
ATOM      8  N   UNL     1      -7.543  -8.550   6.890  0.00  0.00    -0.327 N 
ATOM      9  N   UNL     1      -7.929  -7.949   4.127  0.00  0.00    -0.313 NA
ATOM     32  C   UNL     1      -8.192  -7.293   6.493  0.00  0.00    +0.120 C 
ATOM     33  C   UNL     1      -6.681  -9.167   5.878  0.00  0.00    +0.120 C 
ATOM     35  C   UNL     1      -8.865  -7.445   5.131  0.00  0.00    +0.100 C 
ATOM     36  C   UNL     1      -7.407  -9.251   4.535  0.00  0.00    +0.100 C 
ATOM     38  H   UNL     1      -8.412  -8.044   3.234  0.00  0.00    +0.122 HD
ENDBRANCH  29   8
BRANCH  11  16
ATOM     16  C   UNL     1      -4.452 -10.930  17.538  0.00  0.00    +0.100 C 
BRANCH  16  18
ATOM      2  O   UNL     1      -4.585 -13.065  18.558  0.00  0.00    -0.276 OA
ATOM      4  O   UNL     1      -9.258 -11.500  18.978  0.00  0.00    -0.377 OA
ATOM      6  N   UNL     1      -6.596 -11.968  18.180  0.00  0.00    -0.297 N 
ATOM     18  C   UNL     1      -5.208 -12.087  18.137  0.00  0.00    +0.216 C 
ATOM     22  C   UNL     1      -7.407 -13.045  18.750  0.00  0.00    +0.136 C 
ATOM     23  C   UNL     1      -7.375 -10.882  17.577  0.00  0.00    +0.136 C 
ATOM     24  C   UNL     1      -8.473 -12.473  19.673  0.00  0.00    +0.179 C 
ATOM     25  C   UNL     1      -8.448 -10.402  18.546  0.00  0.00    +0.179 C 
ENDBRANCH  16  18
ENDBRANCH  11  16
TORSDOF 3
ENDMDL
MODEL 3
REMARK VINA RESULT:      -7.5     29.552     32.736
REMARK  Name = 56776123
REMARK  3 active torsions:
REMARK  status: ('A' for Active; 'I' for Inactive)
REMARK    1  A    between atoms: N_8  and  C_29
REMARK    2  A    between atoms: C_11  and  C_16
REMARK    3  A    between atoms: C_16  and  C_18
REMARK                            x       y       z     vdW  Elec       q    Type
REMARK                         _______ _______ _______ _____ _____    ______ ____
ROOT
ATOM      1  O   UNL     1      -4.965  -9.368   8.828  0.00  0.00    -0.492 OA
ATOM      3  O   UNL     1      -9.603  -7.672   9.591  0.00  0.00    -0.274 OA
ATOM      5  N   UNL     1      -9.318  -8.897   7.643  0.00  0.00    -0.300 N 
ATOM      7  N   UNL     1      -7.691 -10.234  10.055  0.00  0.00    -0.304 NA
ATOM     10  C   UNL     1      -7.924  -9.867   5.805  0.00  0.00    +0.010 C 
ATOM     11  C   UNL     1      -8.482  -8.766   4.863  0.00  0.00    +0.004 C 
ATOM     12  C   UNL     1      -8.821  -7.492   5.649  0.00  0.00    +0.023 C 
ATOM     13  C   UNL     1      -8.967 -10.129   6.919  0.00  0.00    +0.111 C 
ATOM     14  C   UNL     1      -6.537  -9.516   6.398  0.00  0.00    +0.008 C 
ATOM     15  C   UNL     1      -9.779  -7.791   6.797  0.00  0.00    +0.108 C 
ATOM     17  C   UNL     1      -5.828 -10.719   7.035  0.00  0.00    +0.041 C 
ATOM     19  C   UNL     1      -9.355  -8.747   9.031  0.00  0.00    +0.229 C 
ATOM     20  C   UNL     1      -4.580 -10.308   7.820  0.00  0.00    +0.229 C 
ATOM     21  C   UNL     1      -9.119  -9.970   9.895  0.00  0.00    +0.178 C 
ATOM     26  C   UNL     1      -6.988  -9.203  10.824  0.00  0.00    +0.120 C 
ATOM     27  C   UNL     1      -4.586  -9.696  10.102  0.00  0.00    +0.125 A 
ATOM     28  C   UNL     1      -5.556  -9.603  11.117  0.00  0.00    +0.010 A 
ATOM     29  C   UNL     1      -3.868 -10.274  12.734  0.00  0.00    +0.030 A 
ATOM     30  C   UNL     1      -5.180  -9.908  12.434  0.00  0.00    +0.031 A 
ATOM     31  C   UNL     1      -3.264 -10.040  10.409  0.00  0.00    +0.048 A 
ATOM     34  C   UNL     1      -2.910 -10.335  11.724  0.00  0.00    +0.027 A 
ATOM     37  H   UNL     1      -7.260 -10.306   9.141  0.00  0.00    +0.123 HD
ENDROOT
BRANCH  29   8
ATOM      8  N   UNL     1      -3.509 -10.573  14.054  0.00  0.00    -0.327 N 
ATOM      9  N   UNL     1      -2.805 -11.422  16.687  0.00  0.00    -0.313 NA
ATOM     32  C   UNL     1      -4.515 -11.207  14.917  0.00  0.00    +0.120 C 
ATOM     33  C   UNL     1      -2.112 -10.875  14.379  0.00  0.00    +0.120 C 
ATOM     35  C   UNL     1      -4.171 -10.990  16.390  0.00  0.00    +0.100 C 
ATOM     36  C   UNL     1      -1.852 -10.672  15.872  0.00  0.00    +0.100 C 
ATOM     38  H   UNL     1      -2.608 -11.257  17.674  0.00  0.00    +0.122 HD
ENDBRANCH  29   8
BRANCH  11  16
ATOM     16  C   UNL     1      -7.567  -8.449   3.681  0.00  0.00    +0.100 C 
BRANCH  16  18
ATOM      2  O   UNL     1      -8.002 -10.067   2.005  0.00  0.00    -0.276 OA
ATOM      4  O   UNL     1     -11.157  -6.479   0.726  0.00  0.00    -0.377 OA
ATOM      6  N   UNL     1      -8.995  -7.987   1.722  0.00  0.00    -0.297 N 
ATOM     18  C   UNL     1      -8.202  -8.914   2.395  0.00  0.00    +0.216 C 
ATOM     22  C   UNL     1      -9.652  -8.359   0.468  0.00  0.00    +0.136 C 
ATOM     23  C   UNL     1      -9.152  -6.576   2.089  0.00  0.00    +0.136 C 
ATOM     24  C   UNL     1     -11.098  -7.884   0.467  0.00  0.00    +0.179 C 
ATOM     25  C   UNL     1     -10.619  -6.172   2.016  0.00  0.00    +0.179 C 
ENDBRANCH  16  18
ENDBRANCH  11  16
TORSDOF 3
ENDMDL
MODEL 4
REMARK VINA RESULT:      -7.2      2.695      5.206
REMARK  Name = 56776123
REMARK  3 active torsions:
REMARK  status: ('A' for Active; 'I' for Inactive)
REMARK    1  A    between atoms: N_8  and  C_29
REMARK    2  A    between atoms: C_11  and  C_16
REMARK    3  A    between atoms: C_16  and  C_18
REMARK                            x       y       z     vdW  Elec       q    Type
REMARK                         _______ _______ _______ _____ _____    ______ ____
ROOT
ATOM      1  O   UNL     1      19.090   6.784  20.214  0.00  0.00    -0.492 OA
ATOM      3  O   UNL     1      20.770  11.490  20.145  0.00  0.00    -0.274 OA
ATOM      5  N   UNL     1      18.655  11.219  21.056  0.00  0.00    -0.300 N 
ATOM      7  N   UNL     1      20.590   8.848  21.996  0.00  0.00    -0.304 NA
ATOM     10  C   UNL     1      16.513   9.967  21.383  0.00  0.00    +0.010 C 
ATOM     11  C   UNL     1      15.823  10.994  20.446  0.00  0.00    +0.004 C 
ATOM     12  C   UNL     1      16.815  11.546  19.412  0.00  0.00    +0.023 C 
ATOM     13  C   UNL     1      17.727  10.658  22.052  0.00  0.00    +0.111 C 
ATOM     14  C   UNL     1      16.929   8.663  20.659  0.00  0.00    +0.008 C 
ATOM     15  C   UNL     1      18.045  12.139  20.091  0.00  0.00    +0.108 C 
ATOM     17  C   UNL     1      17.284   7.521  21.622  0.00  0.00    +0.041 C 
ATOM     19  C   UNL     1      20.040  11.040  21.038  0.00  0.00    +0.229 C 
ATOM     20  C   UNL     1      17.918   6.330  20.900  0.00  0.00    +0.229 C 
ATOM     21  C   UNL     1      20.686  10.293  22.187  0.00  0.00    +0.178 C 
ATOM     26  C   UNL     1      21.374   8.355  20.860  0.00  0.00    +0.120 C 
ATOM     27  C   UNL     1      20.235   6.093  20.505  0.00  0.00    +0.125 A 
ATOM     28  C   UNL     1      21.390   6.840  20.807  0.00  0.00    +0.010 A 
ATOM     29  C   UNL     1      22.626   4.758  21.035  0.00  0.00    +0.030 A 
ATOM     30  C   UNL     1      22.581   6.151  21.081  0.00  0.00    +0.031 A 
ATOM     31  C   UNL     1      20.289   4.696  20.436  0.00  0.00    +0.048 A 
ATOM     34  C   UNL     1      21.483   4.032  20.707  0.00  0.00    +0.027 A 
ATOM     37  H   UNL     1      19.620   8.593  21.854  0.00  0.00    +0.123 HD
ENDROOT
BRANCH  29   8
ATOM      8  N   UNL     1      23.825   4.087  21.308  0.00  0.00    -0.327 N 
ATOM      9  N   UNL     1      26.354   2.807  21.647  0.00  0.00    -0.313 NA
ATOM     32  C   UNL     1      24.214   2.980  20.424  0.00  0.00    +0.120 C 
ATOM     33  C   UNL     1      24.929   4.803  21.954  0.00  0.00    +0.120 C 
ATOM     35  C   UNL     1      25.210   2.059  21.127  0.00  0.00    +0.100 C 
ATOM     36  C   UNL     1      25.901   3.817  22.602  0.00  0.00    +0.100 C 
ATOM     38  H   UNL     1      26.991   2.164  22.114  0.00  0.00    +0.122 HD
ENDBRANCH  29   8
BRANCH  11  16
ATOM     16  C   UNL     1      14.569  10.453  19.760  0.00  0.00    +0.100 C 
BRANCH  16  18
ATOM      2  O   UNL     1      13.100  11.057  21.520  0.00  0.00    -0.276 OA
ATOM      4  O   UNL     1      11.551   6.473  20.498  0.00  0.00    -0.377 OA
ATOM      6  N   UNL     1      13.043   8.839  20.836  0.00  0.00    -0.297 N 
ATOM     18  C   UNL     1      13.507  10.152  20.787  0.00  0.00    +0.216 C 
ATOM     22  C   UNL     1      12.009   8.463  21.800  0.00  0.00    +0.136 C 
ATOM     23  C   UNL     1      13.591   7.715  20.070  0.00  0.00    +0.136 C 
ATOM     24  C   UNL     1      10.946   7.604  21.130  0.00  0.00    +0.179 C 
ATOM     25  C   UNL     1      12.462   6.882  19.475  0.00  0.00    +0.179 C 
ENDBRANCH  16  18
ENDBRANCH  11  16
TORSDOF 3
ENDMDL
MODEL 5
REMARK VINA RESULT:      -7.2     29.160     32.966
REMARK  Name = 56776123
REMARK  3 active torsions:
REMARK  status: ('A' for Active; 'I' for Inactive)
REMARK    1  A    between atoms: N_8  and  C_29
REMARK    2  A    between atoms: C_11  and  C_16
REMARK    3  A    between atoms: C_16  and  C_18
REMARK                            x       y       z     vdW  Elec       q    Type
REMARK                         _______ _______ _______ _____ _____    ______ ____
ROOT
ATOM      1  O   UNL     1      -9.107 -12.352  17.031  0.00  0.00    -0.492 OA
ATOM      3  O   UNL     1      -4.746 -11.986  19.445  0.00  0.00    -0.274 OA
ATOM      5  N   UNL     1      -4.919 -10.683  17.535  0.00  0.00    -0.300 N 
ATOM      7  N   UNL     1      -7.665 -10.625  19.182  0.00  0.00    -0.304 NA
ATOM     10  C   UNL     1      -5.922 -10.103  15.317  0.00  0.00    +0.010 C 
ATOM     11  C   UNL     1      -4.644 -10.670  14.642  0.00  0.00    +0.004 C 
ATOM     12  C   UNL     1      -4.027 -11.789  15.492  0.00  0.00    +0.023 C 
ATOM     13  C   UNL     1      -5.547  -9.616  16.738  0.00  0.00    +0.111 C 
ATOM     14  C   UNL     1      -7.093 -11.116  15.354  0.00  0.00    +0.008 C 
ATOM     15  C   UNL     1      -3.750 -11.314  16.914  0.00  0.00    +0.108 C 
ATOM     17  C   UNL     1      -8.444 -10.469  15.690  0.00  0.00    +0.041 C 
ATOM     19  C   UNL     1      -5.270 -11.044  18.838  0.00  0.00    +0.229 C 
ATOM     20  C   UNL     1      -9.535 -11.508  15.957  0.00  0.00    +0.229 C 
ATOM     21  C   UNL     1      -6.314 -10.215  19.560  0.00  0.00    +0.178 C 
ATOM     26  C   UNL     1      -8.013 -11.976  19.632  0.00  0.00    +0.120 C 
ATOM     27  C   UNL     1      -9.986 -12.449  18.076  0.00  0.00    +0.125 A 
ATOM     28  C   UNL     1      -9.474 -12.292  19.378  0.00  0.00    +0.010 A 
ATOM     29  C   UNL     1     -11.701 -12.710  20.261  0.00  0.00    +0.030 A 
ATOM     30  C   UNL     1     -10.353 -12.415  20.464  0.00  0.00    +0.031 A 
ATOM     31  C   UNL     1     -11.334 -12.768  17.876  0.00  0.00    +0.048 A 
ATOM     34  C   UNL     1     -12.190 -12.891  18.968  0.00  0.00    +0.027 A 
ATOM     37  H   UNL     1      -7.757 -10.587  18.174  0.00  0.00    +0.123 HD
ENDROOT
BRANCH  29   8
ATOM      8  N   UNL     1     -12.564 -12.832  21.356  0.00  0.00    -0.327 N 
ATOM      9  N   UNL     1     -14.146 -12.970  23.728  0.00  0.00    -0.313 NA
ATOM     32  C   UNL     1     -12.145 -13.692  22.473  0.00  0.00    +0.120 C 
ATOM     33  C   UNL     1     -13.457 -11.725  21.708  0.00  0.00    +0.120 C 
ATOM     35  C   UNL     1     -13.355 -14.123  23.299  0.00  0.00    +0.100 C 
ATOM     36  C   UNL     1     -14.621 -12.225  22.564  0.00  0.00    +0.100 C 
ATOM     38  H   UNL     1     -14.947 -13.295  24.270  0.00  0.00    +0.122 HD
ENDBRANCH  29   8
BRANCH  11  16
ATOM     16  C   UNL     1      -4.865 -11.138  13.204  0.00  0.00    +0.100 C 
BRANCH  16  18
ATOM      2  O   UNL     1      -2.779 -10.364  12.387  0.00  0.00    -0.276 OA
ATOM      4  O   UNL     1      -5.860  -8.724   8.882  0.00  0.00    -0.377 OA
ATOM      6  N   UNL     1      -4.675  -9.600  11.284  0.00  0.00    -0.297 N 
ATOM     18  C   UNL     1      -4.006 -10.335  12.261  0.00  0.00    +0.216 C 
ATOM     22  C   UNL     1      -3.916  -8.797  10.325  0.00  0.00    +0.136 C 
ATOM     23  C   UNL     1      -6.129  -9.443  11.184  0.00  0.00    +0.136 C 
ATOM     24  C   UNL     1      -4.458  -9.002   8.917  0.00  0.00    +0.179 C 
ATOM     25  C   UNL     1      -6.581  -9.615   9.739  0.00  0.00    +0.179 C 
ENDBRANCH  16  18
ENDBRANCH  11  16
TORSDOF 3
ENDMDL
MODEL 6
REMARK VINA RESULT:      -7.0     17.850     20.737
REMARK  Name = 56776123
REMARK  3 active torsions:
REMARK  status: ('A' for Active; 'I' for Inactive)
REMARK    1  A    between atoms: N_8  and  C_29
REMARK    2  A    between atoms: C_11  and  C_16
REMARK    3  A    between atoms: C_16  and  C_18
REMARK                            x       y       z     vdW  Elec       q    Type
REMARK                         _______ _______ _______ _____ _____    ______ ____
ROOT
ATOM      1  O   UNL     1      13.856   5.442   1.651  0.00  0.00    -0.492 OA
ATOM      3  O   UNL     1      10.552   5.446   5.399  0.00  0.00    -0.274 OA
ATOM      5  N   UNL     1      12.024   7.237   5.392  0.00  0.00    -0.300 N 
ATOM      7  N   UNL     1      11.058   6.570   2.413  0.00  0.00    -0.304 NA
ATOM     10  C   UNL     1      14.162   8.361   4.738  0.00  0.00    +0.010 C 
ATOM     11  C   UNL     1      14.672   8.131   6.185  0.00  0.00    +0.004 C 
ATOM     12  C   UNL     1      14.048   6.866   6.792  0.00  0.00    +0.023 C 
ATOM     13  C   UNL     1      12.615   8.435   4.773  0.00  0.00    +0.111 C 
ATOM     14  C   UNL     1      14.657   7.287   3.738  0.00  0.00    +0.008 C 
ATOM     15  C   UNL     1      12.525   6.921   6.733  0.00  0.00    +0.108 C 
ATOM     17  C   UNL     1      14.457   7.688   2.269  0.00  0.00    +0.041 C 
ATOM     19  C   UNL     1      10.976   6.478   4.865  0.00  0.00    +0.229 C 
ATOM     20  C   UNL     1      14.726   6.527   1.309  0.00  0.00    +0.229 C 
ATOM     21  C   UNL     1      10.300   6.963   3.598  0.00  0.00    +0.178 C 
ATOM     26  C   UNL     1      11.079   5.122   2.187  0.00  0.00    +0.120 C 
ATOM     27  C   UNL     1      13.093   4.965   0.620  0.00  0.00    +0.125 A 
ATOM     28  C   UNL     1      11.719   4.773   0.857  0.00  0.00    +0.010 A 
ATOM     29  C   UNL     1      11.487   3.924  -1.410  0.00  0.00    +0.030 A 
ATOM     30  C   UNL     1      10.924   4.259  -0.178  0.00  0.00    +0.031 A 
ATOM     31  C   UNL     1      13.659   4.607  -0.609  0.00  0.00    +0.048 A 
ATOM     34  C   UNL     1      12.854   4.093  -1.623  0.00  0.00    +0.027 A 
ATOM     37  H   UNL     1      12.012   6.897   2.502  0.00  0.00    +0.123 HD
ENDROOT
BRANCH  29   8
ATOM      8  N   UNL     1      10.680   3.409  -2.431  0.00  0.00    -0.327 N 
ATOM      9  N   UNL     1       9.228   2.389  -4.668  0.00  0.00    -0.313 NA
ATOM     32  C   UNL     1      10.325   4.298  -3.546  0.00  0.00    +0.120 C 
ATOM     33  C   UNL     1      10.733   1.979  -2.750  0.00  0.00    +0.120 C 
ATOM     35  C   UNL     1       9.076   3.786  -4.262  0.00  0.00    +0.100 C 
ATOM     36  C   UNL     1       9.470   1.549  -3.497  0.00  0.00    +0.100 C 
ATOM     38  H   UNL     1       8.376   2.080  -5.134  0.00  0.00    +0.122 HD
ENDBRANCH  29   8
BRANCH  11  16
ATOM     16  C   UNL     1      16.196   8.093   6.300  0.00  0.00    +0.100 C 
BRANCH  16  18
ATOM      2  O   UNL     1      16.376  10.452   6.449  0.00  0.00    -0.276 OA
ATOM      4  O   UNL     1      20.208   9.374   3.514  0.00  0.00    -0.377 OA
ATOM      6  N   UNL     1      17.760   9.400   4.909  0.00  0.00    -0.297 N 
ATOM     18  C   UNL     1      16.778   9.424   5.898  0.00  0.00    +0.216 C 
ATOM     22  C   UNL     1      18.381  10.648   4.464  0.00  0.00    +0.136 C 
ATOM     23  C   UNL     1      18.171   8.217   4.146  0.00  0.00    +0.136 C 
ATOM     24  C   UNL     1      19.890  10.481   4.360  0.00  0.00    +0.179 C 
ATOM     25  C   UNL     1      19.690   8.153   4.050  0.00  0.00    +0.179 C 
ENDBRANCH  16  18
ENDBRANCH  11  16
TORSDOF 3
ENDMDL
MODEL 7
REMARK VINA RESULT:      -7.0     28.784     31.621
REMARK  Name = 56776123
REMARK  3 active torsions:
REMARK  status: ('A' for Active; 'I' for Inactive)
REMARK    1  A    between atoms: N_8  and  C_29
REMARK    2  A    between atoms: C_11  and  C_16
REMARK    3  A    between atoms: C_16  and  C_18
REMARK                            x       y       z     vdW  Elec       q    Type
REMARK                         _______ _______ _______ _____ _____    ______ ____
ROOT
ATOM      1  O   UNL     1      -6.326 -10.207  12.267  0.00  0.00    -0.492 OA
ATOM      3  O   UNL     1      -1.865 -11.497  14.115  0.00  0.00    -0.274 OA
ATOM      5  N   UNL     1      -3.672 -11.999  15.479  0.00  0.00    -0.300 N 
ATOM      7  N   UNL     1      -4.372 -12.625  12.419  0.00  0.00    -0.304 NA
ATOM     10  C   UNL     1      -6.036 -11.705  16.244  0.00  0.00    +0.010 C 
ATOM     11  C   UNL     1      -5.492 -10.945  17.484  0.00  0.00    +0.004 C 
ATOM     12  C   UNL     1      -4.176 -10.227  17.153  0.00  0.00    +0.023 C 
ATOM     13  C   UNL     1      -4.943 -12.687  15.757  0.00  0.00    +0.111 C 
ATOM     14  C   UNL     1      -6.500 -10.762  15.106  0.00  0.00    +0.008 C 
ATOM     15  C   UNL     1      -3.145 -11.199  16.589  0.00  0.00    +0.108 C 
ATOM     17  C   UNL     1      -7.349 -11.470  14.040  0.00  0.00    +0.041 C 
ATOM     19  C   UNL     1      -2.901 -12.141  14.323  0.00  0.00    +0.229 C 
ATOM     20  C   UNL     1      -7.593 -10.588  12.814  0.00  0.00    +0.229 C 
ATOM     21  C   UNL     1      -3.331 -13.164  13.290  0.00  0.00    +0.178 C 
ATOM     26  C   UNL     1      -3.908 -11.532  11.559  0.00  0.00    +0.120 C 
ATOM     27  C   UNL     1      -6.159 -10.492  10.938  0.00  0.00    +0.125 A 
ATOM     28  C   UNL     1      -4.964 -11.126  10.550  0.00  0.00    +0.010 A 
ATOM     29  C   UNL     1      -5.714 -11.035   8.239  0.00  0.00    +0.030 A 
ATOM     30  C   UNL     1      -4.762 -11.402   9.190  0.00  0.00    +0.031 A 
ATOM     31  C   UNL     1      -7.102 -10.104   9.980  0.00  0.00    +0.048 A 
ATOM     34  C   UNL     1      -6.880 -10.382   8.633  0.00  0.00    +0.027 A 
ATOM     37  H   UNL     1      -5.141 -12.287  12.984  0.00  0.00    +0.123 HD
ENDROOT
BRANCH  29   8
ATOM      8  N   UNL     1      -5.494 -11.315   6.885  0.00  0.00    -0.327 N 
ATOM      9  N   UNL     1      -5.115 -12.121   4.172  0.00  0.00    -0.313 NA
ATOM     32  C   UNL     1      -4.418 -12.253   6.539  0.00  0.00    +0.120 C 
ATOM     33  C   UNL     1      -6.611 -11.252   5.937  0.00  0.00    +0.120 C 
ATOM     35  C   UNL     1      -3.978 -12.052   5.090  0.00  0.00    +0.100 C 
ATOM     36  C   UNL     1      -6.094 -11.089   4.508  0.00  0.00    +0.100 C 
ATOM     38  H   UNL     1      -4.786 -11.976   3.218  0.00  0.00    +0.122 HD
ENDBRANCH  29   8
BRANCH  11  16
ATOM     16  C   UNL     1      -6.500  -9.976  18.100  0.00  0.00    +0.100 C 
BRANCH  16  18
ATOM      2  O   UNL     1      -6.853 -11.277  20.050  0.00  0.00    -0.276 OA
ATOM      4  O   UNL     1     -11.489 -10.014  18.878  0.00  0.00    -0.377 OA
ATOM      6  N   UNL     1      -8.747 -10.662  18.855  0.00  0.00    -0.297 N 
ATOM     18  C   UNL     1      -7.374 -10.699  19.092  0.00  0.00    +0.216 C 
ATOM     22  C   UNL     1      -9.667 -11.335  19.773  0.00  0.00    +0.136 C 
ATOM     23  C   UNL     1      -9.390 -10.096  17.665  0.00  0.00    +0.136 C 
ATOM     24  C   UNL     1     -10.853 -10.435  20.088  0.00  0.00    +0.179 C 
ATOM     25  C   UNL     1     -10.592  -9.251  18.066  0.00  0.00    +0.179 C 
ENDBRANCH  16  18
ENDBRANCH  11  16
TORSDOF 3
ENDMDL
MODEL 8
REMARK VINA RESULT:      -6.9     29.636     31.914
REMARK  Name = 56776123
REMARK  3 active torsions:
REMARK  status: ('A' for Active; 'I' for Inactive)
REMARK    1  A    between atoms: N_8  and  C_29
REMARK    2  A    between atoms: C_11  and  C_16
REMARK    3  A    between atoms: C_16  and  C_18
REMARK                            x       y       z     vdW  Elec       q    Type
REMARK                         _______ _______ _______ _____ _____    ______ ____
ROOT
ATOM      1  O   UNL     1      -4.751 -13.302   9.538  0.00  0.00    -0.492 OA
ATOM      3  O   UNL     1      -6.721  -8.737  10.034  0.00  0.00    -0.274 OA
ATOM      5  N   UNL     1      -5.484  -9.471  11.852  0.00  0.00    -0.300 N 
ATOM      7  N   UNL     1      -4.048 -10.300   9.114  0.00  0.00    -0.304 NA
ATOM     10  C   UNL     1      -4.435 -11.254  13.259  0.00  0.00    +0.010 C 
ATOM     11  C   UNL     1      -5.568 -11.037  14.298  0.00  0.00    +0.004 C 
ATOM     12  C   UNL     1      -6.859 -10.571  13.611  0.00  0.00    +0.023 C 
ATOM     13  C   UNL     1      -4.234  -9.934  12.476  0.00  0.00    +0.111 C 
ATOM     14  C   UNL     1      -4.701 -12.446  12.306  0.00  0.00    +0.008 C 
ATOM     15  C   UNL     1      -6.616  -9.321  12.772  0.00  0.00    +0.108 C 
ATOM     17  C   UNL     1      -3.456 -12.884  11.522  0.00  0.00    +0.041 C 
ATOM     19  C   UNL     1      -5.634  -9.066  10.524  0.00  0.00    +0.229 C 
ATOM     20  C   UNL     1      -3.791 -13.893  10.421  0.00  0.00    +0.229 C 
ATOM     21  C   UNL     1      -4.398  -8.987   9.650  0.00  0.00    +0.178 C 
ATOM     26  C   UNL     1      -5.035 -10.825   8.164  0.00  0.00    +0.120 C 
ATOM     27  C   UNL     1      -4.399 -13.301   8.216  0.00  0.00    +0.125 A 
ATOM     28  C   UNL     1      -4.549 -12.099   7.500  0.00  0.00    +0.010 A 
ATOM     29  C   UNL     1      -3.775 -13.241   5.497  0.00  0.00    +0.030 A 
ATOM     30  C   UNL     1      -4.219 -12.084   6.136  0.00  0.00    +0.031 A 
ATOM     31  C   UNL     1      -3.975 -14.467   7.567  0.00  0.00    +0.048 A 
ATOM     34  C   UNL     1      -3.658 -14.433   6.211  0.00  0.00    +0.027 A 
ATOM     37  H   UNL     1      -3.952 -10.959   9.877  0.00  0.00    +0.123 HD
ENDROOT
BRANCH  29   8
ATOM      8  N   UNL     1      -3.454 -13.209   4.135  0.00  0.00    -0.327 N 
ATOM      9  N   UNL     1      -2.778 -12.896   1.379  0.00  0.00    -0.313 NA
ATOM     32  C   UNL     1      -4.382 -12.528   3.222  0.00  0.00    +0.120 C 
ATOM     33  C   UNL     1      -2.048 -13.225   3.717  0.00  0.00    +0.120 C 
ATOM     35  C   UNL     1      -4.177 -13.015   1.789  0.00  0.00    +0.100 C 
ATOM     36  C   UNL     1      -1.926 -13.686   2.265  0.00  0.00    +0.100 C 
ATOM     38  H   UNL     1      -2.678 -13.235   0.423  0.00  0.00    +0.122 HD
ENDBRANCH  29   8
BRANCH  11  16
ATOM     16  C   UNL     1      -5.832 -12.256  15.182  0.00  0.00    +0.100 C 
BRANCH  16  18
ATOM      2  O   UNL     1      -3.941 -12.053  16.596  0.00  0.00    -0.276 OA
ATOM      4  O   UNL     1      -7.608 -10.915  19.714  0.00  0.00    -0.377 OA
ATOM      6  N   UNL     1      -6.022 -11.936  17.621  0.00  0.00    -0.297 N 
ATOM     18  C   UNL     1      -5.172 -12.074  16.525  0.00  0.00    +0.216 C 
ATOM     22  C   UNL     1      -5.463 -11.751  18.961  0.00  0.00    +0.136 C 
ATOM     23  C   UNL     1      -7.480 -12.083  17.591  0.00  0.00    +0.136 C 
ATOM     24  C   UNL     1      -6.204 -10.643  19.695  0.00  0.00    +0.179 C 
ATOM     25  C   UNL     1      -8.139 -10.964  18.387  0.00  0.00    +0.179 C 
ENDBRANCH  16  18
ENDBRANCH  11  16
TORSDOF 3
ENDMDL
MODEL 9
REMARK VINA RESULT:      -6.8     19.547     21.660
REMARK  Name = 56776123
REMARK  3 active torsions:
REMARK  status: ('A' for Active; 'I' for Inactive)
REMARK    1  A    between atoms: N_8  and  C_29
REMARK    2  A    between atoms: C_11  and  C_16
REMARK    3  A    between atoms: C_16  and  C_18
REMARK                            x       y       z     vdW  Elec       q    Type
REMARK                         _______ _______ _______ _____ _____    ______ ____
ROOT
ATOM      1  O   UNL     1      11.858  -7.088  30.968  0.00  0.00    -0.492 OA
ATOM      3  O   UNL     1       8.695  -4.242  33.589  0.00  0.00    -0.274 OA
ATOM      5  N   UNL     1       8.529  -6.519  33.996  0.00  0.00    -0.300 N 
ATOM      7  N   UNL     1      11.599  -5.652  33.717  0.00  0.00    -0.304 NA
ATOM     10  C   UNL     1       8.869  -8.922  33.386  0.00  0.00    +0.010 C 
ATOM     11  C   UNL     1       7.351  -9.011  33.076  0.00  0.00    +0.004 C 
ATOM     12  C   UNL     1       6.808  -7.655  32.602  0.00  0.00    +0.023 C 
ATOM     13  C   UNL     1       9.087  -7.807  34.439  0.00  0.00    +0.111 C 
ATOM     14  C   UNL     1       9.737  -8.689  32.125  0.00  0.00    +0.008 C 
ATOM     15  C   UNL     1       7.114  -6.555  33.613  0.00  0.00    +0.108 C 
ATOM     17  C   UNL     1      11.232  -8.947  32.361  0.00  0.00    +0.041 C 
ATOM     19  C   UNL     1       9.190  -5.289  34.025  0.00  0.00    +0.229 C 
ATOM     20  C   UNL     1      12.094  -8.484  31.185  0.00  0.00    +0.229 C 
ATOM     21  C   UNL     1      10.566  -5.224  34.658  0.00  0.00    +0.178 C 
ATOM     26  C   UNL     1      11.766  -4.743  32.580  0.00  0.00    +0.120 C 
ATOM     27  C   UNL     1      12.981  -6.306  30.961  0.00  0.00    +0.125 A 
ATOM     28  C   UNL     1      12.962  -5.127  31.729  0.00  0.00    +0.010 A 
ATOM     29  C   UNL     1      15.205  -4.621  30.936  0.00  0.00    +0.030 A 
ATOM     30  C   UNL     1      14.092  -4.296  31.714  0.00  0.00    +0.031 A 
ATOM     31  C   UNL     1      14.089  -6.617  30.164  0.00  0.00    +0.048 A 
ATOM     34  C   UNL     1      15.201  -5.777  30.158  0.00  0.00    +0.027 A 
ATOM     37  H   UNL     1      11.369  -6.573  33.364  0.00  0.00    +0.123 HD
ENDROOT
BRANCH  29   8
ATOM      8  N   UNL     1      16.324  -3.780  30.930  0.00  0.00    -0.327 N 
ATOM      9  N   UNL     1      18.595  -2.067  31.167  0.00  0.00    -0.313 NA
ATOM     32  C   UNL     1      16.168  -2.419  31.462  0.00  0.00    +0.120 C 
ATOM     33  C   UNL     1      17.668  -4.354  31.039  0.00  0.00    +0.120 C 
ATOM     35  C   UNL     1      17.267  -1.505  30.924  0.00  0.00    +0.100 C 
ATOM     36  C   UNL     1      18.716  -3.370  30.517  0.00  0.00    +0.100 C 
ATOM     38  H   UNL     1      19.301  -1.436  30.790  0.00  0.00    +0.122 HD
ENDBRANCH  29   8
BRANCH  11  16
ATOM     16  C   UNL     1       6.991 -10.117  32.085  0.00  0.00    +0.100 C 
BRANCH  16  18
ATOM      2  O   UNL     1       5.804 -11.015  33.930  0.00  0.00    -0.276 OA
ATOM      4  O   UNL     1       4.927 -14.430  30.462  0.00  0.00    -0.377 OA
ATOM      6  N   UNL     1       6.012 -12.382  32.065  0.00  0.00    -0.297 N 
ATOM     18  C   UNL     1       6.217 -11.206  32.783  0.00  0.00    +0.216 C 
ATOM     22  C   UNL     1       5.266 -13.487  32.667  0.00  0.00    +0.136 C 
ATOM     23  C   UNL     1       6.593 -12.691  30.754  0.00  0.00    +0.136 C 
ATOM     24  C   UNL     1       4.264 -14.055  31.672  0.00  0.00    +0.179 C 
ATOM     25  C   UNL     1       5.538 -13.297  29.838  0.00  0.00    +0.179 C 
ENDBRANCH  16  18
ENDBRANCH  11  16
TORSDOF 3
ENDMDL
MODEL 10
REMARK VINA RESULT:      -6.8     22.384     24.721
REMARK  Name = 56776123
REMARK  3 active torsions:
REMARK  status: ('A' for Active; 'I' for Inactive)
REMARK    1  A    between atoms: N_8  and  C_29
REMARK    2  A    between atoms: C_11  and  C_16
REMARK    3  A    between atoms: C_16  and  C_18
REMARK                            x       y       z     vdW  Elec       q    Type
REMARK                         _______ _______ _______ _____ _____    ______ ____
ROOT
ATOM      1  O   UNL     1      -3.323   9.574  35.892  0.00  0.00    -0.492 OA
ATOM      3  O   UNL     1      -0.121  12.911  33.999  0.00  0.00    -0.274 OA
ATOM      5  N   UNL     1      -2.300  13.670  34.232  0.00  0.00    -0.300 N 
ATOM      7  N   UNL     1      -1.452  11.903  36.765  0.00  0.00    -0.304 NA
ATOM     10  C   UNL     1      -4.766  13.322  34.473  0.00  0.00    +0.010 C 
ATOM     11  C   UNL     1      -4.925  13.753  32.990  0.00  0.00    +0.004 C 
ATOM     12  C   UNL     1      -3.675  13.391  32.177  0.00  0.00    +0.023 C 
ATOM     13  C   UNL     1      -3.489  13.989  35.039  0.00  0.00    +0.111 C 
ATOM     14  C   UNL     1      -4.736  11.785  34.661  0.00  0.00    +0.008 C 
ATOM     15  C   UNL     1      -2.418  13.983  32.805  0.00  0.00    +0.108 C 
ATOM     17  C   UNL     1      -4.931  11.349  36.120  0.00  0.00    +0.041 C 
ATOM     19  C   UNL     1      -1.073  13.218  34.727  0.00  0.00    +0.229 C 
ATOM     20  C   UNL     1      -4.660   9.856  36.320  0.00  0.00    +0.229 C 
ATOM     21  C   UNL     1      -0.886  13.139  36.229  0.00  0.00    +0.178 C 
ATOM     26  C   UNL     1      -0.744  10.697  36.326  0.00  0.00    +0.120 C 
ATOM     27  C   UNL     1      -2.538   8.945  36.820  0.00  0.00    +0.125 A 
ATOM     28  C   UNL     1      -1.248   9.460  37.043  0.00  0.00    +0.010 A 
ATOM     29  C   UNL     1      -0.853   7.670  38.641  0.00  0.00    +0.030 A 
ATOM     30  C   UNL     1      -0.417   8.813  37.970  0.00  0.00    +0.031 A 
ATOM     31  C   UNL     1      -2.964   7.784  37.477  0.00  0.00    +0.048 A 
ATOM     34  C   UNL     1      -2.122   7.153  38.391  0.00  0.00    +0.027 A 
ATOM     37  H   UNL     1      -2.422  11.829  36.483  0.00  0.00    +0.123 HD
ENDROOT
BRANCH  29   8
ATOM      8  N   UNL     1      -0.010   7.035  39.561  0.00  0.00    -0.327 N 
ATOM      9  N   UNL     1       1.519   5.747  41.599  0.00  0.00    -0.313 NA
ATOM     32  C   UNL     1       0.372   7.773  40.773  0.00  0.00    +0.120 C 
ATOM     33  C   UNL     1      -0.040   5.575  39.690  0.00  0.00    +0.120 C 
ATOM     35  C   UNL     1       1.647   7.187  41.377  0.00  0.00    +0.100 C 
ATOM     36  C   UNL     1       1.249   5.066  40.335  0.00  0.00    +0.100 C 
ATOM     38  H   UNL     1       2.388   5.390  41.995  0.00  0.00    +0.122 HD
ENDBRANCH  29   8
BRANCH  11  16
ATOM     16  C   UNL     1      -6.186  13.204  32.323  0.00  0.00    +0.100 C 
BRANCH  16  18
ATOM      2  O   UNL     1      -7.501  15.057  33.000  0.00  0.00    -0.276 OA
ATOM      4  O   UNL     1     -10.670  11.320  33.681  0.00  0.00    -0.377 OA
ATOM      6  N   UNL     1      -8.386  12.949  33.410  0.00  0.00    -0.297 N 
ATOM     18  C   UNL     1      -7.411  13.828  32.940  0.00  0.00    +0.216 C 
ATOM     22  C   UNL     1      -9.609  13.471  34.020  0.00  0.00    +0.136 C 
ATOM     23  C   UNL     1      -8.258  11.490  33.471  0.00  0.00    +0.136 C 
ATOM     24  C   UNL     1     -10.826  12.729  33.486  0.00  0.00    +0.179 C 
ATOM     25  C   UNL     1      -9.533  10.827  32.965  0.00  0.00    +0.179 C 
ENDBRANCH  16  18
ENDBRANCH  11  16
TORSDOF 3
ENDMDL
