MODEL 1
REMARK VINA RESULT:      -7.1      0.000      0.000
REMARK  Name = 71694324
REMARK  7 active torsions:
REMARK  status: ('A' for Active; 'I' for Inactive)
REMARK    1  A    between atoms: O_6  and  C_18
REMARK    2  A    between atoms: O_6  and  C_26
REMARK    3  A    between atoms: O_7  and  C_25
REMARK    4  A    between atoms: O_7  and  C_27
REMARK    5  A    between atoms: C_11  and  C_14
REMARK    6  A    between atoms: C_16  and  C_18
REMARK    7  A    between atoms: C_17  and  C_20
REMARK                            x       y       z     vdW  Elec       q    Type
REMARK                         _______ _______ _______ _____ _____    ______ ____
ROOT
ATOM      9  N   UNL     1      16.977   7.260  20.333  0.00  0.00    -0.340 N 
ATOM     10  N   UNL     1      15.994   6.281  18.600  0.00  0.00    -0.238 NA
ATOM     14  C   UNL     1      15.895   7.235  19.498  0.00  0.00    +0.130 A 
ATOM     17  C   UNL     1      17.819   6.258  19.942  0.00  0.00    +0.066 A 
ATOM     19  C   UNL     1      17.191   5.668  18.870  0.00  0.00    +0.139 A 
ATOM     28  H   UNL     1      17.114   7.901  21.104  0.00  0.00    +0.167 HD
ENDROOT
BRANCH  14  11
ATOM      4  O   UNL     1      15.502   9.850  21.352  0.00  0.00    -0.376 OA
ATOM      5  O   UNL     1      12.466   6.684  18.996  0.00  0.00    -0.273 OA
ATOM      8  N   UNL     1      13.742   7.753  20.622  0.00  0.00    -0.285 N 
ATOM     11  C   UNL     1      14.750   8.229  19.653  0.00  0.00    +0.168 C 
ATOM     12  C   UNL     1      15.185   9.671  19.971  0.00  0.00    +0.190 C 
ATOM     13  C   UNL     1      14.004   8.077  22.030  0.00  0.00    +0.136 C 
ATOM     15  C   UNL     1      14.384   9.542  22.182  0.00  0.00    +0.179 C 
ATOM     16  C   UNL     1      12.683   6.954  20.180  0.00  0.00    +0.242 C 
BRANCH  16  18
ATOM     18  C   UNL     1      11.762   6.404  21.240  0.00  0.00    +0.255 C 
BRANCH  18   6
ATOM      6  O   UNL     1      10.591   7.185  21.200  0.00  0.00    -0.374 OA
ATOM     26  C   UNL     1      10.457   8.007  22.358  0.00  0.00    +0.194 C 
ENDBRANCH  18   6
ENDBRANCH  16  18
ENDBRANCH  14  11
BRANCH  17  20
ATOM     20  C   UNL     1      19.072   5.978  20.592  0.00  0.00    +0.000 A 
ATOM     21  C   UNL     1      19.945   5.034  20.047  0.00  0.00    +0.013 A 
ATOM     22  C   UNL     1      19.415   6.649  21.766  0.00  0.00    +0.013 A 
ATOM     23  C   UNL     1      21.160   4.763  20.677  0.00  0.00    +0.046 A 
ATOM     24  C   UNL     1      20.630   6.376  22.395  0.00  0.00    +0.046 A 
ATOM     25  C   UNL     1      21.502   5.434  21.851  0.00  0.00    +0.130 A 
BRANCH  25   7
ATOM      7  O   UNL     1      22.688   5.172  22.464  0.00  0.00    -0.406 OA
BRANCH   7  27
ATOM      1  F   UNL     1      24.020   3.445  23.156  0.00  0.00    -0.133 F 
ATOM      2  F   UNL     1      22.588   4.323  24.554  0.00  0.00    -0.133 F 
ATOM      3  F   UNL     1      21.853   3.089  22.907  0.00  0.00    -0.133 F 
ATOM     27  C   UNL     1      22.791   3.995  23.257  0.00  0.00    +0.575 C 
ENDBRANCH   7  27
ENDBRANCH  25   7
ENDBRANCH  17  20
TORSDOF 6
ENDMDL
MODEL 2
REMARK VINA RESULT:      -6.6     17.538     19.954
REMARK  Name = 71694324
REMARK  7 active torsions:
REMARK  status: ('A' for Active; 'I' for Inactive)
REMARK    1  A    between atoms: O_6  and  C_18
REMARK    2  A    between atoms: O_6  and  C_26
REMARK    3  A    between atoms: O_7  and  C_25
REMARK    4  A    between atoms: O_7  and  C_27
REMARK    5  A    between atoms: C_11  and  C_14
REMARK    6  A    between atoms: C_16  and  C_18
REMARK    7  A    between atoms: C_17  and  C_20
REMARK                            x       y       z     vdW  Elec       q    Type
REMARK                         _______ _______ _______ _____ _____    ______ ____
ROOT
ATOM      9  N   UNL     1      11.609   4.784   3.248  0.00  0.00    -0.340 N 
ATOM     10  N   UNL     1      12.534   6.405   2.045  0.00  0.00    -0.238 NA
ATOM     14  C   UNL     1      12.250   5.122   2.089  0.00  0.00    +0.130 A 
ATOM     17  C   UNL     1      11.476   5.923   3.990  0.00  0.00    +0.066 A 
ATOM     19  C   UNL     1      12.055   6.911   3.227  0.00  0.00    +0.139 A 
ATOM     28  H   UNL     1      11.302   3.855   3.504  0.00  0.00    +0.167 HD
ENDROOT
BRANCH  14  11
ATOM      4  O   UNL     1      15.013   4.115   0.754  0.00  0.00    -0.376 OA
ATOM      5  O   UNL     1      10.211   4.062  -0.563  0.00  0.00    -0.273 OA
ATOM      8  N   UNL     1      12.453   4.645  -0.339  0.00  0.00    -0.285 N 
ATOM     11  C   UNL     1      12.562   4.080   1.021  0.00  0.00    +0.168 C 
ATOM     12  C   UNL     1      13.901   3.344   1.209  0.00  0.00    +0.190 C 
ATOM     13  C   UNL     1      13.658   5.305  -0.856  0.00  0.00    +0.136 C 
ATOM     15  C   UNL     1      14.886   4.437  -0.630  0.00  0.00    +0.179 C 
ATOM     16  C   UNL     1      11.221   4.618  -1.001  0.00  0.00    +0.242 C 
BRANCH  16  18
ATOM     18  C   UNL     1      11.154   5.320  -2.335  0.00  0.00    +0.255 C 
BRANCH  18   6
ATOM      6  O   UNL     1      10.709   4.366  -3.269  0.00  0.00    -0.374 OA
ATOM     26  C   UNL     1      11.778   3.559  -3.760  0.00  0.00    +0.194 C 
ENDBRANCH  18   6
ENDBRANCH  16  18
ENDBRANCH  14  11
BRANCH  17  20
ATOM     20  C   UNL     1      10.844   5.958   5.282  0.00  0.00    +0.000 A 
ATOM     21  C   UNL     1       9.477   5.702   5.397  0.00  0.00    +0.013 A 
ATOM     22  C   UNL     1      11.597   6.247   6.420  0.00  0.00    +0.013 A 
ATOM     23  C   UNL     1       8.865   5.735   6.651  0.00  0.00    +0.046 A 
ATOM     24  C   UNL     1      10.984   6.281   7.673  0.00  0.00    +0.046 A 
ATOM     25  C   UNL     1       9.618   6.024   7.788  0.00  0.00    +0.130 A 
BRANCH  25   7
ATOM      7  O   UNL     1       9.022   6.054   9.011  0.00  0.00    -0.406 OA
BRANCH   7  27
ATOM      1  F   UNL     1       8.053   4.788  10.652  0.00  0.00    -0.133 F 
ATOM      2  F   UNL     1       9.172   3.802   9.054  0.00  0.00    -0.133 F 
ATOM      3  F   UNL     1      10.258   4.934  10.576  0.00  0.00    -0.133 F 
ATOM     27  C   UNL     1       9.126   4.902   9.840  0.00  0.00    +0.575 C 
ENDBRANCH   7  27
ENDBRANCH  25   7
ENDBRANCH  17  20
TORSDOF 6
ENDMDL
MODEL 3
REMARK VINA RESULT:      -6.6     16.990     19.517
REMARK  Name = 71694324
REMARK  7 active torsions:
REMARK  status: ('A' for Active; 'I' for Inactive)
REMARK    1  A    between atoms: O_6  and  C_18
REMARK    2  A    between atoms: O_6  and  C_26
REMARK    3  A    between atoms: O_7  and  C_25
REMARK    4  A    between atoms: O_7  and  C_27
REMARK    5  A    between atoms: C_11  and  C_14
REMARK    6  A    between atoms: C_16  and  C_18
REMARK    7  A    between atoms: C_17  and  C_20
REMARK                            x       y       z     vdW  Elec       q    Type
REMARK                         _______ _______ _______ _____ _____    ______ ____
ROOT
ATOM      9  N   UNL     1      11.865   5.176   3.253  0.00  0.00    -0.340 N 
ATOM     10  N   UNL     1      12.891   6.875   2.259  0.00  0.00    -0.238 NA
ATOM     14  C   UNL     1      12.576   5.603   2.166  0.00  0.00    +0.130 A 
ATOM     17  C   UNL     1      11.719   6.244   4.092  0.00  0.00    +0.066 A 
ATOM     19  C   UNL     1      12.360   7.282   3.457  0.00  0.00    +0.139 A 
ATOM     28  H   UNL     1      11.524   4.235   3.404  0.00  0.00    +0.167 HD
ENDROOT
BRANCH  14  11
ATOM      4  O   UNL     1      14.698   3.184   1.891  0.00  0.00    -0.376 OA
ATOM      5  O   UNL     1      12.315   6.190  -1.283  0.00  0.00    -0.273 OA
ATOM      8  N   UNL     1      13.922   5.247   0.110  0.00  0.00    -0.285 N 
ATOM     11  C   UNL     1      12.922   4.656   1.022  0.00  0.00    +0.168 C 
ATOM     12  C   UNL     1      13.339   3.240   1.459  0.00  0.00    +0.190 C 
ATOM     13  C   UNL     1      15.328   5.050   0.488  0.00  0.00    +0.136 C 
ATOM     15  C   UNL     1      15.587   3.597   0.854  0.00  0.00    +0.179 C 
ATOM     16  C   UNL     1      13.497   6.027  -0.969  0.00  0.00    +0.242 C 
BRANCH  16  18
ATOM     18  C   UNL     1      14.574   6.698  -1.786  0.00  0.00    +0.255 C 
BRANCH  18   6
ATOM      6  O   UNL     1      14.459   8.080  -1.545  0.00  0.00    -0.374 OA
ATOM     26  C   UNL     1      15.572   8.589  -0.812  0.00  0.00    +0.194 C 
ENDBRANCH  18   6
ENDBRANCH  16  18
ENDBRANCH  14  11
BRANCH  17  20
ATOM     20  C   UNL     1      11.018   6.175   5.347  0.00  0.00    +0.000 A 
ATOM     21  C   UNL     1      11.682   6.488   6.534  0.00  0.00    +0.013 A 
ATOM     22  C   UNL     1       9.676   5.797   5.378  0.00  0.00    +0.013 A 
ATOM     23  C   UNL     1      11.003   6.422   7.751  0.00  0.00    +0.046 A 
ATOM     24  C   UNL     1       8.998   5.730   6.595  0.00  0.00    +0.046 A 
ATOM     25  C   UNL     1       9.661   6.042   7.781  0.00  0.00    +0.130 A 
BRANCH  25   7
ATOM      7  O   UNL     1       8.997   5.980   8.968  0.00  0.00    -0.406 OA
BRANCH   7  27
ATOM      1  F   UNL     1      10.261   4.943  10.567  0.00  0.00    -0.133 F 
ATOM      2  F   UNL     1       8.090   4.684  10.578  0.00  0.00    -0.133 F 
ATOM      3  F   UNL     1       9.274   3.710   9.020  0.00  0.00    -0.133 F 
ATOM     27  C   UNL     1       9.172   4.824   9.778  0.00  0.00    +0.575 C 
ENDBRANCH   7  27
ENDBRANCH  25   7
ENDBRANCH  17  20
TORSDOF 6
ENDMDL
MODEL 4
REMARK VINA RESULT:      -6.4      4.758      8.980
REMARK  Name = 71694324
REMARK  7 active torsions:
REMARK  status: ('A' for Active; 'I' for Inactive)
REMARK    1  A    between atoms: O_6  and  C_18
REMARK    2  A    between atoms: O_6  and  C_26
REMARK    3  A    between atoms: O_7  and  C_25
REMARK    4  A    between atoms: O_7  and  C_27
REMARK    5  A    between atoms: C_11  and  C_14
REMARK    6  A    between atoms: C_16  and  C_18
REMARK    7  A    between atoms: C_17  and  C_20
REMARK                            x       y       z     vdW  Elec       q    Type
REMARK                         _______ _______ _______ _____ _____    ______ ____
ROOT
ATOM      9  N   UNL     1      17.852   7.054  21.625  0.00  0.00    -0.340 N 
ATOM     10  N   UNL     1      19.441   6.060  20.434  0.00  0.00    -0.238 NA
ATOM     14  C   UNL     1      19.174   6.718  21.540  0.00  0.00    +0.130 A 
ATOM     17  C   UNL     1      17.237   6.580  20.501  0.00  0.00    +0.066 A 
ATOM     19  C   UNL     1      18.237   5.971  19.781  0.00  0.00    +0.139 A 
ATOM     28  H   UNL     1      17.420   7.569  22.381  0.00  0.00    +0.167 HD
ENDROOT
BRANCH  14  11
ATOM      4  O   UNL     1      20.603   9.502  22.338  0.00  0.00    -0.376 OA
ATOM      5  O   UNL     1      21.566   4.676  23.097  0.00  0.00    -0.273 OA
ATOM      8  N   UNL     1      21.556   6.836  22.231  0.00  0.00    -0.285 N 
ATOM     11  C   UNL     1      20.161   7.095  22.639  0.00  0.00    +0.168 C 
ATOM     12  C   UNL     1      20.001   8.525  23.187  0.00  0.00    +0.190 C 
ATOM     13  C   UNL     1      22.216   7.916  21.486  0.00  0.00    +0.136 C 
ATOM     15  C   UNL     1      21.999   9.255  22.174  0.00  0.00    +0.179 C 
ATOM     16  C   UNL     1      22.124   5.581  22.471  0.00  0.00    +0.242 C 
BRANCH  16  18
ATOM     18  C   UNL     1      23.508   5.347  21.920  0.00  0.00    +0.255 C 
BRANCH  18   6
ATOM      6  O   UNL     1      23.346   4.656  20.705  0.00  0.00    -0.374 OA
ATOM     26  C   UNL     1      24.594   4.409  20.059  0.00  0.00    +0.194 C 
ENDBRANCH  18   6
ENDBRANCH  16  18
ENDBRANCH  14  11
BRANCH  17  20
ATOM     20  C   UNL     1      15.831   6.745  20.238  0.00  0.00    +0.000 A 
ATOM     21  C   UNL     1      14.919   6.740  21.294  0.00  0.00    +0.013 A 
ATOM     22  C   UNL     1      15.380   6.909  18.928  0.00  0.00    +0.013 A 
ATOM     23  C   UNL     1      13.556   6.901  21.040  0.00  0.00    +0.046 A 
ATOM     24  C   UNL     1      14.018   7.068  18.674  0.00  0.00    +0.046 A 
ATOM     25  C   UNL     1      13.107   7.064  19.730  0.00  0.00    +0.130 A 
BRANCH  25   7
ATOM      7  O   UNL     1      11.778   7.223  19.481  0.00  0.00    -0.406 OA
BRANCH   7  27
ATOM      1  F   UNL     1      10.399   8.783  18.534  0.00  0.00    -0.133 F 
ATOM      2  F   UNL     1      10.507   8.627  20.711  0.00  0.00    -0.133 F 
ATOM      3  F   UNL     1      12.201   9.467  19.615  0.00  0.00    -0.133 F 
ATOM     27  C   UNL     1      11.227   8.532  19.569  0.00  0.00    +0.575 C 
ENDBRANCH   7  27
ENDBRANCH  25   7
ENDBRANCH  17  20
TORSDOF 6
ENDMDL
MODEL 5
REMARK VINA RESULT:      -6.4      2.225      3.672
REMARK  Name = 71694324
REMARK  7 active torsions:
REMARK  status: ('A' for Active; 'I' for Inactive)
REMARK    1  A    between atoms: O_6  and  C_18
REMARK    2  A    between atoms: O_6  and  C_26
REMARK    3  A    between atoms: O_7  and  C_25
REMARK    4  A    between atoms: O_7  and  C_27
REMARK    5  A    between atoms: C_11  and  C_14
REMARK    6  A    between atoms: C_16  and  C_18
REMARK    7  A    between atoms: C_17  and  C_20
REMARK                            x       y       z     vdW  Elec       q    Type
REMARK                         _______ _______ _______ _____ _____    ______ ____
ROOT
ATOM      9  N   UNL     1      15.888   8.087  20.865  0.00  0.00    -0.340 N 
ATOM     10  N   UNL     1      15.804  10.141  21.704  0.00  0.00    -0.238 NA
ATOM     14  C   UNL     1      15.098   9.150  21.206  0.00  0.00    +0.130 A 
ATOM     17  C   UNL     1      17.178   8.422  21.164  0.00  0.00    +0.066 A 
ATOM     19  C   UNL     1      17.101   9.695  21.680  0.00  0.00    +0.139 A 
ATOM     28  H   UNL     1      15.566   7.219  20.456  0.00  0.00    +0.167 HD
ENDROOT
BRANCH  14  11
ATOM      4  O   UNL     1      12.927   6.763  21.346  0.00  0.00    -0.376 OA
ATOM      5  O   UNL     1      13.131  11.251  19.199  0.00  0.00    -0.273 OA
ATOM      8  N   UNL     1      13.232   8.958  19.579  0.00  0.00    -0.285 N 
ATOM     11  C   UNL     1      13.588   9.114  21.004  0.00  0.00    +0.168 C 
ATOM     12  C   UNL     1      12.845   8.086  21.877  0.00  0.00    +0.190 C 
ATOM     13  C   UNL     1      13.172   7.577  19.083  0.00  0.00    +0.136 C 
ATOM     15  C   UNL     1      12.374   6.698  20.033  0.00  0.00    +0.179 C 
ATOM     16  C   UNL     1      13.080  10.093  18.777  0.00  0.00    +0.242 C 
BRANCH  16  18
ATOM     18  C   UNL     1      12.837   9.855  17.308  0.00  0.00    +0.255 C 
BRANCH  18   6
ATOM      6  O   UNL     1      14.097   9.883  16.682  0.00  0.00    -0.374 OA
ATOM     26  C   UNL     1      14.220   8.873  15.682  0.00  0.00    +0.194 C 
ENDBRANCH  18   6
ENDBRANCH  16  18
ENDBRANCH  14  11
BRANCH  17  20
ATOM     20  C   UNL     1      18.296   7.544  20.941  0.00  0.00    +0.000 A 
ATOM     21  C   UNL     1      19.578   7.935  21.329  0.00  0.00    +0.013 A 
ATOM     22  C   UNL     1      18.099   6.302  20.338  0.00  0.00    +0.013 A 
ATOM     23  C   UNL     1      20.662   7.084  21.115  0.00  0.00    +0.046 A 
ATOM     24  C   UNL     1      19.183   5.451  20.123  0.00  0.00    +0.046 A 
ATOM     25  C   UNL     1      20.464   5.842  20.511  0.00  0.00    +0.130 A 
BRANCH  25   7
ATOM      7  O   UNL     1      21.521   5.010  20.303  0.00  0.00    -0.406 OA
BRANCH   7  27
ATOM      1  F   UNL     1      21.370   4.265  22.461  0.00  0.00    -0.133 F 
ATOM      2  F   UNL     1      20.909   2.899  20.819  0.00  0.00    -0.133 F 
ATOM      3  F   UNL     1      22.985   3.482  21.172  0.00  0.00    -0.133 F 
ATOM     27  C   UNL     1      21.708   3.921  21.200  0.00  0.00    +0.575 C 
ENDBRANCH   7  27
ENDBRANCH  25   7
ENDBRANCH  17  20
TORSDOF 6
ENDMDL
MODEL 6
REMARK VINA RESULT:      -6.1      4.726      8.661
REMARK  Name = 71694324
REMARK  7 active torsions:
REMARK  status: ('A' for Active; 'I' for Inactive)
REMARK    1  A    between atoms: O_6  and  C_18
REMARK    2  A    between atoms: O_6  and  C_26
REMARK    3  A    between atoms: O_7  and  C_25
REMARK    4  A    between atoms: O_7  and  C_27
REMARK    5  A    between atoms: C_11  and  C_14
REMARK    6  A    between atoms: C_16  and  C_18
REMARK    7  A    between atoms: C_17  and  C_20
REMARK                            x       y       z     vdW  Elec       q    Type
REMARK                         _______ _______ _______ _____ _____    ______ ____
ROOT
ATOM      9  N   UNL     1      18.481   7.086  21.778  0.00  0.00    -0.340 N 
ATOM     10  N   UNL     1      19.627   5.763  20.412  0.00  0.00    -0.238 NA
ATOM     14  C   UNL     1      19.691   6.522  21.483  0.00  0.00    +0.130 A 
ATOM     17  C   UNL     1      17.590   6.661  20.834  0.00  0.00    +0.066 A 
ATOM     19  C   UNL     1      18.320   5.846  20.002  0.00  0.00    +0.139 A 
ATOM     28  H   UNL     1      18.293   7.712  22.551  0.00  0.00    +0.167 HD
ENDROOT
BRANCH  14  11
ATOM      4  O   UNL     1      20.185   8.364  24.089  0.00  0.00    -0.376 OA
ATOM      5  O   UNL     1      23.065   6.414  20.526  0.00  0.00    -0.273 OA
ATOM      8  N   UNL     1      21.755   7.870  21.782  0.00  0.00    -0.285 N 
ATOM     11  C   UNL     1      20.921   6.787  22.343  0.00  0.00    +0.168 C 
ATOM     12  C   UNL     1      20.626   7.030  23.834  0.00  0.00    +0.190 C 
ATOM     13  C   UNL     1      21.380   9.234  22.176  0.00  0.00    +0.136 C 
ATOM     15  C   UNL     1      21.162   9.319  23.679  0.00  0.00    +0.179 C 
ATOM     16  C   UNL     1      22.754   7.562  20.854  0.00  0.00    +0.242 C 
BRANCH  16  18
ATOM     18  C   UNL     1      23.483   8.728  20.233  0.00  0.00    +0.255 C 
BRANCH  18   6
ATOM      6  O   UNL     1      22.876   8.962  18.985  0.00  0.00    -0.374 OA
ATOM     26  C   UNL     1      22.928  10.339  18.616  0.00  0.00    +0.194 C 
ENDBRANCH  18   6
ENDBRANCH  16  18
ENDBRANCH  14  11
BRANCH  17  20
ATOM     20  C   UNL     1      16.205   7.051  20.821  0.00  0.00    +0.000 A 
ATOM     21  C   UNL     1      15.720   7.939  21.782  0.00  0.00    +0.013 A 
ATOM     22  C   UNL     1      15.346   6.542  19.846  0.00  0.00    +0.013 A 
ATOM     23  C   UNL     1      14.377   8.317  21.768  0.00  0.00    +0.046 A 
ATOM     24  C   UNL     1      14.003   6.920  19.834  0.00  0.00    +0.046 A 
ATOM     25  C   UNL     1      13.519   7.807  20.794  0.00  0.00    +0.130 A 
BRANCH  25   7
ATOM      7  O   UNL     1      12.210   8.178  20.779  0.00  0.00    -0.406 OA
BRANCH   7  27
ATOM      1  F   UNL     1      11.267   8.263  22.861  0.00  0.00    -0.133 F 
ATOM      2  F   UNL     1      10.081   7.538  21.174  0.00  0.00    -0.133 F 
ATOM      3  F   UNL     1      11.693   6.289  21.961  0.00  0.00    -0.133 F 
ATOM     27  C   UNL     1      11.324   7.564  21.708  0.00  0.00    +0.575 C 
ENDBRANCH   7  27
ENDBRANCH  25   7
ENDBRANCH  17  20
TORSDOF 6
ENDMDL
MODEL 7
REMARK VINA RESULT:      -6.1     18.453     21.163
REMARK  Name = 71694324
REMARK  7 active torsions:
REMARK  status: ('A' for Active; 'I' for Inactive)
REMARK    1  A    between atoms: O_6  and  C_18
REMARK    2  A    between atoms: O_6  and  C_26
REMARK    3  A    between atoms: O_7  and  C_25
REMARK    4  A    between atoms: O_7  and  C_27
REMARK    5  A    between atoms: C_11  and  C_14
REMARK    6  A    between atoms: C_16  and  C_18
REMARK    7  A    between atoms: C_17  and  C_20
REMARK                            x       y       z     vdW  Elec       q    Type
REMARK                         _______ _______ _______ _____ _____    ______ ____
ROOT
ATOM      9  N   UNL     1       9.103   8.032   4.132  0.00  0.00    -0.340 N 
ATOM     10  N   UNL     1       9.470   8.827   6.172  0.00  0.00    -0.238 NA
ATOM     14  C   UNL     1       9.831   7.927   5.284  0.00  0.00    +0.130 A 
ATOM     17  C   UNL     1       8.222   9.063   4.296  0.00  0.00    +0.066 A 
ATOM     19  C   UNL     1       8.467   9.538   5.563  0.00  0.00    +0.139 A 
ATOM     28  H   UNL     1       9.199   7.441   3.316  0.00  0.00    +0.167 HD
ENDROOT
BRANCH  14  11
ATOM      4  O   UNL     1      10.921   5.597   3.333  0.00  0.00    -0.376 OA
ATOM      5  O   UNL     1      10.965   6.420   8.243  0.00  0.00    -0.273 OA
ATOM      8  N   UNL     1      10.402   5.659   6.118  0.00  0.00    -0.285 N 
ATOM     11  C   UNL     1      10.916   6.869   5.445  0.00  0.00    +0.168 C 
ATOM     12  C   UNL     1      11.661   6.507   4.147  0.00  0.00    +0.190 C 
ATOM     13  C   UNL     1       9.776   4.658   5.244  0.00  0.00    +0.136 C 
ATOM     15  C   UNL     1      10.650   4.383   4.030  0.00  0.00    +0.179 C 
ATOM     16  C   UNL     1      10.438   5.577   7.513  0.00  0.00    +0.242 C 
BRANCH  16  18
ATOM     18  C   UNL     1       9.786   4.368   8.137  0.00  0.00    +0.255 C 
BRANCH  18   6
ATOM      6  O   UNL     1      10.061   4.430   9.516  0.00  0.00    -0.374 OA
ATOM     26  C   UNL     1       8.874   4.582  10.291  0.00  0.00    +0.194 C 
ENDBRANCH  18   6
ENDBRANCH  16  18
ENDBRANCH  14  11
BRANCH  17  20
ATOM     20  C   UNL     1       7.284   9.472   3.284  0.00  0.00    +0.000 A 
ATOM     21  C   UNL     1       7.617   9.350   1.934  0.00  0.00    +0.013 A 
ATOM     22  C   UNL     1       6.043   9.991   3.651  0.00  0.00    +0.013 A 
ATOM     23  C   UNL     1       6.708   9.746   0.953  0.00  0.00    +0.046 A 
ATOM     24  C   UNL     1       5.135  10.388   2.670  0.00  0.00    +0.046 A 
ATOM     25  C   UNL     1       5.467  10.266   1.321  0.00  0.00    +0.130 A 
BRANCH  25   7
ATOM      7  O   UNL     1       4.579  10.650   0.364  0.00  0.00    -0.406 OA
BRANCH   7  27
ATOM      1  F   UNL     1       4.128   8.417   0.166  0.00  0.00    -0.133 F 
ATOM      2  F   UNL     1       2.481   9.852   0.122  0.00  0.00    -0.133 F 
ATOM      3  F   UNL     1       3.833   9.725  -1.590  0.00  0.00    -0.133 F 
ATOM     27  C   UNL     1       3.768   9.651  -0.243  0.00  0.00    +0.575 C 
ENDBRANCH   7  27
ENDBRANCH  25   7
ENDBRANCH  17  20
TORSDOF 6
ENDMDL
MODEL 8
REMARK VINA RESULT:      -6.1     18.027     20.001
REMARK  Name = 71694324
REMARK  7 active torsions:
REMARK  status: ('A' for Active; 'I' for Inactive)
REMARK    1  A    between atoms: O_6  and  C_18
REMARK    2  A    between atoms: O_6  and  C_26
REMARK    3  A    between atoms: O_7  and  C_25
REMARK    4  A    between atoms: O_7  and  C_27
REMARK    5  A    between atoms: C_11  and  C_14
REMARK    6  A    between atoms: C_16  and  C_18
REMARK    7  A    between atoms: C_17  and  C_20
REMARK                            x       y       z     vdW  Elec       q    Type
REMARK                         _______ _______ _______ _____ _____    ______ ____
ROOT
ATOM      9  N   UNL     1      11.559   6.011   3.248  0.00  0.00    -0.340 N 
ATOM     10  N   UNL     1      10.402   4.816   4.719  0.00  0.00    -0.238 NA
ATOM     14  C   UNL     1      10.997   5.966   4.494  0.00  0.00    +0.130 A 
ATOM     17  C   UNL     1      11.306   4.813   2.642  0.00  0.00    +0.066 A 
ATOM     19  C   UNL     1      10.591   4.092   3.569  0.00  0.00    +0.139 A 
ATOM     28  H   UNL     1      12.075   6.790   2.860  0.00  0.00    +0.167 HD
ENDROOT
BRANCH  14  11
ATOM      4  O   UNL     1      13.484   7.731   5.556  0.00  0.00    -0.376 OA
ATOM      5  O   UNL     1       8.880   6.752   7.180  0.00  0.00    -0.273 OA
ATOM      8  N   UNL     1      11.184   6.708   6.856  0.00  0.00    -0.285 N 
ATOM     11  C   UNL     1      11.091   7.150   5.450  0.00  0.00    +0.168 C 
ATOM     12  C   UNL     1      12.198   8.165   5.114  0.00  0.00    +0.190 C 
ATOM     13  C   UNL     1      12.537   6.409   7.344  0.00  0.00    +0.136 C 
ATOM     15  C   UNL     1      13.503   7.522   6.967  0.00  0.00    +0.179 C 
ATOM     16  C   UNL     1      10.015   6.500   7.594  0.00  0.00    +0.242 C 
BRANCH  16  18
ATOM     18  C   UNL     1      10.182   5.933   8.982  0.00  0.00    +0.255 C 
BRANCH  18   6
ATOM      6  O   UNL     1       9.460   4.725   9.013  0.00  0.00    -0.374 OA
ATOM     26  C   UNL     1       8.878   4.483  10.292  0.00  0.00    +0.194 C 
ENDBRANCH  18   6
ENDBRANCH  16  18
ENDBRANCH  14  11
BRANCH  17  20
ATOM     20  C   UNL     1      11.745   4.492   1.310  0.00  0.00    +0.000 A 
ATOM     21  C   UNL     1      11.043   4.980   0.207  0.00  0.00    +0.013 A 
ATOM     22  C   UNL     1      12.873   3.693   1.120  0.00  0.00    +0.013 A 
ATOM     23  C   UNL     1      11.470   4.668  -1.085  0.00  0.00    +0.046 A 
ATOM     24  C   UNL     1      13.299   3.382  -0.171  0.00  0.00    +0.046 A 
ATOM     25  C   UNL     1      12.597   3.869  -1.273  0.00  0.00    +0.130 A 
BRANCH  25   7
ATOM      7  O   UNL     1      13.015   3.567  -2.533  0.00  0.00    -0.406 OA
BRANCH   7  27
ATOM      1  F   UNL     1      11.974   1.531  -2.481  0.00  0.00    -0.133 F 
ATOM      2  F   UNL     1      11.143   3.131  -3.717  0.00  0.00    -0.133 F 
ATOM      3  F   UNL     1      13.000   2.159  -4.335  0.00  0.00    -0.133 F 
ATOM     27  C   UNL     1      12.294   2.583  -3.264  0.00  0.00    +0.575 C 
ENDBRANCH   7  27
ENDBRANCH  25   7
ENDBRANCH  17  20
TORSDOF 6
ENDMDL
MODEL 9
REMARK VINA RESULT:      -6.1     18.217     20.224
REMARK  Name = 71694324
REMARK  7 active torsions:
REMARK  status: ('A' for Active; 'I' for Inactive)
REMARK    1  A    between atoms: O_6  and  C_18
REMARK    2  A    between atoms: O_6  and  C_26
REMARK    3  A    between atoms: O_7  and  C_25
REMARK    4  A    between atoms: O_7  and  C_27
REMARK    5  A    between atoms: C_11  and  C_14
REMARK    6  A    between atoms: C_16  and  C_18
REMARK    7  A    between atoms: C_17  and  C_20
REMARK                            x       y       z     vdW  Elec       q    Type
REMARK                         _______ _______ _______ _____ _____    ______ ____
ROOT
ATOM      9  N   UNL     1      11.402   5.708   3.963  0.00  0.00    -0.340 N 
ATOM     10  N   UNL     1      10.099   4.539   5.328  0.00  0.00    -0.238 NA
ATOM     14  C   UNL     1      10.811   5.635   5.193  0.00  0.00    +0.130 A 
ATOM     17  C   UNL     1      11.045   4.586   3.270  0.00  0.00    +0.066 A 
ATOM     19  C   UNL     1      10.240   3.879   4.133  0.00  0.00    +0.139 A 
ATOM     28  H   UNL     1      12.002   6.455   3.639  0.00  0.00    +0.167 HD
ENDROOT
BRANCH  14  11
ATOM      4  O   UNL     1       9.696   6.024   8.199  0.00  0.00    -0.376 OA
ATOM      5  O   UNL     1      11.443   9.043   4.646  0.00  0.00    -0.273 OA
ATOM      8  N   UNL     1      10.031   7.833   6.045  0.00  0.00    -0.285 N 
ATOM     11  C   UNL     1      11.001   6.735   6.232  0.00  0.00    +0.168 C 
ATOM     12  C   UNL     1      11.012   6.249   7.692  0.00  0.00    +0.190 C 
ATOM     13  C   UNL     1       8.729   7.656   6.701  0.00  0.00    +0.136 C 
ATOM     15  C   UNL     1       8.911   7.213   8.145  0.00  0.00    +0.179 C 
ATOM     16  C   UNL     1      10.348   8.898   5.196  0.00  0.00    +0.242 C 
BRANCH  16  18
ATOM     18  C   UNL     1       9.265   9.920   4.958  0.00  0.00    +0.255 C 
BRANCH  18   6
ATOM      6  O   UNL     1       8.959   9.869   3.585  0.00  0.00    -0.374 OA
ATOM     26  C   UNL     1       7.757   9.144   3.332  0.00  0.00    +0.194 C 
ENDBRANCH  18   6
ENDBRANCH  16  18
ENDBRANCH  14  11
BRANCH  17  20
ATOM     20  C   UNL     1      11.480   4.313   1.926  0.00  0.00    +0.000 A 
ATOM     21  C   UNL     1      10.697   4.718   0.843  0.00  0.00    +0.013 A 
ATOM     22  C   UNL     1      12.685   3.646   1.704  0.00  0.00    +0.013 A 
ATOM     23  C   UNL     1      11.119   4.454  -0.460  0.00  0.00    +0.046 A 
ATOM     24  C   UNL     1      13.106   3.382   0.400  0.00  0.00    +0.046 A 
ATOM     25  C   UNL     1      12.324   3.785  -0.681  0.00  0.00    +0.130 A 
BRANCH  25   7
ATOM      7  O   UNL     1      12.737   3.530  -1.952  0.00  0.00    -0.406 OA
BRANCH   7  27
ATOM      1  F   UNL     1      12.118   1.330  -1.855  0.00  0.00    -0.133 F 
ATOM      2  F   UNL     1      10.889   2.743  -2.982  0.00  0.00    -0.133 F 
ATOM      3  F   UNL     1      12.838   2.153  -3.776  0.00  0.00    -0.133 F 
ATOM     27  C   UNL     1      12.159   2.427  -2.641  0.00  0.00    +0.575 C 
ENDBRANCH   7  27
ENDBRANCH  25   7
ENDBRANCH  17  20
TORSDOF 6
ENDMDL
MODEL 10
REMARK VINA RESULT:      -6.0     28.422     30.307
REMARK  Name = 71694324
REMARK  7 active torsions:
REMARK  status: ('A' for Active; 'I' for Inactive)
REMARK    1  A    between atoms: O_6  and  C_18
REMARK    2  A    between atoms: O_6  and  C_26
REMARK    3  A    between atoms: O_7  and  C_25
REMARK    4  A    between atoms: O_7  and  C_27
REMARK    5  A    between atoms: C_11  and  C_14
REMARK    6  A    between atoms: C_16  and  C_18
REMARK    7  A    between atoms: C_17  and  C_20
REMARK                            x       y       z     vdW  Elec       q    Type
REMARK                         _______ _______ _______ _____ _____    ______ ____
ROOT
ATOM      9  N   UNL     1     -11.267   9.094  18.230  0.00  0.00    -0.340 N 
ATOM     10  N   UNL     1     -10.927  11.162  18.963  0.00  0.00    -0.238 NA
ATOM     14  C   UNL     1     -10.740  10.328  17.965  0.00  0.00    +0.130 A 
ATOM     17  C   UNL     1     -11.823   9.145  19.476  0.00  0.00    +0.066 A 
ATOM     19  C   UNL     1     -11.601  10.432  19.909  0.00  0.00    +0.139 A 
ATOM     28  H   UNL     1     -11.235   8.293  17.613  0.00  0.00    +0.167 HD
ENDROOT
BRANCH  14  11
ATOM      4  O   UNL     1     -10.176  13.068  16.353  0.00  0.00    -0.376 OA
ATOM      5  O   UNL     1     -10.427   8.240  15.162  0.00  0.00    -0.273 OA
ATOM      8  N   UNL     1     -10.954  10.482  15.496  0.00  0.00    -0.285 N 
ATOM     11  C   UNL     1     -10.037  10.624  16.645  0.00  0.00    +0.168 C 
ATOM     12  C   UNL     1      -9.295  11.972  16.598  0.00  0.00    +0.190 C 
ATOM     13  C   UNL     1     -11.747  11.671  15.159  0.00  0.00    +0.136 C 
ATOM     15  C   UNL     1     -10.865  12.910  15.114  0.00  0.00    +0.179 C 
ATOM     16  C   UNL     1     -11.096   9.237  14.876  0.00  0.00    +0.242 C 
BRANCH  16  18
ATOM     18  C   UNL     1     -12.137   9.137  13.789  0.00  0.00    +0.255 C 
BRANCH  18   6
ATOM      6  O   UNL     1     -13.280   8.566  14.379  0.00  0.00    -0.374 OA
ATOM     26  C   UNL     1     -13.660   7.348  13.742  0.00  0.00    +0.194 C 
ENDBRANCH  18   6
ENDBRANCH  16  18
ENDBRANCH  14  11
BRANCH  17  20
ATOM     20  C   UNL     1     -12.478   8.025  20.098  0.00  0.00    +0.000 A 
ATOM     21  C   UNL     1     -11.730   7.091  20.817  0.00  0.00    +0.013 A 
ATOM     22  C   UNL     1     -13.860   7.871  19.983  0.00  0.00    +0.013 A 
ATOM     23  C   UNL     1     -12.365   6.005  21.421  0.00  0.00    +0.046 A 
ATOM     24  C   UNL     1     -14.494   6.785  20.586  0.00  0.00    +0.046 A 
ATOM     25  C   UNL     1     -13.747   5.852  21.304  0.00  0.00    +0.130 A 
BRANCH  25   7
ATOM      7  O   UNL     1     -14.367   4.794  21.895  0.00  0.00    -0.406 OA
BRANCH   7  27
ATOM      1  F   UNL     1     -14.984   6.062  23.697  0.00  0.00    -0.133 F 
ATOM      2  F   UNL     1     -15.550   3.952  23.624  0.00  0.00    -0.133 F 
ATOM      3  F   UNL     1     -13.459   4.486  23.972  0.00  0.00    -0.133 F 
ATOM     27  C   UNL     1     -14.578   4.836  23.302  0.00  0.00    +0.575 C 
ENDBRANCH   7  27
ENDBRANCH  25   7
ENDBRANCH  17  20
TORSDOF 6
ENDMDL
