MODEL 1
REMARK VINA RESULT:      -5.8      0.000      0.000
REMARK  Name = 86769013
REMARK  6 active torsions:
REMARK  status: ('A' for Active; 'I' for Inactive)
REMARK    1  A    between atoms: O_3  and  C_18
REMARK    2  A    between atoms: O_3  and  C_22
REMARK    3  A    between atoms: N_5  and  C_15
REMARK    4  A    between atoms: N_7  and  C_20
REMARK    5  A    between atoms: C_15  and  C_17
REMARK    6  A    between atoms: C_16  and  C_18
REMARK                            x       y       z     vdW  Elec       q    Type
REMARK                         _______ _______ _______ _____ _____    ______ ____
ROOT
ATOM      1  O   UNL     1      10.972   7.063  20.446  0.00  0.00    -0.252 OA
ATOM      2  O   UNL     1      11.653  11.877  25.427  0.00  0.00    -0.273 OA
ATOM      4  N   UNL     1      11.936   8.778  21.732  0.00  0.00    -0.278 N 
ATOM      5  N   UNL     1      12.900   8.243  19.773  0.00  0.00    -0.276 N 
ATOM      6  N   UNL     1      12.019  11.093  23.272  0.00  0.00    -0.296 N 
ATOM      9  C   UNL     1      13.138   9.593  21.680  0.00  0.00    +0.112 C 
ATOM     10  C   UNL     1      13.662   9.380  20.262  0.00  0.00    +0.134 C 
ATOM     11  C   UNL     1      12.813  11.043  22.030  0.00  0.00    +0.132 C 
ATOM     12  C   UNL     1      11.069   8.845  22.893  0.00  0.00    +0.128 C 
ATOM     13  C   UNL     1      10.780  10.303  23.242  0.00  0.00    +0.127 C 
ATOM     14  C   UNL     1      11.830   7.918  20.630  0.00  0.00    +0.306 C 
ATOM     16  C   UNL     1      12.346  11.832  24.408  0.00  0.00    +0.241 C 
ENDROOT
BRANCH   5  15
ATOM     15  C   UNL     1      13.165   7.641  18.485  0.00  0.00    +0.183 C 
BRANCH  15  17
ATOM      7  N   UNL     1      12.857   9.164  16.512  0.00  0.00    -0.336 N 
ATOM      8  N   UNL     1      11.066   8.024  17.161  0.00  0.00    -0.239 NA
ATOM     17  C   UNL     1      12.338   8.260  17.395  0.00  0.00    +0.127 A 
ATOM     19  C   UNL     1      11.852   9.528  15.659  0.00  0.00    +0.106 A 
ATOM     20  C   UNL     1      14.214   9.656  16.470  0.00  0.00    +0.150 C 
ATOM     21  C   UNL     1      10.757   8.812  16.081  0.00  0.00    +0.130 A 
ENDBRANCH  15  17
ENDBRANCH   5  15
BRANCH  16  18
ATOM     18  C   UNL     1      13.636  12.612  24.357  0.00  0.00    +0.255 C 
BRANCH  18   3
ATOM      3  O   UNL     1      14.604  11.831  25.014  0.00  0.00    -0.374 OA
ATOM     22  C   UNL     1      15.924  12.335  24.816  0.00  0.00    +0.194 C 
ENDBRANCH  18   3
ENDBRANCH  16  18
TORSDOF 4
ENDMDL
MODEL 2
REMARK VINA RESULT:      -5.5     13.605     17.703
REMARK  Name = 86769013
REMARK  6 active torsions:
REMARK  status: ('A' for Active; 'I' for Inactive)
REMARK    1  A    between atoms: O_3  and  C_18
REMARK    2  A    between atoms: O_3  and  C_22
REMARK    3  A    between atoms: N_5  and  C_15
REMARK    4  A    between atoms: N_7  and  C_20
REMARK    5  A    between atoms: C_15  and  C_17
REMARK    6  A    between atoms: C_16  and  C_18
REMARK                            x       y       z     vdW  Elec       q    Type
REMARK                         _______ _______ _______ _____ _____    ______ ____
ROOT
ATOM      1  O   UNL     1       9.829   6.954   1.114  0.00  0.00    -0.252 OA
ATOM      2  O   UNL     1       8.515   7.651   7.913  0.00  0.00    -0.273 OA
ATOM      4  N   UNL     1       9.654   6.394   3.390  0.00  0.00    -0.278 N 
ATOM      5  N   UNL     1      10.786   5.004   2.034  0.00  0.00    -0.276 N 
ATOM      6  N   UNL     1       9.743   6.786   6.142  0.00  0.00    -0.296 N 
ATOM      9  C   UNL     1      10.002   5.263   4.232  0.00  0.00    +0.112 C 
ATOM     10  C   UNL     1      10.946   4.437   3.362  0.00  0.00    +0.134 C 
ATOM     11  C   UNL     1      10.604   5.745   5.549  0.00  0.00    +0.132 C 
ATOM     12  C   UNL     1       8.879   7.491   3.939  0.00  0.00    +0.128 C 
ATOM     13  C   UNL     1       9.481   7.939   5.268  0.00  0.00    +0.127 C 
ATOM     14  C   UNL     1      10.058   6.210   2.059  0.00  0.00    +0.306 C 
ATOM     16  C   UNL     1       9.212   6.756   7.431  0.00  0.00    +0.241 C 
ENDROOT
BRANCH   5  15
ATOM     15  C   UNL     1      11.438   4.434   0.875  0.00  0.00    +0.183 C 
BRANCH  15  17
ATOM      7  N   UNL     1      13.812   5.252   0.883  0.00  0.00    -0.336 N 
ATOM      8  N   UNL     1      13.499   3.141   1.498  0.00  0.00    -0.239 NA
ATOM     17  C   UNL     1      12.911   4.246   1.095  0.00  0.00    +0.127 A 
ATOM     19  C   UNL     1      15.054   4.757   1.171  0.00  0.00    +0.106 A 
ATOM     20  C   UNL     1      13.525   6.595   0.439  0.00  0.00    +0.150 C 
ATOM     21  C   UNL     1      14.834   3.453   1.548  0.00  0.00    +0.130 A 
ENDBRANCH  15  17
ENDBRANCH   5  15
BRANCH  16  18
ATOM     18  C   UNL     1       9.527   5.536   8.260  0.00  0.00    +0.255 C 
BRANCH  18   3
ATOM      3  O   UNL     1       8.908   5.729   9.509  0.00  0.00    -0.374 OA
ATOM     22  C   UNL     1       8.890   4.534  10.289  0.00  0.00    +0.194 C 
ENDBRANCH  18   3
ENDBRANCH  16  18
TORSDOF 4
ENDMDL
MODEL 3
REMARK VINA RESULT:      -5.3      3.292      6.318
REMARK  Name = 86769013
REMARK  6 active torsions:
REMARK  status: ('A' for Active; 'I' for Inactive)
REMARK    1  A    between atoms: O_3  and  C_18
REMARK    2  A    between atoms: O_3  and  C_22
REMARK    3  A    between atoms: N_5  and  C_15
REMARK    4  A    between atoms: N_7  and  C_20
REMARK    5  A    between atoms: C_15  and  C_17
REMARK    6  A    between atoms: C_16  and  C_18
REMARK                            x       y       z     vdW  Elec       q    Type
REMARK                         _______ _______ _______ _____ _____    ______ ____
ROOT
ATOM      1  O   UNL     1      10.669   8.710  20.287  0.00  0.00    -0.252 OA
ATOM      2  O   UNL     1      17.094   6.288  19.147  0.00  0.00    -0.273 OA
ATOM      4  N   UNL     1      13.001   8.486  20.472  0.00  0.00    -0.278 N 
ATOM      5  N   UNL     1      11.924   9.727  22.006  0.00  0.00    -0.276 N 
ATOM      6  N   UNL     1      15.457   7.180  20.531  0.00  0.00    -0.296 N 
ATOM      9  C   UNL     1      14.057   9.049  21.296  0.00  0.00    +0.112 C 
ATOM     10  C   UNL     1      13.307   9.707  22.451  0.00  0.00    +0.134 C 
ATOM     11  C   UNL     1      15.045   7.962  21.712  0.00  0.00    +0.132 C 
ATOM     12  C   UNL     1      13.341   7.640  19.343  0.00  0.00    +0.128 C 
ATOM     13  C   UNL     1      14.349   6.578  19.775  0.00  0.00    +0.127 C 
ATOM     14  C   UNL     1      11.732   8.947  20.848  0.00  0.00    +0.306 C 
ATOM     16  C   UNL     1      16.773   6.967  20.125  0.00  0.00    +0.241 C 
ENDROOT
BRANCH   5  15
ATOM     15  C   UNL     1      10.882  10.371  22.775  0.00  0.00    +0.183 C 
BRANCH  15  17
ATOM      7  N   UNL     1      11.014  12.620  23.883  0.00  0.00    -0.336 N 
ATOM      8  N   UNL     1      11.108  12.612  21.665  0.00  0.00    -0.239 NA
ATOM     17  C   UNL     1      11.003  11.867  22.743  0.00  0.00    +0.127 A 
ATOM     19  C   UNL     1      11.135  13.929  23.509  0.00  0.00    +0.106 A 
ATOM     20  C   UNL     1      10.918  12.140  25.242  0.00  0.00    +0.150 C 
ATOM     21  C   UNL     1      11.190  13.898  22.135  0.00  0.00    +0.130 A 
ENDBRANCH  15  17
ENDBRANCH   5  15
BRANCH  16  18
ATOM     18  C   UNL     1      17.849   7.623  20.954  0.00  0.00    +0.255 C 
BRANCH  18   3
ATOM      3  O   UNL     1      18.555   6.585  21.589  0.00  0.00    -0.374 OA
ATOM     22  C   UNL     1      19.940   6.894  21.741  0.00  0.00    +0.194 C 
ENDBRANCH  18   3
ENDBRANCH  16  18
TORSDOF 4
ENDMDL
MODEL 4
REMARK VINA RESULT:      -5.2      2.358      6.934
REMARK  Name = 86769013
REMARK  6 active torsions:
REMARK  status: ('A' for Active; 'I' for Inactive)
REMARK    1  A    between atoms: O_3  and  C_18
REMARK    2  A    between atoms: O_3  and  C_22
REMARK    3  A    between atoms: N_5  and  C_15
REMARK    4  A    between atoms: N_7  and  C_20
REMARK    5  A    between atoms: C_15  and  C_17
REMARK    6  A    between atoms: C_16  and  C_18
REMARK                            x       y       z     vdW  Elec       q    Type
REMARK                         _______ _______ _______ _____ _____    ______ ____
ROOT
ATOM      1  O   UNL     1      10.552   8.002  22.752  0.00  0.00    -0.252 OA
ATOM      2  O   UNL     1      13.975   7.639  16.702  0.00  0.00    -0.273 OA
ATOM      4  N   UNL     1      11.665   8.711  20.808  0.00  0.00    -0.278 N 
ATOM      5  N   UNL     1      11.263  10.226  22.420  0.00  0.00    -0.276 N 
ATOM      6  N   UNL     1      13.538   8.639  18.752  0.00  0.00    -0.296 N 
ATOM      9  C   UNL     1      12.115   9.973  20.246  0.00  0.00    +0.112 C 
ATOM     10  C   UNL     1      12.035  10.945  21.421  0.00  0.00    +0.134 C 
ATOM     11  C   UNL     1      13.506   9.819  19.637  0.00  0.00    +0.132 C 
ATOM     12  C   UNL     1      11.748   7.499  20.016  0.00  0.00    +0.128 C 
ATOM     13  C   UNL     1      13.137   7.378  19.394  0.00  0.00    +0.127 C 
ATOM     14  C   UNL     1      11.089   8.870  22.076  0.00  0.00    +0.306 C 
ATOM     16  C   UNL     1      13.933   8.644  17.415  0.00  0.00    +0.241 C 
ENDROOT
BRANCH   5  15
ATOM     15  C   UNL     1      10.864  10.840  23.667  0.00  0.00    +0.183 C 
BRANCH  15  17
ATOM      7  N   UNL     1      11.516  13.247  23.965  0.00  0.00    -0.336 N 
ATOM      8  N   UNL     1      13.010  11.739  24.612  0.00  0.00    -0.239 NA
ATOM     17  C   UNL     1      11.817  11.921  24.091  0.00  0.00    +0.127 A 
ATOM     19  C   UNL     1      12.584  13.958  24.436  0.00  0.00    +0.106 A 
ATOM     20  C   UNL     1      10.298  13.814  23.434  0.00  0.00    +0.150 C 
ATOM     21  C   UNL     1      13.494  13.004  24.830  0.00  0.00    +0.130 A 
ENDBRANCH  15  17
ENDBRANCH   5  15
BRANCH  16  18
ATOM     18  C   UNL     1      14.325   9.979  16.833  0.00  0.00    +0.255 C 
BRANCH  18   3
ATOM      3  O   UNL     1      13.648  10.097  15.606  0.00  0.00    -0.374 OA
ATOM     22  C   UNL     1      13.946  11.326  14.945  0.00  0.00    +0.194 C 
ENDBRANCH  18   3
ENDBRANCH  16  18
TORSDOF 4
ENDMDL
MODEL 5
REMARK VINA RESULT:      -5.1     26.456     27.984
REMARK  Name = 86769013
REMARK  6 active torsions:
REMARK  status: ('A' for Active; 'I' for Inactive)
REMARK    1  A    between atoms: O_3  and  C_18
REMARK    2  A    between atoms: O_3  and  C_22
REMARK    3  A    between atoms: N_5  and  C_15
REMARK    4  A    between atoms: N_7  and  C_20
REMARK    5  A    between atoms: C_15  and  C_17
REMARK    6  A    between atoms: C_16  and  C_18
REMARK                            x       y       z     vdW  Elec       q    Type
REMARK                         _______ _______ _______ _____ _____    ______ ____
ROOT
ATOM      1  O   UNL     1      -4.034 -11.719  18.799  0.00  0.00    -0.252 OA
ATOM      2  O   UNL     1     -10.501  -9.192  18.316  0.00  0.00    -0.273 OA
ATOM      4  N   UNL     1      -5.858 -10.484  17.981  0.00  0.00    -0.278 N 
ATOM      5  N   UNL     1      -4.025 -10.659  16.692  0.00  0.00    -0.276 N 
ATOM      6  N   UNL     1      -8.515  -9.931  17.368  0.00  0.00    -0.296 N 
ATOM      9  C   UNL     1      -6.135  -9.637  16.833  0.00  0.00    +0.112 C 
ATOM     10  C   UNL     1      -4.984  -9.935  15.876  0.00  0.00    +0.134 C 
ATOM     11  C   UNL     1      -7.524  -9.935  16.275  0.00  0.00    +0.132 C 
ATOM     12  C   UNL     1      -6.831 -10.587  19.052  0.00  0.00    +0.128 C 
ATOM     13  C   UNL     1      -8.217 -10.857  18.471  0.00  0.00    +0.127 C 
ATOM     14  C   UNL     1      -4.570 -11.037  17.935  0.00  0.00    +0.306 C 
ATOM     16  C   UNL     1      -9.675  -9.159  17.402  0.00  0.00    +0.241 C 
ENDROOT
BRANCH   5  15
ATOM     15  C   UNL     1      -2.725 -11.044  16.187  0.00  0.00    +0.183 C 
BRANCH  15  17
ATOM      7  N   UNL     1      -3.210 -12.321  14.080  0.00  0.00    -0.336 N 
ATOM      8  N   UNL     1      -2.283 -10.321  13.822  0.00  0.00    -0.239 NA
ATOM     17  C   UNL     1      -2.727 -11.200  14.693  0.00  0.00    +0.127 A 
ATOM     19  C   UNL     1      -3.067 -12.146  12.732  0.00  0.00    +0.106 A 
ATOM     20  C   UNL     1      -3.773 -13.487  14.720  0.00  0.00    +0.150 C 
ATOM     21  C   UNL     1      -2.492 -10.904  12.598  0.00  0.00    +0.130 A 
ENDBRANCH  15  17
ENDBRANCH   5  15
BRANCH  16  18
ATOM     18  C   UNL     1      -9.903  -8.234  16.233  0.00  0.00    +0.255 C 
BRANCH  18   3
ATOM      3  O   UNL     1     -10.530  -7.084  16.747  0.00  0.00    -0.374 OA
ATOM     22  C   UNL     1     -10.835  -6.138  15.724  0.00  0.00    +0.194 C 
ENDBRANCH  18   3
ENDBRANCH  16  18
TORSDOF 4
ENDMDL
MODEL 6
REMARK VINA RESULT:      -5.1     26.511     27.981
REMARK  Name = 86769013
REMARK  6 active torsions:
REMARK  status: ('A' for Active; 'I' for Inactive)
REMARK    1  A    between atoms: O_3  and  C_18
REMARK    2  A    between atoms: O_3  and  C_22
REMARK    3  A    between atoms: N_5  and  C_15
REMARK    4  A    between atoms: N_7  and  C_20
REMARK    5  A    between atoms: C_15  and  C_17
REMARK    6  A    between atoms: C_16  and  C_18
REMARK                            x       y       z     vdW  Elec       q    Type
REMARK                         _______ _______ _______ _____ _____    ______ ____
ROOT
ATOM      1  O   UNL     1      -2.071 -11.644  14.891  0.00  0.00    -0.252 OA
ATOM      2  O   UNL     1      -6.290 -10.709  20.347  0.00  0.00    -0.273 OA
ATOM      4  N   UNL     1      -4.050 -11.280  16.105  0.00  0.00    -0.278 N 
ATOM      5  N   UNL     1      -4.217 -11.804  13.926  0.00  0.00    -0.276 N 
ATOM      6  N   UNL     1      -5.845 -11.518  18.217  0.00  0.00    -0.296 N 
ATOM      9  C   UNL     1      -5.469 -11.181  15.812  0.00  0.00    +0.112 C 
ATOM     10  C   UNL     1      -5.590 -11.744  14.398  0.00  0.00    +0.134 C 
ATOM     11  C   UNL     1      -6.284 -11.924  16.868  0.00  0.00    +0.132 C 
ATOM     12  C   UNL     1      -3.565 -10.973  17.438  0.00  0.00    +0.128 C 
ATOM     13  C   UNL     1      -4.410 -11.704  18.478  0.00  0.00    +0.127 C 
ATOM     14  C   UNL     1      -3.292 -11.580  14.964  0.00  0.00    +0.306 C 
ATOM     16  C   UNL     1      -6.676 -11.018  19.218  0.00  0.00    +0.241 C 
ENDROOT
BRANCH   5  15
ATOM     15  C   UNL     1      -3.890 -12.191  12.571  0.00  0.00    +0.183 C 
BRANCH  15  17
ATOM      7  N   UNL     1      -4.414 -10.330  10.968  0.00  0.00    -0.336 N 
ATOM      8  N   UNL     1      -2.297 -10.502  11.614  0.00  0.00    -0.239 NA
ATOM     17  C   UNL     1      -3.504 -11.010  11.727  0.00  0.00    +0.127 A 
ATOM     19  C   UNL     1      -3.745  -9.323  10.330  0.00  0.00    +0.106 A 
ATOM     20  C   UNL     1      -5.826 -10.608  10.849  0.00  0.00    +0.150 C 
ATOM     21  C   UNL     1      -2.440  -9.451  10.744  0.00  0.00    +0.130 A 
ENDBRANCH  15  17
ENDBRANCH   5  15
BRANCH  16  18
ATOM     18  C   UNL     1      -8.133 -10.856  18.866  0.00  0.00    +0.255 C 
BRANCH  18   3
ATOM      3  O   UNL     1      -8.856 -11.015  20.062  0.00  0.00    -0.374 OA
ATOM     22  C   UNL     1     -10.237 -10.692  19.901  0.00  0.00    +0.194 C 
ENDBRANCH  18   3
ENDBRANCH  16  18
TORSDOF 4
ENDMDL
MODEL 7
REMARK VINA RESULT:      -5.1     26.446     27.839
REMARK  Name = 86769013
REMARK  6 active torsions:
REMARK  status: ('A' for Active; 'I' for Inactive)
REMARK    1  A    between atoms: O_3  and  C_18
REMARK    2  A    between atoms: O_3  and  C_22
REMARK    3  A    between atoms: N_5  and  C_15
REMARK    4  A    between atoms: N_7  and  C_20
REMARK    5  A    between atoms: C_15  and  C_17
REMARK    6  A    between atoms: C_16  and  C_18
REMARK                            x       y       z     vdW  Elec       q    Type
REMARK                         _______ _______ _______ _____ _____    ______ ____
ROOT
ATOM      1  O   UNL     1      -1.712 -11.138  15.863  0.00  0.00    -0.252 OA
ATOM      2  O   UNL     1      -7.894 -10.702  19.033  0.00  0.00    -0.273 OA
ATOM      4  N   UNL     1      -3.996 -10.682  16.178  0.00  0.00    -0.278 N 
ATOM      5  N   UNL     1      -3.176 -10.624  14.086  0.00  0.00    -0.276 N 
ATOM      6  N   UNL     1      -6.576 -11.050  17.153  0.00  0.00    -0.296 N 
ATOM      9  C   UNL     1      -5.109 -10.230  15.360  0.00  0.00    +0.112 C 
ATOM     10  C   UNL     1      -4.603 -10.401  13.930  0.00  0.00    +0.134 C 
ATOM     11  C   UNL     1      -6.370 -11.023  15.693  0.00  0.00    +0.132 C 
ATOM     12  C   UNL     1      -4.161 -10.808  17.614  0.00  0.00    +0.128 C 
ATOM     13  C   UNL     1      -5.441 -11.580  17.924  0.00  0.00    +0.127 C 
ATOM     14  C   UNL     1      -2.821 -10.848  15.431  0.00  0.00    +0.306 C 
ATOM     16  C   UNL     1      -7.736 -10.647  17.811  0.00  0.00    +0.241 C 
ENDROOT
BRANCH   5  15
ATOM     15  C   UNL     1      -2.290 -10.733  12.948  0.00  0.00    +0.183 C 
BRANCH  15  17
ATOM      7  N   UNL     1      -3.337 -10.912  10.672  0.00  0.00    -0.336 N 
ATOM      8  N   UNL     1      -3.119 -12.809  11.804  0.00  0.00    -0.239 NA
ATOM     17  C   UNL     1      -2.911 -11.511  11.824  0.00  0.00    +0.127 A 
ATOM     19  C   UNL     1      -3.847 -11.889   9.865  0.00  0.00    +0.106 A 
ATOM     20  C   UNL     1      -3.267  -9.506  10.348  0.00  0.00    +0.150 C 
ATOM     21  C   UNL     1      -3.702 -13.051  10.586  0.00  0.00    +0.130 A 
ENDBRANCH  15  17
ENDBRANCH   5  15
BRANCH  16  18
ATOM     18  C   UNL     1      -8.850 -10.112  16.947  0.00  0.00    +0.255 C 
BRANCH  18   3
ATOM      3  O   UNL     1      -8.669  -8.719  16.874  0.00  0.00    -0.374 OA
ATOM     22  C   UNL     1      -9.833  -8.005  17.289  0.00  0.00    +0.194 C 
ENDBRANCH  18   3
ENDBRANCH  16  18
TORSDOF 4
ENDMDL
MODEL 8
REMARK VINA RESULT:      -5.0      1.491      2.259
REMARK  Name = 86769013
REMARK  6 active torsions:
REMARK  status: ('A' for Active; 'I' for Inactive)
REMARK    1  A    between atoms: O_3  and  C_18
REMARK    2  A    between atoms: O_3  and  C_22
REMARK    3  A    between atoms: N_5  and  C_15
REMARK    4  A    between atoms: N_7  and  C_20
REMARK    5  A    between atoms: C_15  and  C_17
REMARK    6  A    between atoms: C_16  and  C_18
REMARK                            x       y       z     vdW  Elec       q    Type
REMARK                         _______ _______ _______ _____ _____    ______ ____
ROOT
ATOM      1  O   UNL     1      12.147   6.904  18.511  0.00  0.00    -0.252 OA
ATOM      2  O   UNL     1      10.851  10.676  24.215  0.00  0.00    -0.273 OA
ATOM      4  N   UNL     1      12.408   8.554  20.164  0.00  0.00    -0.278 N 
ATOM      5  N   UNL     1      13.650   8.709  18.297  0.00  0.00    -0.276 N 
ATOM      6  N   UNL     1      11.624  10.456  22.037  0.00  0.00    -0.296 N 
ATOM      9  C   UNL     1      13.289   9.685  20.402  0.00  0.00    +0.112 C 
ATOM     10  C   UNL     1      13.969   9.908  19.054  0.00  0.00    +0.134 C 
ATOM     11  C   UNL     1      12.493  10.879  20.922  0.00  0.00    +0.132 C 
ATOM     12  C   UNL     1      11.471   8.140  21.192  0.00  0.00    +0.128 C 
ATOM     13  C   UNL     1      10.707   9.353  21.716  0.00  0.00    +0.127 C 
ATOM     14  C   UNL     1      12.671   7.925  18.939  0.00  0.00    +0.306 C 
ATOM     16  C   UNL     1      11.604  11.031  23.306  0.00  0.00    +0.241 C 
ENDROOT
BRANCH   5  15
ATOM     15  C   UNL     1      14.198   8.467  16.980  0.00  0.00    +0.183 C 
BRANCH  15  17
ATOM      7  N   UNL     1      12.921  10.009  15.465  0.00  0.00    -0.336 N 
ATOM      8  N   UNL     1      15.050  10.526  15.822  0.00  0.00    -0.239 NA
ATOM     17  C   UNL     1      14.086   9.675  16.095  0.00  0.00    +0.127 A 
ATOM     19  C   UNL     1      13.155  11.147  14.745  0.00  0.00    +0.106 A 
ATOM     20  C   UNL     1      11.662   9.304  15.536  0.00  0.00    +0.150 C 
ATOM     21  C   UNL     1      14.477  11.446  14.981  0.00  0.00    +0.130 A 
ENDBRANCH  15  17
ENDBRANCH   5  15
BRANCH  16  18
ATOM     18  C   UNL     1      12.579  12.155  23.553  0.00  0.00    +0.255 C 
BRANCH  18   3
ATOM      3  O   UNL     1      13.523  11.673  24.478  0.00  0.00    -0.374 OA
ATOM     22  C   UNL     1      14.734  11.263  23.845  0.00  0.00    +0.194 C 
ENDBRANCH  18   3
ENDBRANCH  16  18
TORSDOF 4
ENDMDL
MODEL 9
REMARK VINA RESULT:      -4.8     14.512     18.292
REMARK  Name = 86769013
REMARK  6 active torsions:
REMARK  status: ('A' for Active; 'I' for Inactive)
REMARK    1  A    between atoms: O_3  and  C_18
REMARK    2  A    between atoms: O_3  and  C_22
REMARK    3  A    between atoms: N_5  and  C_15
REMARK    4  A    between atoms: N_7  and  C_20
REMARK    5  A    between atoms: C_15  and  C_17
REMARK    6  A    between atoms: C_16  and  C_18
REMARK                            x       y       z     vdW  Elec       q    Type
REMARK                         _______ _______ _______ _____ _____    ______ ____
ROOT
ATOM      1  O   UNL     1      13.691   6.126   1.886  0.00  0.00    -0.252 OA
ATOM      2  O   UNL     1      10.829   8.786   7.646  0.00  0.00    -0.273 OA
ATOM      4  N   UNL     1      12.145   6.453   3.626  0.00  0.00    -0.278 N 
ATOM      5  N   UNL     1      11.925   4.628   2.332  0.00  0.00    -0.276 N 
ATOM      6  N   UNL     1      11.265   7.020   6.204  0.00  0.00    -0.296 N 
ATOM      9  C   UNL     1      10.919   5.824   4.085  0.00  0.00    +0.112 C 
ATOM     10  C   UNL     1      10.898   4.486   3.350  0.00  0.00    +0.134 C 
ATOM     11  C   UNL     1      10.914   5.717   5.608  0.00  0.00    +0.132 C 
ATOM     12  C   UNL     1      12.589   7.695   4.230  0.00  0.00    +0.128 C 
ATOM     13  C   UNL     1      12.549   7.576   5.752  0.00  0.00    +0.127 C 
ATOM     14  C   UNL     1      12.709   5.782   2.532  0.00  0.00    +0.306 C 
ATOM     16  C   UNL     1      10.501   7.709   7.144  0.00  0.00    +0.241 C 
ENDROOT
BRANCH   5  15
ATOM     15  C   UNL     1      12.161   3.607   1.336  0.00  0.00    +0.183 C 
BRANCH  15  17
ATOM      7  N   UNL     1      12.572   4.209  -1.068  0.00  0.00    -0.336 N 
ATOM      8  N   UNL     1      10.462   4.290  -0.384  0.00  0.00    -0.239 NA
ATOM     17  C   UNL     1      11.702   4.036  -0.029  0.00  0.00    +0.127 A 
ATOM     19  C   UNL     1      11.841   4.598  -2.155  0.00  0.00    +0.106 A 
ATOM     20  C   UNL     1      14.004   4.021  -1.041  0.00  0.00    +0.150 C 
ATOM     21  C   UNL     1      10.542   4.641  -1.707  0.00  0.00    +0.130 A 
ENDBRANCH  15  17
ENDBRANCH   5  15
BRANCH  16  18
ATOM     18  C   UNL     1       9.196   7.071   7.550  0.00  0.00    +0.255 C 
BRANCH  18   3
ATOM      3  O   UNL     1       8.178   7.971   7.185  0.00  0.00    -0.374 OA
ATOM     22  C   UNL     1       7.993   8.026   5.771  0.00  0.00    +0.194 C 
ENDBRANCH  18   3
ENDBRANCH  16  18
TORSDOF 4
ENDMDL
MODEL 10
REMARK VINA RESULT:      -4.6     24.602     26.343
REMARK  Name = 86769013
REMARK  6 active torsions:
REMARK  status: ('A' for Active; 'I' for Inactive)
REMARK    1  A    between atoms: O_3  and  C_18
REMARK    2  A    between atoms: O_3  and  C_22
REMARK    3  A    between atoms: N_5  and  C_15
REMARK    4  A    between atoms: N_7  and  C_20
REMARK    5  A    between atoms: C_15  and  C_17
REMARK    6  A    between atoms: C_16  and  C_18
REMARK                            x       y       z     vdW  Elec       q    Type
REMARK                         _______ _______ _______ _____ _____    ______ ____
ROOT
ATOM      1  O   UNL     1     -13.393  10.096  19.526  0.00  0.00    -0.252 OA
ATOM      2  O   UNL     1     -17.455   5.651  23.017  0.00  0.00    -0.273 OA
ATOM      4  N   UNL     1     -14.084   8.118  20.591  0.00  0.00    -0.278 N 
ATOM      5  N   UNL     1     -11.913   8.335  20.049  0.00  0.00    -0.276 N 
ATOM      6  N   UNL     1     -15.377   6.538  22.480  0.00  0.00    -0.296 N 
ATOM      9  C   UNL     1     -13.489   6.838  20.937  0.00  0.00    +0.112 C 
ATOM     10  C   UNL     1     -11.991   7.074  20.765  0.00  0.00    +0.134 C 
ATOM     11  C   UNL     1     -13.914   6.416  22.341  0.00  0.00    +0.132 C 
ATOM     12  C   UNL     1     -15.506   8.328  20.783  0.00  0.00    +0.128 C 
ATOM     13  C   UNL     1     -15.914   7.874  22.182  0.00  0.00    +0.127 C 
ATOM     14  C   UNL     1     -13.160   8.988  19.993  0.00  0.00    +0.306 C 
ATOM     16  C   UNL     1     -16.237   5.518  22.884  0.00  0.00    +0.241 C 
ENDROOT
BRANCH   5  15
ATOM     15  C   UNL     1     -10.653   8.877  19.589  0.00  0.00    +0.183 C 
BRANCH  15  17
ATOM      7  N   UNL     1     -10.387  10.104  17.414  0.00  0.00    -0.336 N 
ATOM      8  N   UNL     1     -10.686   7.909  17.272  0.00  0.00    -0.239 NA
ATOM     17  C   UNL     1     -10.579   8.933  18.090  0.00  0.00    +0.127 A 
ATOM     19  C   UNL     1     -10.369   9.810  16.079  0.00  0.00    +0.106 A 
ATOM     20  C   UNL     1     -10.229  11.421  17.986  0.00  0.00    +0.150 C 
ATOM     21  C   UNL     1     -10.556   8.449  16.017  0.00  0.00    +0.130 A 
ENDBRANCH  15  17
ENDBRANCH   5  15
BRANCH  16  18
ATOM     18  C   UNL     1     -15.605   4.177  23.167  0.00  0.00    +0.255 C 
BRANCH  18   3
ATOM      3  O   UNL     1     -15.546   4.048  24.566  0.00  0.00    -0.374 OA
ATOM     22  C   UNL     1     -16.041   2.785  25.009  0.00  0.00    +0.194 C 
ENDBRANCH  18   3
ENDBRANCH  16  18
TORSDOF 4
ENDMDL
