MODEL 1
REMARK VINA RESULT:      -6.3      0.000      0.000
REMARK  Name = 45361687
REMARK  11 active torsions:
REMARK  status: ('A' for Active; 'I' for Inactive)
REMARK    1  A    between atoms: O_4  and  C_16
REMARK    2  A    between atoms: O_5  and  C_21
REMARK    3  A    between atoms: N_9  and  C_27
REMARK    4  A    between atoms: N_9  and  C_28
REMARK    5  A    between atoms: C_11  and  C_19
REMARK    6  A    between atoms: C_13  and  C_21
REMARK    7  A    between atoms: C_13  and  C_22
REMARK    8  A    between atoms: C_14  and  C_24
REMARK    9  A    between atoms: C_24  and  C_25
REMARK   10  A    between atoms: C_27  and  C_30
REMARK   11  A    between atoms: C_29  and  C_31
REMARK                            x       y       z     vdW  Elec       q    Type
REMARK                         _______ _______ _______ _____ _____    ______ ____
ROOT
ATOM      1  S   UNL     1      17.945   6.198  19.876  0.00  0.00    -0.057 S 
ATOM      7  O   UNL     1      20.971   8.551  22.564  0.00  0.00    -0.270 OA
ATOM      8  N   UNL     1      18.231   8.316  21.334  0.00  0.00    -0.229 NA
ATOM     10  N   UNL     1      20.138   6.853  21.155  0.00  0.00    -0.261 N 
ATOM     11  C   UNL     1      14.732   9.435  20.164  0.00  0.00    -0.019 C 
ATOM     12  C   UNL     1      14.216   7.935  20.017  0.00  0.00    +0.011 C 
ATOM     13  C   UNL     1      12.772   7.730  19.416  0.00  0.00    +0.021 C 
ATOM     14  C   UNL     1      15.976   9.433  21.167  0.00  0.00    +0.054 C 
ATOM     15  C   UNL     1      13.608  10.308  20.781  0.00  0.00    +0.010 C 
ATOM     16  C   UNL     1      11.785   8.711  20.109  0.00  0.00    +0.123 C 
ATOM     17  C   UNL     1      15.298   7.022  19.372  0.00  0.00    +0.049 C 
ATOM     18  C   UNL     1      12.261  10.160  20.089  0.00  0.00    +0.032 C 
ATOM     19  C   UNL     1      15.160  10.058  18.813  0.00  0.00    +0.012 C 
ATOM     20  C   UNL     1      16.946   8.331  20.824  0.00  0.00    +0.058 A 
ATOM     22  C   UNL     1      12.289   6.287  19.735  0.00  0.00    +0.016 C 
ATOM     23  C   UNL     1      16.617   7.251  20.032  0.00  0.00    +0.015 A 
ATOM     26  C   UNL     1      18.852   7.242  20.895  0.00  0.00    +0.165 A 
ATOM     29  C   UNL     1      21.118   7.498  21.952  0.00  0.00    +0.255 C 
ATOM     40  H   UNL     1      20.392   5.972  20.717  0.00  0.00    +0.157 HD
ENDROOT
BRANCH  29  31
ATOM      2  F   UNL     1      21.836   5.953  24.202  0.00  0.00    -0.205 F 
ATOM      3  F   UNL     1      23.088   7.629  19.937  0.00  0.00    -0.205 F 
ATOM     31  C   UNL     1      22.429   6.809  22.066  0.00  0.00    +0.107 A 
ATOM     33  C   UNL     1      22.726   6.059  23.205  0.00  0.00    +0.138 A 
ATOM     34  C   UNL     1      23.364   6.911  21.036  0.00  0.00    +0.138 A 
ATOM     35  C   UNL     1      23.957   5.411  23.312  0.00  0.00    +0.039 A 
ATOM     36  C   UNL     1      24.594   6.264  21.143  0.00  0.00    +0.039 A 
ATOM     37  C   UNL     1      24.891   5.514  22.281  0.00  0.00    +0.006 A 
ENDBRANCH  29  31
BRANCH  16   4
ATOM      4  O   UNL     1      10.496   8.644  19.498  0.00  0.00    -0.391 OA
ATOM     38  H   UNL     1      10.607   8.839  18.552  0.00  0.00    +0.210 HD
ENDBRANCH  16   4
BRANCH  13  21
ATOM     21  C   UNL     1      12.693   7.865  17.879  0.00  0.00    +0.165 C 
BRANCH  21   5
ATOM      5  O   UNL     1      11.736   6.940  17.413  0.00  0.00    -0.394 OA
ATOM     39  H   UNL     1      11.818   6.139  17.958  0.00  0.00    +0.209 HD
ENDBRANCH  21   5
ENDBRANCH  13  21
BRANCH  14  24
ATOM     24  C   UNL     1      16.687  10.785  21.304  0.00  0.00    +0.106 C 
BRANCH  24  25
ATOM      6  O   UNL     1      15.667  11.234  23.426  0.00  0.00    -0.276 OA
ATOM      9  N   UNL     1      15.850  13.016  21.952  0.00  0.00    -0.301 N 
ATOM     25  C   UNL     1      16.023  11.681  22.332  0.00  0.00    +0.216 C 
ATOM     28  C   UNL     1      16.280  13.520  20.654  0.00  0.00    +0.132 C 
BRANCH   9  27
ATOM     27  C   UNL     1      15.228  14.006  22.829  0.00  0.00    +0.134 C 
BRANCH  27  30
ATOM     30  C   UNL     1      13.881  14.355  22.291  0.00  0.00    -0.016 C 
ATOM     32  C   UNL     1      12.846  13.508  22.268  0.00  0.00    +0.005 C 
ENDBRANCH  27  30
ENDBRANCH   9  27
ENDBRANCH  24  25
ENDBRANCH  14  24
TORSDOF 8
ENDMDL
MODEL 2
REMARK VINA RESULT:      -6.3      1.672      2.277
REMARK  Name = 45361687
REMARK  11 active torsions:
REMARK  status: ('A' for Active; 'I' for Inactive)
REMARK    1  A    between atoms: O_4  and  C_16
REMARK    2  A    between atoms: O_5  and  C_21
REMARK    3  A    between atoms: N_9  and  C_27
REMARK    4  A    between atoms: N_9  and  C_28
REMARK    5  A    between atoms: C_11  and  C_19
REMARK    6  A    between atoms: C_13  and  C_21
REMARK    7  A    between atoms: C_13  and  C_22
REMARK    8  A    between atoms: C_14  and  C_24
REMARK    9  A    between atoms: C_24  and  C_25
REMARK   10  A    between atoms: C_27  and  C_30
REMARK   11  A    between atoms: C_29  and  C_31
REMARK                            x       y       z     vdW  Elec       q    Type
REMARK                         _______ _______ _______ _____ _____    ______ ____
ROOT
ATOM      1  S   UNL     1      17.919   5.920  19.533  0.00  0.00    -0.057 S 
ATOM      7  O   UNL     1      21.324   8.087  21.906  0.00  0.00    -0.270 OA
ATOM      8  N   UNL     1      18.475   8.026  20.930  0.00  0.00    -0.229 NA
ATOM     10  N   UNL     1      20.257   6.437  20.601  0.00  0.00    -0.261 N 
ATOM     11  C   UNL     1      14.965   9.367  20.062  0.00  0.00    -0.019 C 
ATOM     12  C   UNL     1      14.340   7.903  19.984  0.00  0.00    +0.011 C 
ATOM     13  C   UNL     1      12.838   7.790  19.518  0.00  0.00    +0.021 C 
ATOM     14  C   UNL     1      16.292   9.289  20.950  0.00  0.00    +0.054 C 
ATOM     15  C   UNL     1      13.962  10.318  20.766  0.00  0.00    +0.010 C 
ATOM     16  C   UNL     1      11.984   8.841  20.283  0.00  0.00    +0.123 C 
ATOM     17  C   UNL     1      15.298   6.915  19.258  0.00  0.00    +0.049 C 
ATOM     18  C   UNL     1      12.550  10.254  20.199  0.00  0.00    +0.032 C 
ATOM     19  C   UNL     1      15.309   9.949  18.670  0.00  0.00    +0.012 C 
ATOM     20  C   UNL     1      17.153   8.123  20.537  0.00  0.00    +0.058 A 
ATOM     22  C   UNL     1      12.292   6.386  19.899  0.00  0.00    +0.016 C 
ATOM     23  C   UNL     1      16.682   7.061  19.793  0.00  0.00    +0.015 A 
ATOM     26  C   UNL     1      18.981   6.909  20.452  0.00  0.00    +0.165 A 
ATOM     29  C   UNL     1      21.345   7.021  21.298  0.00  0.00    +0.255 C 
ATOM     40  H   UNL     1      20.412   5.537  20.155  0.00  0.00    +0.157 HD
ENDROOT
BRANCH  29  31
ATOM      2  F   UNL     1      21.645   4.601  22.716  0.00  0.00    -0.205 F 
ATOM      3  F   UNL     1      23.645   7.855  19.892  0.00  0.00    -0.205 F 
ATOM     31  C   UNL     1      22.613   6.247  21.304  0.00  0.00    +0.107 A 
ATOM     33  C   UNL     1      22.700   5.056  22.024  0.00  0.00    +0.138 A 
ATOM     34  C   UNL     1      23.718   6.711  20.589  0.00  0.00    +0.138 A 
ATOM     35  C   UNL     1      23.890   4.329  22.030  0.00  0.00    +0.039 A 
ATOM     36  C   UNL     1      24.908   5.984  20.594  0.00  0.00    +0.039 A 
ATOM     37  C   UNL     1      24.994   4.793  21.314  0.00  0.00    +0.006 A 
ENDBRANCH  29  31
BRANCH  16   4
ATOM      4  O   UNL     1      10.643   8.855  19.791  0.00  0.00    -0.391 OA
ATOM     38  H   UNL     1      10.411   7.944  19.540  0.00  0.00    +0.210 HD
ENDBRANCH  16   4
BRANCH  13  21
ATOM     21  C   UNL     1      12.629   7.918  17.992  0.00  0.00    +0.165 C 
BRANCH  21   5
ATOM      5  O   UNL     1      11.787   6.863  17.582  0.00  0.00    -0.394 OA
ATOM     39  H   UNL     1      10.874   7.126  17.784  0.00  0.00    +0.209 HD
ENDBRANCH  21   5
ENDBRANCH  13  21
BRANCH  14  24
ATOM     24  C   UNL     1      17.100  10.593  21.004  0.00  0.00    +0.106 C 
BRANCH  24  25
ATOM      6  O   UNL     1      16.150  11.322  23.080  0.00  0.00    -0.276 OA
ATOM      9  N   UNL     1      18.452  11.495  22.861  0.00  0.00    -0.301 N 
ATOM     25  C   UNL     1      17.172  11.166  22.406  0.00  0.00    +0.216 C 
ATOM     28  C   UNL     1      19.645  11.302  22.047  0.00  0.00    +0.132 C 
BRANCH   9  27
ATOM     27  C   UNL     1      18.691  12.057  24.189  0.00  0.00    +0.134 C 
BRANCH  27  30
ATOM     30  C   UNL     1      19.936  11.460  24.755  0.00  0.00    -0.016 C 
ATOM     32  C   UNL     1      20.824  12.142  25.487  0.00  0.00    +0.005 C 
ENDBRANCH  27  30
ENDBRANCH   9  27
ENDBRANCH  24  25
ENDBRANCH  14  24
TORSDOF 8
ENDMDL
MODEL 3
REMARK VINA RESULT:      -6.2     28.669     32.563
REMARK  Name = 45361687
REMARK  11 active torsions:
REMARK  status: ('A' for Active; 'I' for Inactive)
REMARK    1  A    between atoms: O_4  and  C_16
REMARK    2  A    between atoms: O_5  and  C_21
REMARK    3  A    between atoms: N_9  and  C_27
REMARK    4  A    between atoms: N_9  and  C_28
REMARK    5  A    between atoms: C_11  and  C_19
REMARK    6  A    between atoms: C_13  and  C_21
REMARK    7  A    between atoms: C_13  and  C_22
REMARK    8  A    between atoms: C_14  and  C_24
REMARK    9  A    between atoms: C_24  and  C_25
REMARK   10  A    between atoms: C_27  and  C_30
REMARK   11  A    between atoms: C_29  and  C_31
REMARK                            x       y       z     vdW  Elec       q    Type
REMARK                         _______ _______ _______ _____ _____    ______ ____
ROOT
ATOM      1  S   UNL     1      -5.560  -9.955  10.374  0.00  0.00    -0.057 S 
ATOM      7  O   UNL     1      -9.997  -8.504  10.722  0.00  0.00    -0.270 OA
ATOM      8  N   UNL     1      -7.477  -9.487  12.048  0.00  0.00    -0.229 NA
ATOM     10  N   UNL     1      -7.946  -9.089   9.717  0.00  0.00    -0.261 N 
ATOM     11  C   UNL     1      -5.235 -10.950  14.823  0.00  0.00    -0.019 C 
ATOM     12  C   UNL     1      -3.897 -10.467  14.105  0.00  0.00    +0.011 C 
ATOM     13  C   UNL     1      -2.533 -10.908  14.762  0.00  0.00    +0.021 C 
ATOM     14  C   UNL     1      -6.440 -10.054  14.276  0.00  0.00    +0.054 C 
ATOM     15  C   UNL     1      -5.111 -10.721  16.351  0.00  0.00    +0.010 C 
ATOM     16  C   UNL     1      -2.597 -10.656  16.295  0.00  0.00    +0.123 C 
ATOM     17  C   UNL     1      -3.959 -10.704  12.569  0.00  0.00    +0.049 C 
ATOM     18  C   UNL     1      -3.826 -11.270  16.956  0.00  0.00    +0.032 C 
ATOM     19  C   UNL     1      -5.548 -12.445  14.568  0.00  0.00    +0.012 C 
ATOM     20  C   UNL     1      -6.390  -9.937  12.774  0.00  0.00    +0.058 A 
ATOM     22  C   UNL     1      -1.388 -10.023  14.195  0.00  0.00    +0.016 C 
ATOM     23  C   UNL     1      -5.262 -10.216  12.030  0.00  0.00    +0.015 A 
ATOM     26  C   UNL     1      -7.157  -9.463  10.771  0.00  0.00    +0.165 A 
ATOM     29  C   UNL     1      -9.290  -8.639   9.729  0.00  0.00    +0.255 C 
ATOM     40  H   UNL     1      -7.472  -9.136   8.819  0.00  0.00    +0.157 HD
ENDROOT
BRANCH  29  31
ATOM      2  F   UNL     1     -10.320 -10.563   7.941  0.00  0.00    -0.205 F 
ATOM      3  F   UNL     1      -9.456  -5.975   8.814  0.00  0.00    -0.205 F 
ATOM     31  C   UNL     1      -9.873  -8.278   8.411  0.00  0.00    +0.107 A 
ATOM     33  C   UNL     1     -10.367  -9.275   7.570  0.00  0.00    +0.138 A 
ATOM     34  C   UNL     1      -9.927  -6.942   8.014  0.00  0.00    +0.138 A 
ATOM     35  C   UNL     1     -10.915  -8.937   6.333  0.00  0.00    +0.039 A 
ATOM     36  C   UNL     1     -10.475  -6.603   6.777  0.00  0.00    +0.039 A 
ATOM     37  C   UNL     1     -10.969  -7.600   5.936  0.00  0.00    +0.006 A 
ENDBRANCH  29  31
BRANCH  16   4
ATOM      4  O   UNL     1      -1.428 -11.165  16.938  0.00  0.00    -0.391 OA
ATOM     38  H   UNL     1      -0.773 -11.362  16.247  0.00  0.00    +0.210 HD
ENDBRANCH  16   4
BRANCH  13  21
ATOM     21  C   UNL     1      -2.120 -12.366  14.461  0.00  0.00    +0.165 C 
BRANCH  21   5
ATOM      5  O   UNL     1      -1.114 -12.335  13.473  0.00  0.00    -0.394 OA
ATOM     39  H   UNL     1      -1.180 -11.478  13.019  0.00  0.00    +0.209 HD
ENDBRANCH  21   5
ENDBRANCH  13  21
BRANCH  14  24
ATOM     24  C   UNL     1      -7.830 -10.489  14.759  0.00  0.00    +0.106 C 
BRANCH  24  25
ATOM      6  O   UNL     1      -7.823  -9.231  16.799  0.00  0.00    -0.276 OA
ATOM      9  N   UNL     1      -9.665  -8.975  15.415  0.00  0.00    -0.301 N 
ATOM     25  C   UNL     1      -8.422  -9.513  15.758  0.00  0.00    +0.216 C 
ATOM     28  C   UNL     1     -10.354  -9.324  14.179  0.00  0.00    +0.132 C 
BRANCH   9  27
ATOM     27  C   UNL     1     -10.368  -8.020  16.269  0.00  0.00    +0.134 C 
BRANCH  27  30
ATOM     30  C   UNL     1     -10.441  -6.703  15.572  0.00  0.00    -0.016 C 
ATOM     32  C   UNL     1     -11.465  -5.850  15.695  0.00  0.00    +0.005 C 
ENDBRANCH  27  30
ENDBRANCH   9  27
ENDBRANCH  24  25
ENDBRANCH  14  24
TORSDOF 8
ENDMDL
MODEL 4
REMARK VINA RESULT:      -6.2     17.302     21.693
REMARK  Name = 45361687
REMARK  11 active torsions:
REMARK  status: ('A' for Active; 'I' for Inactive)
REMARK    1  A    between atoms: O_4  and  C_16
REMARK    2  A    between atoms: O_5  and  C_21
REMARK    3  A    between atoms: N_9  and  C_27
REMARK    4  A    between atoms: N_9  and  C_28
REMARK    5  A    between atoms: C_11  and  C_19
REMARK    6  A    between atoms: C_13  and  C_21
REMARK    7  A    between atoms: C_13  and  C_22
REMARK    8  A    between atoms: C_14  and  C_24
REMARK    9  A    between atoms: C_24  and  C_25
REMARK   10  A    between atoms: C_27  and  C_30
REMARK   11  A    between atoms: C_29  and  C_31
REMARK                            x       y       z     vdW  Elec       q    Type
REMARK                         _______ _______ _______ _____ _____    ______ ____
ROOT
ATOM      1  S   UNL     1       8.757   8.770   0.323  0.00  0.00    -0.057 S 
ATOM      7  O   UNL     1       7.194   9.432   4.686  0.00  0.00    -0.270 OA
ATOM      8  N   UNL     1       9.006   7.974   2.772  0.00  0.00    -0.229 NA
ATOM     10  N   UNL     1       7.403   9.725   2.355  0.00  0.00    -0.261 N 
ATOM     11  C   UNL     1      11.378   5.215   1.495  0.00  0.00    -0.019 C 
ATOM     12  C   UNL     1      11.902   6.114   0.289  0.00  0.00    +0.011 C 
ATOM     13  C   UNL     1      12.888   5.433  -0.736  0.00  0.00    +0.021 C 
ATOM     14  C   UNL     1      10.780   6.188   2.613  0.00  0.00    +0.054 C 
ATOM     15  C   UNL     1      12.569   4.436   2.112  0.00  0.00    +0.010 C 
ATOM     16  C   UNL     1      13.986   4.660   0.046  0.00  0.00    +0.123 C 
ATOM     17  C   UNL     1      10.737   6.895  -0.385  0.00  0.00    +0.049 C 
ATOM     18  C   UNL     1      13.422   3.700   1.088  0.00  0.00    +0.032 C 
ATOM     19  C   UNL     1      10.292   4.200   1.061  0.00  0.00    +0.012 C 
ATOM     20  C   UNL     1       9.877   7.228   2.000  0.00  0.00    +0.058 A 
ATOM     22  C   UNL     1      13.602   6.538  -1.564  0.00  0.00    +0.016 C 
ATOM     23  C   UNL     1       9.886   7.541   0.657  0.00  0.00    +0.015 A 
ATOM     26  C   UNL     1       8.358   8.814   1.993  0.00  0.00    +0.165 A 
ATOM     29  C   UNL     1       6.873   9.992   3.643  0.00  0.00    +0.255 C 
ATOM     40  H   UNL     1       7.056  10.279   1.577  0.00  0.00    +0.157 HD
ENDROOT
BRANCH  29  31
ATOM      2  F   UNL     1       4.309   9.751   2.491  0.00  0.00    -0.205 F 
ATOM      3  F   UNL     1       7.347  12.444   4.957  0.00  0.00    -0.205 F 
ATOM     31  C   UNL     1       5.854  11.070   3.722  0.00  0.00    +0.107 A 
ATOM     33  C   UNL     1       4.602  10.892   3.132  0.00  0.00    +0.138 A 
ATOM     34  C   UNL     1       6.147  12.262   4.386  0.00  0.00    +0.138 A 
ATOM     35  C   UNL     1       3.645  11.903   3.207  0.00  0.00    +0.039 A 
ATOM     36  C   UNL     1       5.190  13.273   4.461  0.00  0.00    +0.039 A 
ATOM     37  C   UNL     1       3.939  13.094   3.871  0.00  0.00    +0.006 A 
ENDBRANCH  29  31
BRANCH  16   4
ATOM      4  O   UNL     1      14.820   3.924  -0.850  0.00  0.00    -0.391 OA
ATOM     38  H   UNL     1      14.736   2.982  -0.625  0.00  0.00    +0.210 HD
ENDBRANCH  16   4
BRANCH  13  21
ATOM     21  C   UNL     1      12.201   4.516  -1.772  0.00  0.00    +0.165 C 
BRANCH  21   5
ATOM      5  O   UNL     1      12.886   4.658  -2.997  0.00  0.00    -0.394 OA
ATOM     39  H   UNL     1      13.148   3.768  -3.287  0.00  0.00    +0.209 HD
ENDBRANCH  21   5
ENDBRANCH  13  21
BRANCH  14  24
ATOM     24  C   UNL     1      10.096   5.470   3.784  0.00  0.00    +0.106 C 
BRANCH  24  25
ATOM      6  O   UNL     1      11.754   6.123   5.388  0.00  0.00    -0.276 OA
ATOM      9  N   UNL     1       9.535   6.334   6.027  0.00  0.00    -0.301 N 
ATOM     25  C   UNL     1      10.553   6.002   5.129  0.00  0.00    +0.216 C 
ATOM     28  C   UNL     1       8.123   6.183   5.699  0.00  0.00    +0.132 C 
BRANCH   9  27
ATOM     27  C   UNL     1       9.809   6.860   7.363  0.00  0.00    +0.134 C 
BRANCH  27  30
ATOM     30  C   UNL     1       9.273   5.910   8.381  0.00  0.00    -0.016 C 
ATOM     32  C   UNL     1       9.774   4.689   8.597  0.00  0.00    +0.005 C 
ENDBRANCH  27  30
ENDBRANCH   9  27
ENDBRANCH  24  25
ENDBRANCH  14  24
TORSDOF 8
ENDMDL
MODEL 5
REMARK VINA RESULT:      -6.1     30.130     34.438
REMARK  Name = 45361687
REMARK  11 active torsions:
REMARK  status: ('A' for Active; 'I' for Inactive)
REMARK    1  A    between atoms: O_4  and  C_16
REMARK    2  A    between atoms: O_5  and  C_21
REMARK    3  A    between atoms: N_9  and  C_27
REMARK    4  A    between atoms: N_9  and  C_28
REMARK    5  A    between atoms: C_11  and  C_19
REMARK    6  A    between atoms: C_13  and  C_21
REMARK    7  A    between atoms: C_13  and  C_22
REMARK    8  A    between atoms: C_14  and  C_24
REMARK    9  A    between atoms: C_24  and  C_25
REMARK   10  A    between atoms: C_27  and  C_30
REMARK   11  A    between atoms: C_29  and  C_31
REMARK                            x       y       z     vdW  Elec       q    Type
REMARK                         _______ _______ _______ _____ _____    ______ ____
ROOT
ATOM      1  S   UNL     1      -9.295  -9.174  14.361  0.00  0.00    -0.057 S 
ATOM      7  O   UNL     1     -13.451  -8.471  16.399  0.00  0.00    -0.270 OA
ATOM      8  N   UNL     1     -10.630  -9.519  16.550  0.00  0.00    -0.229 NA
ATOM     10  N   UNL     1     -11.785  -8.438  14.730  0.00  0.00    -0.261 N 
ATOM     11  C   UNL     1      -7.632 -11.527  17.908  0.00  0.00    -0.019 C 
ATOM     12  C   UNL     1      -6.580 -10.675  17.067  0.00  0.00    +0.011 C 
ATOM     13  C   UNL     1      -5.074 -11.138  17.126  0.00  0.00    +0.021 C 
ATOM     14  C   UNL     1      -8.962 -10.655  18.063  0.00  0.00    +0.054 C 
ATOM     15  C   UNL     1      -7.059 -11.799  19.323  0.00  0.00    +0.010 C 
ATOM     16  C   UNL     1      -4.680 -11.413  18.604  0.00  0.00    +0.123 C 
ATOM     17  C   UNL     1      -7.096 -10.401  15.625  0.00  0.00    +0.049 C 
ATOM     18  C   UNL     1      -5.642 -12.355  19.319  0.00  0.00    +0.032 C 
ATOM     19  C   UNL     1      -7.978 -12.881  17.243  0.00  0.00    +0.012 C 
ATOM     20  C   UNL     1      -9.367 -10.046  16.744  0.00  0.00    +0.058 A 
ATOM     22  C   UNL     1      -4.168  -9.983  16.613  0.00  0.00    +0.016 C 
ATOM     23  C   UNL     1      -8.510  -9.926  15.670  0.00  0.00    +0.015 A 
ATOM     26  C   UNL     1     -10.708  -9.038  15.327  0.00  0.00    +0.165 A 
ATOM     29  C   UNL     1     -13.072  -8.185  15.268  0.00  0.00    +0.255 C 
ATOM     40  H   UNL     1     -11.601  -8.130  13.779  0.00  0.00    +0.157 HD
ENDROOT
BRANCH  29  31
ATOM      2  F   UNL     1     -15.083  -9.544  13.830  0.00  0.00    -0.205 F 
ATOM      3  F   UNL     1     -13.026  -5.391  14.872  0.00  0.00    -0.205 F 
ATOM     31  C   UNL     1     -14.030  -7.485  14.374  0.00  0.00    +0.107 A 
ATOM     33  C   UNL     1     -15.004  -8.213  13.689  0.00  0.00    +0.138 A 
ATOM     34  C   UNL     1     -13.957  -6.101  14.219  0.00  0.00    +0.138 A 
ATOM     35  C   UNL     1     -15.904  -7.557  12.850  0.00  0.00    +0.039 A 
ATOM     36  C   UNL     1     -14.858  -5.444  13.380  0.00  0.00    +0.039 A 
ATOM     37  C   UNL     1     -15.831  -6.172  12.696  0.00  0.00    +0.006 A 
ENDBRANCH  29  31
BRANCH  16   4
ATOM      4  O   UNL     1      -3.362 -11.958  18.682  0.00  0.00    -0.391 OA
ATOM     38  H   UNL     1      -3.257 -12.350  19.565  0.00  0.00    +0.210 HD
ENDBRANCH  16   4
BRANCH  13  21
ATOM     21  C   UNL     1      -4.742 -12.354  16.233  0.00  0.00    +0.165 C 
BRANCH  21   5
ATOM      5  O   UNL     1      -3.396 -12.238  15.827  0.00  0.00    -0.394 OA
ATOM     39  H   UNL     1      -3.196 -13.007  15.267  0.00  0.00    +0.209 HD
ENDBRANCH  21   5
ENDBRANCH  13  21
BRANCH  14  24
ATOM     24  C   UNL     1     -10.134 -11.391  18.725  0.00  0.00    +0.106 C 
BRANCH  24  25
ATOM      6  O   UNL     1     -10.055 -10.103  20.745  0.00  0.00    -0.276 OA
ATOM      9  N   UNL     1     -12.144 -10.439  19.796  0.00  0.00    -0.301 N 
ATOM     25  C   UNL     1     -10.755 -10.586  19.851  0.00  0.00    +0.216 C 
ATOM     28  C   UNL     1     -12.950 -11.019  18.729  0.00  0.00    +0.132 C 
BRANCH   9  27
ATOM     27  C   UNL     1     -12.893  -9.692  20.804  0.00  0.00    +0.134 C 
BRANCH  27  30
ATOM     30  C   UNL     1     -14.354  -9.888  20.572  0.00  0.00    -0.016 C 
ATOM     32  C   UNL     1     -15.279  -8.953  20.817  0.00  0.00    +0.005 C 
ENDBRANCH  27  30
ENDBRANCH   9  27
ENDBRANCH  24  25
ENDBRANCH  14  24
TORSDOF 8
ENDMDL
MODEL 6
REMARK VINA RESULT:      -6.0     29.892     33.998
REMARK  Name = 45361687
REMARK  11 active torsions:
REMARK  status: ('A' for Active; 'I' for Inactive)
REMARK    1  A    between atoms: O_4  and  C_16
REMARK    2  A    between atoms: O_5  and  C_21
REMARK    3  A    between atoms: N_9  and  C_27
REMARK    4  A    between atoms: N_9  and  C_28
REMARK    5  A    between atoms: C_11  and  C_19
REMARK    6  A    between atoms: C_13  and  C_21
REMARK    7  A    between atoms: C_13  and  C_22
REMARK    8  A    between atoms: C_14  and  C_24
REMARK    9  A    between atoms: C_24  and  C_25
REMARK   10  A    between atoms: C_27  and  C_30
REMARK   11  A    between atoms: C_29  and  C_31
REMARK                            x       y       z     vdW  Elec       q    Type
REMARK                         _______ _______ _______ _____ _____    ______ ____
ROOT
ATOM      1  S   UNL     1      -5.787 -11.422   5.602  0.00  0.00    -0.057 S 
ATOM      7  O   UNL     1      -5.915  -8.919   9.556  0.00  0.00    -0.270 OA
ATOM      8  N   UNL     1      -6.979  -9.457   6.790  0.00  0.00    -0.229 NA
ATOM     10  N   UNL     1      -5.225 -10.565   8.016  0.00  0.00    -0.261 N 
ATOM     11  C   UNL     1      -8.882  -8.796   3.502  0.00  0.00    -0.019 C 
ATOM     12  C   UNL     1      -8.862 -10.335   3.090  0.00  0.00    +0.011 C 
ATOM     13  C   UNL     1      -9.439 -10.704   1.669  0.00  0.00    +0.021 C 
ATOM     14  C   UNL     1      -8.680  -8.707   5.085  0.00  0.00    +0.054 C 
ATOM     15  C   UNL     1     -10.265  -8.188   3.151  0.00  0.00    +0.010 C 
ATOM     16  C   UNL     1     -10.797  -9.976   1.463  0.00  0.00    +0.123 C 
ATOM     17  C   UNL     1      -7.481 -10.986   3.393  0.00  0.00    +0.049 C 
ATOM     18  C   UNL     1     -10.723  -8.476   1.729  0.00  0.00    +0.032 C 
ATOM     19  C   UNL     1      -7.782  -7.970   2.794  0.00  0.00    +0.012 C 
ATOM     20  C   UNL     1      -7.548  -9.594   5.537  0.00  0.00    +0.058 A 
ATOM     22  C   UNL     1      -9.721 -12.231   1.616  0.00  0.00    +0.016 C 
ATOM     23  C   UNL     1      -7.038 -10.621   4.770  0.00  0.00    +0.015 A 
ATOM     26  C   UNL     1      -6.035 -10.363   6.931  0.00  0.00    +0.165 A 
ATOM     29  C   UNL     1      -5.194  -9.862   9.246  0.00  0.00    +0.255 C 
ATOM     40  H   UNL     1      -4.579 -11.341   7.899  0.00  0.00    +0.157 HD
ENDROOT
BRANCH  29  31
ATOM      2  F   UNL     1      -5.634 -12.144  10.845  0.00  0.00    -0.205 F 
ATOM      3  F   UNL     1      -2.735  -8.557   9.707  0.00  0.00    -0.205 F 
ATOM     31  C   UNL     1      -4.209 -10.338  10.251  0.00  0.00    +0.107 A 
ATOM     33  C   UNL     1      -4.484 -11.475  11.012  0.00  0.00    +0.138 A 
ATOM     34  C   UNL     1      -3.009  -9.650  10.434  0.00  0.00    +0.138 A 
ATOM     35  C   UNL     1      -3.559 -11.923  11.955  0.00  0.00    +0.039 A 
ATOM     36  C   UNL     1      -2.085 -10.099  11.377  0.00  0.00    +0.039 A 
ATOM     37  C   UNL     1      -2.359 -11.234  12.138  0.00  0.00    +0.006 A 
ENDBRANCH  29  31
BRANCH  16   4
ATOM      4  O   UNL     1     -11.284 -10.183   0.137  0.00  0.00    -0.391 OA
ATOM     38  H   UNL     1     -12.136 -10.647   0.205  0.00  0.00    +0.210 HD
ENDBRANCH  16   4
BRANCH  13  21
ATOM     21  C   UNL     1      -8.478 -10.417   0.493  0.00  0.00    +0.165 C 
BRANCH  21   5
ATOM      5  O   UNL     1      -8.786 -11.320  -0.546  0.00  0.00    -0.394 OA
ATOM     39  H   UNL     1      -9.594 -10.998  -0.980  0.00  0.00    +0.209 HD
ENDBRANCH  21   5
ENDBRANCH  13  21
BRANCH  14  24
ATOM     24  C   UNL     1      -8.528  -7.281   5.629  0.00  0.00    +0.106 C 
BRANCH  24  25
ATOM      6  O   UNL     1     -10.832  -7.065   6.253  0.00  0.00    -0.276 OA
ATOM      9  N   UNL     1      -9.255  -6.375   7.807  0.00  0.00    -0.301 N 
ATOM     25  C   UNL     1      -9.652  -6.905   6.575  0.00  0.00    +0.216 C 
ATOM     28  C   UNL     1      -7.854  -6.195   8.165  0.00  0.00    +0.132 C 
BRANCH   9  27
ATOM     27  C   UNL     1     -10.215  -5.965   8.830  0.00  0.00    +0.134 C 
BRANCH  27  30
ATOM     30  C   UNL     1     -10.228  -4.476   8.917  0.00  0.00    -0.016 C 
ATOM     32  C   UNL     1     -11.236  -3.769   9.441  0.00  0.00    +0.005 C 
ENDBRANCH  27  30
ENDBRANCH   9  27
ENDBRANCH  24  25
ENDBRANCH  14  24
TORSDOF 8
ENDMDL
MODEL 7
REMARK VINA RESULT:      -6.0     28.818     32.101
REMARK  Name = 45361687
REMARK  11 active torsions:
REMARK  status: ('A' for Active; 'I' for Inactive)
REMARK    1  A    between atoms: O_4  and  C_16
REMARK    2  A    between atoms: O_5  and  C_21
REMARK    3  A    between atoms: N_9  and  C_27
REMARK    4  A    between atoms: N_9  and  C_28
REMARK    5  A    between atoms: C_11  and  C_19
REMARK    6  A    between atoms: C_13  and  C_21
REMARK    7  A    between atoms: C_13  and  C_22
REMARK    8  A    between atoms: C_14  and  C_24
REMARK    9  A    between atoms: C_24  and  C_25
REMARK   10  A    between atoms: C_27  and  C_30
REMARK   11  A    between atoms: C_29  and  C_31
REMARK                            x       y       z     vdW  Elec       q    Type
REMARK                         _______ _______ _______ _____ _____    ______ ____
ROOT
ATOM      1  S   UNL     1      -8.899  -9.752  12.973  0.00  0.00    -0.057 S 
ATOM      7  O   UNL     1      -5.005 -11.281  15.074  0.00  0.00    -0.270 OA
ATOM      8  N   UNL     1      -6.408 -10.334  12.582  0.00  0.00    -0.229 NA
ATOM     10  N   UNL     1      -7.254 -10.619  14.821  0.00  0.00    -0.261 N 
ATOM     11  C   UNL     1      -6.995  -9.741   8.818  0.00  0.00    -0.019 C 
ATOM     12  C   UNL     1      -8.117  -8.642   9.086  0.00  0.00    +0.011 C 
ATOM     13  C   UNL     1      -8.871  -8.068   7.826  0.00  0.00    +0.021 C 
ATOM     14  C   UNL     1      -6.086  -9.849  10.128  0.00  0.00    +0.054 C 
ATOM     15  C   UNL     1      -6.098  -9.284   7.638  0.00  0.00    +0.010 C 
ATOM     16  C   UNL     1      -7.832  -7.707   6.727  0.00  0.00    +0.123 C 
ATOM     17  C   UNL     1      -9.065  -9.070  10.244  0.00  0.00    +0.049 C 
ATOM     18  C   UNL     1      -6.876  -8.849   6.404  0.00  0.00    +0.032 C 
ATOM     19  C   UNL     1      -7.584 -11.133   8.483  0.00  0.00    +0.012 C 
ATOM     20  C   UNL     1      -6.936  -9.926  11.371  0.00  0.00    +0.058 A 
ATOM     22  C   UNL     1      -9.597  -6.752   8.226  0.00  0.00    +0.016 C 
ATOM     23  C   UNL     1      -8.264  -9.555  11.405  0.00  0.00    +0.015 A 
ATOM     26  C   UNL     1      -7.355 -10.290  13.497  0.00  0.00    +0.165 A 
ATOM     29  C   UNL     1      -6.124 -11.086  15.538  0.00  0.00    +0.255 C 
ATOM     40  H   UNL     1      -8.119 -10.486  15.338  0.00  0.00    +0.157 HD
ENDROOT
BRANCH  29  31
ATOM      2  F   UNL     1      -4.499  -9.910  17.522  0.00  0.00    -0.205 F 
ATOM      3  F   UNL     1      -8.158 -12.772  16.530  0.00  0.00    -0.205 F 
ATOM     31  C   UNL     1      -6.324 -11.335  16.989  0.00  0.00    +0.107 A 
ATOM     33  C   UNL     1      -5.487 -10.724  17.923  0.00  0.00    +0.138 A 
ATOM     34  C   UNL     1      -7.347 -12.180  17.419  0.00  0.00    +0.138 A 
ATOM     35  C   UNL     1      -5.674 -10.956  19.286  0.00  0.00    +0.039 A 
ATOM     36  C   UNL     1      -7.534 -12.413  18.781  0.00  0.00    +0.039 A 
ATOM     37  C   UNL     1      -6.698 -11.801  19.715  0.00  0.00    +0.006 A 
ENDBRANCH  29  31
BRANCH  16   4
ATOM      4  O   UNL     1      -8.490  -7.305   5.525  0.00  0.00    -0.391 OA
ATOM     38  H   UNL     1      -7.860  -7.418   4.792  0.00  0.00    +0.210 HD
ENDBRANCH  16   4
BRANCH  13  21
ATOM     21  C   UNL     1      -9.971  -8.994   7.260  0.00  0.00    +0.165 C 
BRANCH  21   5
ATOM      5  O   UNL     1     -10.980  -8.179   6.706  0.00  0.00    -0.394 OA
ATOM     39  H   UNL     1     -10.562  -7.621   6.029  0.00  0.00    +0.209 HD
ENDBRANCH  21   5
ENDBRANCH  13  21
BRANCH  14  24
ATOM     24  C   UNL     1      -5.043 -10.973  10.090  0.00  0.00    +0.106 C 
BRANCH  24  25
ATOM      6  O   UNL     1      -3.166  -9.488  10.225  0.00  0.00    -0.276 OA
ATOM      9  N   UNL     1      -3.124 -11.360  11.594  0.00  0.00    -0.301 N 
ATOM     25  C   UNL     1      -3.698 -10.526  10.630  0.00  0.00    +0.216 C 
ATOM     28  C   UNL     1      -3.771 -12.581  12.056  0.00  0.00    +0.132 C 
BRANCH   9  27
ATOM     27  C   UNL     1      -1.832 -11.069  12.212  0.00  0.00    +0.134 C 
BRANCH  27  30
ATOM     30  C   UNL     1      -2.055 -10.297  13.469  0.00  0.00    -0.016 C 
ATOM     32  C   UNL     1      -1.687 -10.725  14.682  0.00  0.00    +0.005 C 
ENDBRANCH  27  30
ENDBRANCH   9  27
ENDBRANCH  24  25
ENDBRANCH  14  24
TORSDOF 8
ENDMDL
MODEL 8
REMARK VINA RESULT:      -6.0     30.269     32.940
REMARK  Name = 45361687
REMARK  11 active torsions:
REMARK  status: ('A' for Active; 'I' for Inactive)
REMARK    1  A    between atoms: O_4  and  C_16
REMARK    2  A    between atoms: O_5  and  C_21
REMARK    3  A    between atoms: N_9  and  C_27
REMARK    4  A    between atoms: N_9  and  C_28
REMARK    5  A    between atoms: C_11  and  C_19
REMARK    6  A    between atoms: C_13  and  C_21
REMARK    7  A    between atoms: C_13  and  C_22
REMARK    8  A    between atoms: C_14  and  C_24
REMARK    9  A    between atoms: C_24  and  C_25
REMARK   10  A    between atoms: C_27  and  C_30
REMARK   11  A    between atoms: C_29  and  C_31
REMARK                            x       y       z     vdW  Elec       q    Type
REMARK                         _______ _______ _______ _____ _____    ______ ____
ROOT
ATOM      1  S   UNL     1      -6.065 -11.091  12.202  0.00  0.00    -0.057 S 
ATOM      7  O   UNL     1      -9.410  -8.385  10.357  0.00  0.00    -0.270 OA
ATOM      8  N   UNL     1      -8.108  -9.612  12.780  0.00  0.00    -0.229 NA
ATOM     10  N   UNL     1      -7.533  -9.810  10.448  0.00  0.00    -0.261 N 
ATOM     11  C   UNL     1      -7.740 -10.762  16.442  0.00  0.00    -0.019 C 
ATOM     12  C   UNL     1      -6.160 -10.923  16.315  0.00  0.00    +0.011 C 
ATOM     13  C   UNL     1      -5.399 -11.523  17.559  0.00  0.00    +0.021 C 
ATOM     14  C   UNL     1      -8.228  -9.761  15.295  0.00  0.00    +0.054 C 
ATOM     15  C   UNL     1      -8.084 -10.133  17.817  0.00  0.00    +0.010 C 
ATOM     16  C   UNL     1      -5.896 -10.818  18.852  0.00  0.00    +0.123 C 
ATOM     17  C   UNL     1      -5.764 -11.580  14.961  0.00  0.00    +0.049 C 
ATOM     18  C   UNL     1      -7.414 -10.824  18.997  0.00  0.00    +0.032 C 
ATOM     19  C   UNL     1      -8.494 -12.107  16.308  0.00  0.00    +0.012 C 
ATOM     20  C   UNL     1      -7.611 -10.118  13.966  0.00  0.00    +0.058 A 
ATOM     22  C   UNL     1      -3.881 -11.219  17.420  0.00  0.00    +0.016 C 
ATOM     23  C   UNL     1      -6.496 -10.921  13.841  0.00  0.00    +0.015 A 
ATOM     26  C   UNL     1      -7.376 -10.064  11.784  0.00  0.00    +0.165 A 
ATOM     29  C   UNL     1      -8.509  -9.008   9.804  0.00  0.00    +0.255 C 
ATOM     40  H   UNL     1      -6.831 -10.258   9.865  0.00  0.00    +0.157 HD
ENDROOT
BRANCH  29  31
ATOM      2  F   UNL     1      -9.047 -11.178   8.083  0.00  0.00    -0.205 F 
ATOM      3  F   UNL     1      -7.753  -6.627   8.494  0.00  0.00    -0.205 F 
ATOM     31  C   UNL     1      -8.403  -8.905   8.326  0.00  0.00    +0.107 A 
ATOM     33  C   UNL     1      -8.682 -10.014   7.527  0.00  0.00    +0.138 A 
ATOM     34  C   UNL     1      -8.023  -7.699   7.736  0.00  0.00    +0.138 A 
ATOM     35  C   UNL     1      -8.583  -9.917   6.139  0.00  0.00    +0.039 A 
ATOM     36  C   UNL     1      -7.924  -7.602   6.348  0.00  0.00    +0.039 A 
ATOM     37  C   UNL     1      -8.203  -8.711   5.549  0.00  0.00    +0.006 A 
ENDBRANCH  29  31
BRANCH  16   4
ATOM      4  O   UNL     1      -5.323 -11.426  20.010  0.00  0.00    -0.391 OA
ATOM     38  H   UNL     1      -5.738 -12.298  20.121  0.00  0.00    +0.210 HD
ENDBRANCH  16   4
BRANCH  13  21
ATOM     21  C   UNL     1      -5.504 -13.058  17.695  0.00  0.00    +0.165 C 
BRANCH  21   5
ATOM      5  O   UNL     1      -4.368 -13.509  18.399  0.00  0.00    -0.394 OA
ATOM     39  H   UNL     1      -4.636 -13.648  19.323  0.00  0.00    +0.209 HD
ENDBRANCH  21   5
ENDBRANCH  13  21
BRANCH  14  24
ATOM     24  C   UNL     1      -9.751  -9.612  15.185  0.00  0.00    +0.106 C 
BRANCH  24  25
ATOM      6  O   UNL     1      -9.701  -7.529  16.370  0.00  0.00    -0.276 OA
ATOM      9  N   UNL     1     -11.226  -7.711  14.632  0.00  0.00    -0.301 N 
ATOM     25  C   UNL     1     -10.209  -8.193  15.462  0.00  0.00    +0.216 C 
ATOM     28  C   UNL     1     -11.810  -8.515  13.566  0.00  0.00    +0.132 C 
BRANCH   9  27
ATOM     27  C   UNL     1     -11.777  -6.365  14.769  0.00  0.00    +0.134 C 
BRANCH  27  30
ATOM     30  C   UNL     1     -12.317  -5.922  13.450  0.00  0.00    -0.016 C 
ATOM     32  C   UNL     1     -12.276  -4.657  13.015  0.00  0.00    +0.005 C 
ENDBRANCH  27  30
ENDBRANCH   9  27
ENDBRANCH  24  25
ENDBRANCH  14  24
TORSDOF 8
ENDMDL
MODEL 9
REMARK VINA RESULT:      -5.9     15.606     18.426
REMARK  Name = 45361687
REMARK  11 active torsions:
REMARK  status: ('A' for Active; 'I' for Inactive)
REMARK    1  A    between atoms: O_4  and  C_16
REMARK    2  A    between atoms: O_5  and  C_21
REMARK    3  A    between atoms: N_9  and  C_27
REMARK    4  A    between atoms: N_9  and  C_28
REMARK    5  A    between atoms: C_11  and  C_19
REMARK    6  A    between atoms: C_13  and  C_21
REMARK    7  A    between atoms: C_13  and  C_22
REMARK    8  A    between atoms: C_14  and  C_24
REMARK    9  A    between atoms: C_24  and  C_25
REMARK   10  A    between atoms: C_27  and  C_30
REMARK   11  A    between atoms: C_29  and  C_31
REMARK                            x       y       z     vdW  Elec       q    Type
REMARK                         _______ _______ _______ _____ _____    ______ ____
ROOT
ATOM      1  S   UNL     1      16.192   7.747   1.736  0.00  0.00    -0.057 S 
ATOM      7  O   UNL     1      15.874   8.670   6.314  0.00  0.00    -0.270 OA
ATOM      8  N   UNL     1      14.647   7.550   3.802  0.00  0.00    -0.229 NA
ATOM     10  N   UNL     1      16.800   8.575   4.148  0.00  0.00    -0.261 N 
ATOM     11  C   UNL     1      11.886   6.242   1.448  0.00  0.00    -0.019 C 
ATOM     12  C   UNL     1      12.939   5.570   0.459  0.00  0.00    +0.011 C 
ATOM     13  C   UNL     1      12.370   4.926  -0.863  0.00  0.00    +0.021 C 
ATOM     14  C   UNL     1      12.592   6.422   2.871  0.00  0.00    +0.054 C 
ATOM     15  C   UNL     1      10.669   5.297   1.623  0.00  0.00    +0.010 C 
ATOM     16  C   UNL     1      11.131   4.054  -0.514  0.00  0.00    +0.123 C 
ATOM     17  C   UNL     1      14.169   6.495   0.226  0.00  0.00    +0.049 C 
ATOM     18  C   UNL     1      10.084   4.795   0.310  0.00  0.00    +0.032 C 
ATOM     19  C   UNL     1      11.381   7.616   0.946  0.00  0.00    +0.012 C 
ATOM     20  C   UNL     1      13.970   7.014   2.722  0.00  0.00    +0.058 A 
ATOM     22  C   UNL     1      13.444   3.981  -1.470  0.00  0.00    +0.016 C 
ATOM     23  C   UNL     1      14.666   7.020   1.531  0.00  0.00    +0.015 A 
ATOM     26  C   UNL     1      15.826   7.974   3.398  0.00  0.00    +0.165 A 
ATOM     29  C   UNL     1      16.791   8.890   5.530  0.00  0.00    +0.255 C 
ATOM     40  H   UNL     1      17.638   8.799   3.619  0.00  0.00    +0.157 HD
ENDROOT
BRANCH  29  31
ATOM      2  F   UNL     1      19.299   7.599   5.514  0.00  0.00    -0.205 F 
ATOM      3  F   UNL     1      16.809  11.481   6.649  0.00  0.00    -0.205 F 
ATOM     31  C   UNL     1      18.022   9.524   6.068  0.00  0.00    +0.107 A 
ATOM     33  C   UNL     1      19.235   8.834   6.032  0.00  0.00    +0.138 A 
ATOM     34  C   UNL     1      17.968  10.809   6.609  0.00  0.00    +0.138 A 
ATOM     35  C   UNL     1      20.391   9.428   6.536  0.00  0.00    +0.039 A 
ATOM     36  C   UNL     1      19.124  11.403   7.113  0.00  0.00    +0.039 A 
ATOM     37  C   UNL     1      20.336  10.714   7.077  0.00  0.00    +0.006 A 
ENDBRANCH  29  31
BRANCH  16   4
ATOM      4  O   UNL     1      10.512   3.560  -1.703  0.00  0.00    -0.391 OA
ATOM     38  H   UNL     1       9.987   4.284  -2.085  0.00  0.00    +0.210 HD
ENDBRANCH  16   4
BRANCH  13  21
ATOM     21  C   UNL     1      12.031   5.941  -1.977  0.00  0.00    +0.165 C 
BRANCH  21   5
ATOM      5  O   UNL     1      12.269   5.316  -3.218  0.00  0.00    -0.394 OA
ATOM     39  H   UNL     1      12.768   5.944  -3.768  0.00  0.00    +0.209 HD
ENDBRANCH  21   5
ENDBRANCH  13  21
BRANCH  14  24
ATOM     24  C   UNL     1      11.758   7.192   3.903  0.00  0.00    +0.106 C 
BRANCH  24  25
ATOM      6  O   UNL     1      10.876   5.238   4.975  0.00  0.00    -0.276 OA
ATOM      9  N   UNL     1      11.734   6.894   6.354  0.00  0.00    -0.301 N 
ATOM     25  C   UNL     1      11.411   6.342   5.111  0.00  0.00    +0.216 C 
ATOM     28  C   UNL     1      12.365   8.201   6.488  0.00  0.00    +0.132 C 
BRANCH   9  27
ATOM     27  C   UNL     1      11.465   6.202   7.612  0.00  0.00    +0.134 C 
BRANCH  27  30
ATOM     30  C   UNL     1      10.130   6.626   8.127  0.00  0.00    -0.016 C 
ATOM     32  C   UNL     1       9.199   5.775   8.572  0.00  0.00    +0.005 C 
ENDBRANCH  27  30
ENDBRANCH   9  27
ENDBRANCH  24  25
ENDBRANCH  14  24
TORSDOF 8
ENDMDL
MODEL 10
REMARK VINA RESULT:      -5.8     15.027     17.620
REMARK  Name = 45361687
REMARK  11 active torsions:
REMARK  status: ('A' for Active; 'I' for Inactive)
REMARK    1  A    between atoms: O_4  and  C_16
REMARK    2  A    between atoms: O_5  and  C_21
REMARK    3  A    between atoms: N_9  and  C_27
REMARK    4  A    between atoms: N_9  and  C_28
REMARK    5  A    between atoms: C_11  and  C_19
REMARK    6  A    between atoms: C_13  and  C_21
REMARK    7  A    between atoms: C_13  and  C_22
REMARK    8  A    between atoms: C_14  and  C_24
REMARK    9  A    between atoms: C_24  and  C_25
REMARK   10  A    between atoms: C_27  and  C_30
REMARK   11  A    between atoms: C_29  and  C_31
REMARK                            x       y       z     vdW  Elec       q    Type
REMARK                         _______ _______ _______ _____ _____    ______ ____
ROOT
ATOM      1  S   UNL     1      16.681   7.675   2.034  0.00  0.00    -0.057 S 
ATOM      7  O   UNL     1      17.647   8.960   6.430  0.00  0.00    -0.270 OA
ATOM      8  N   UNL     1      15.701   7.839   4.423  0.00  0.00    -0.229 NA
ATOM     10  N   UNL     1      17.974   8.584   4.126  0.00  0.00    -0.261 N 
ATOM     11  C   UNL     1      12.302   6.752   2.961  0.00  0.00    -0.019 C 
ATOM     12  C   UNL     1      12.985   5.874   1.821  0.00  0.00    +0.011 C 
ATOM     13  C   UNL     1      12.028   5.219   0.752  0.00  0.00    +0.021 C 
ATOM     14  C   UNL     1      13.363   6.936   4.143  0.00  0.00    +0.054 C 
ATOM     15  C   UNL     1      11.071   5.996   3.524  0.00  0.00    +0.010 C 
ATOM     16  C   UNL     1      10.828   4.551   1.480  0.00  0.00    +0.123 C 
ATOM     17  C   UNL     1      14.212   6.604   1.201  0.00  0.00    +0.049 C 
ATOM     18  C   UNL     1      10.117   5.485   2.453  0.00  0.00    +0.032 C 
ATOM     19  C   UNL     1      11.845   8.142   2.457  0.00  0.00    +0.012 C 
ATOM     20  C   UNL     1      14.715   7.324   3.602  0.00  0.00    +0.058 A 
ATOM     22  C   UNL     1      12.798   4.096   0.002  0.00  0.00    +0.016 C 
ATOM     23  C   UNL     1      15.081   7.149   2.283  0.00  0.00    +0.015 A 
ATOM     26  C   UNL     1      16.779   8.069   3.702  0.00  0.00    +0.165 A 
ATOM     29  C   UNL     1      18.353   8.997   5.428  0.00  0.00    +0.255 C 
ATOM     40  H   UNL     1      18.669   8.654   3.387  0.00  0.00    +0.157 HD
ENDROOT
BRANCH  29  31
ATOM      2  F   UNL     1      18.996  11.744   5.425  0.00  0.00    -0.205 F 
ATOM      3  F   UNL     1      20.563   7.271   5.743  0.00  0.00    -0.205 F 
ATOM     31  C   UNL     1      19.744   9.495   5.580  0.00  0.00    +0.107 A 
ATOM     33  C   UNL     1      20.000  10.866   5.571  0.00  0.00    +0.138 A 
ATOM     34  C   UNL     1      20.796   8.591   5.732  0.00  0.00    +0.138 A 
ATOM     35  C   UNL     1      21.306  11.334   5.714  0.00  0.00    +0.039 A 
ATOM     36  C   UNL     1      22.102   9.059   5.876  0.00  0.00    +0.039 A 
ATOM     37  C   UNL     1      22.358  10.429   5.867  0.00  0.00    +0.006 A 
ENDBRANCH  29  31
BRANCH  16   4
ATOM      4  O   UNL     1       9.875   4.061   0.536  0.00  0.00    -0.391 OA
ATOM     38  H   UNL     1      10.005   3.101   0.456  0.00  0.00    +0.210 HD
ENDBRANCH  16   4
BRANCH  13  21
ATOM     21  C   UNL     1      11.535   6.189  -0.345  0.00  0.00    +0.165 C 
BRANCH  21   5
ATOM      5  O   UNL     1      11.405   5.456  -1.543  0.00  0.00    -0.394 OA
ATOM     39  H   UNL     1      11.847   5.965  -2.243  0.00  0.00    +0.209 HD
ENDBRANCH  21   5
ENDBRANCH  13  21
BRANCH  14  24
ATOM     24  C   UNL     1      12.912   7.886   5.261  0.00  0.00    +0.106 C 
BRANCH  24  25
ATOM      6  O   UNL     1      13.289   6.451   7.144  0.00  0.00    -0.276 OA
ATOM      9  N   UNL     1      11.143   7.287   6.875  0.00  0.00    -0.301 N 
ATOM     25  C   UNL     1      12.485   7.139   6.510  0.00  0.00    +0.216 C 
ATOM     28  C   UNL     1      10.211   8.106   6.110  0.00  0.00    +0.132 C 
BRANCH   9  27
ATOM     27  C   UNL     1      10.575   6.634   8.053  0.00  0.00    +0.134 C 
BRANCH  27  30
ATOM     30  C   UNL     1       9.853   5.400   7.626  0.00  0.00    -0.016 C 
ATOM     32  C   UNL     1       9.791   4.282   8.358  0.00  0.00    +0.005 C 
ENDBRANCH  27  30
ENDBRANCH   9  27
ENDBRANCH  24  25
ENDBRANCH  14  24
TORSDOF 8
ENDMDL
