MODEL 1
REMARK VINA RESULT:      -7.6      0.000      0.000
REMARK  Name = 51136878
REMARK  7 active torsions:
REMARK  status: ('A' for Active; 'I' for Inactive)
REMARK    1  A    between atoms: O_2  and  C_25
REMARK    2  A    between atoms: O_2  and  C_28
REMARK    3  A    between atoms: N_4  and  C_14
REMARK    4  A    between atoms: N_8  and  C_20
REMARK    5  A    between atoms: C_9  and  C_13
REMARK    6  A    between atoms: C_15  and  C_16
REMARK    7  A    between atoms: C_21  and  C_22
REMARK                            x       y       z     vdW  Elec       q    Type
REMARK                         _______ _______ _______ _____ _____    ______ ____
ROOT
ATOM      7  N   UNL     1      17.699   5.575  18.945  0.00  0.00    -0.239 NA
ATOM     16  C   UNL     1      15.987   7.037  19.826  0.00  0.00    +0.041 A 
ATOM     17  C   UNL     1      16.741   7.240  20.976  0.00  0.00    +0.016 A 
ATOM     18  C   UNL     1      16.505   6.203  18.848  0.00  0.00    +0.124 A 
ATOM     19  C   UNL     1      17.974   6.611  21.112  0.00  0.00    +0.044 A 
ATOM     20  C   UNL     1      18.404   5.796  20.077  0.00  0.00    +0.125 A 
ENDROOT
BRANCH  16  15
ATOM      1  O   UNL     1      12.983   8.565  18.772  0.00  0.00    -0.336 OA
ATOM      5  N   UNL     1      13.930   8.006  20.724  0.00  0.00    -0.190 NA
ATOM      6  N   UNL     1      14.212   7.975  18.453  0.00  0.00    -0.056 NA
ATOM     13  C   UNL     1      12.896   8.544  20.128  0.00  0.00    +0.245 A 
ATOM     15  C   UNL     1      14.711   7.672  19.656  0.00  0.00    +0.204 A 
BRANCH  13   9
ATOM      4  N   UNL     1      11.316   8.553  22.051  0.00  0.00    -0.294 NA
ATOM      9  C   UNL     1      11.639   9.133  20.732  0.00  0.00    +0.146 C 
ATOM     10  C   UNL     1      11.756  10.647  20.989  0.00  0.00    +0.030 C 
ATOM     11  C   UNL     1      11.424  10.827  22.463  0.00  0.00    +0.017 C 
ATOM     12  C   UNL     1      10.610   9.594  22.800  0.00  0.00    +0.085 C 
ATOM     14  C   UNL     1      10.543   7.321  21.963  0.00  0.00    +0.105 C 
ENDBRANCH  13   9
ENDBRANCH  16  15
BRANCH  20   8
ATOM      3  O   UNL     1      21.117   6.963  20.590  0.00  0.00    -0.270 OA
ATOM      8  N   UNL     1      19.645   5.167  20.224  0.00  0.00    -0.266 N 
ATOM     22  C   UNL     1      20.887   5.765  20.464  0.00  0.00    +0.249 C 
ATOM     29  H   UNL     1      19.582   4.155  20.183  0.00  0.00    +0.157 HD
BRANCH  22  21
ATOM     21  C   UNL     1      22.028   4.822  20.601  0.00  0.00    +0.037 A 
ATOM     23  C   UNL     1      21.844   3.593  21.237  0.00  0.00    +0.016 A 
ATOM     24  C   UNL     1      23.282   5.166  20.098  0.00  0.00    +0.016 A 
ATOM     25  C   UNL     1      24.169   3.054  20.864  0.00  0.00    +0.120 A 
ATOM     26  C   UNL     1      22.915   2.709  21.368  0.00  0.00    +0.046 A 
ATOM     27  C   UNL     1      24.353   4.282  20.229  0.00  0.00    +0.046 A 
BRANCH  25   2
ATOM      2  O   UNL     1      25.214   2.190  20.992  0.00  0.00    -0.495 OA
ATOM     28  C   UNL     1      24.938   0.924  21.589  0.00  0.00    +0.277 C 
ENDBRANCH  25   2
ENDBRANCH  22  21
ENDBRANCH  20   8
TORSDOF 5
ENDMDL
MODEL 2
REMARK VINA RESULT:      -7.2     29.110     32.534
REMARK  Name = 51136878
REMARK  7 active torsions:
REMARK  status: ('A' for Active; 'I' for Inactive)
REMARK    1  A    between atoms: O_2  and  C_25
REMARK    2  A    between atoms: O_2  and  C_28
REMARK    3  A    between atoms: N_4  and  C_14
REMARK    4  A    between atoms: N_8  and  C_20
REMARK    5  A    between atoms: C_9  and  C_13
REMARK    6  A    between atoms: C_15  and  C_16
REMARK    7  A    between atoms: C_21  and  C_22
REMARK                            x       y       z     vdW  Elec       q    Type
REMARK                         _______ _______ _______ _____ _____    ______ ____
ROOT
ATOM      7  N   UNL     1     -15.254   6.481  22.845  0.00  0.00    -0.239 NA
ATOM     16  C   UNL     1     -13.573   6.913  21.163  0.00  0.00    +0.041 A 
ATOM     17  C   UNL     1     -12.855   5.798  21.582  0.00  0.00    +0.016 A 
ATOM     18  C   UNL     1     -14.756   7.209  21.821  0.00  0.00    +0.124 A 
ATOM     19  C   UNL     1     -13.336   5.024  22.632  0.00  0.00    +0.044 A 
ATOM     20  C   UNL     1     -14.530   5.404  23.225  0.00  0.00    +0.125 A 
ENDROOT
BRANCH  16  15
ATOM      1  O   UNL     1     -13.048   9.001  18.364  0.00  0.00    -0.336 OA
ATOM      5  N   UNL     1     -11.771   7.942  19.870  0.00  0.00    -0.190 NA
ATOM      6  N   UNL     1     -13.931   8.333  19.222  0.00  0.00    -0.056 NA
ATOM     13  C   UNL     1     -11.797   8.718  18.817  0.00  0.00    +0.245 A 
ATOM     15  C   UNL     1     -13.102   7.731  20.082  0.00  0.00    +0.204 A 
BRANCH  13   9
ATOM      4  N   UNL     1     -10.968   9.553  16.624  0.00  0.00    -0.294 NA
ATOM      9  C   UNL     1     -10.647   9.334  18.048  0.00  0.00    +0.146 C 
ATOM     10  C   UNL     1     -10.255  10.726  18.579  0.00  0.00    +0.030 C 
ATOM     11  C   UNL     1     -10.328  11.647  17.370  0.00  0.00    +0.017 C 
ATOM     12  C   UNL     1     -10.176  10.705  16.193  0.00  0.00    +0.085 C 
ATOM     14  C   UNL     1     -10.727   8.380  15.794  0.00  0.00    +0.105 C 
ENDBRANCH  13   9
ENDBRANCH  16  15
BRANCH  20   8
ATOM      3  O   UNL     1     -16.215   2.924  23.190  0.00  0.00    -0.270 OA
ATOM      8  N   UNL     1     -15.004   4.618  24.281  0.00  0.00    -0.266 N 
ATOM     22  C   UNL     1     -15.791   3.465  24.206  0.00  0.00    +0.249 C 
ATOM     29  H   UNL     1     -14.681   4.941  25.188  0.00  0.00    +0.157 HD
BRANCH  22  21
ATOM     21  C   UNL     1     -16.113   2.831  25.512  0.00  0.00    +0.037 A 
ATOM     23  C   UNL     1     -16.515   1.496  25.559  0.00  0.00    +0.016 A 
ATOM     24  C   UNL     1     -16.015   3.572  26.689  0.00  0.00    +0.016 A 
ATOM     25  C   UNL     1     -16.720   1.644  27.962  0.00  0.00    +0.120 A 
ATOM     26  C   UNL     1     -16.819   0.902  26.785  0.00  0.00    +0.046 A 
ATOM     27  C   UNL     1     -16.319   2.979  27.915  0.00  0.00    +0.046 A 
BRANCH  25   2
ATOM      2  O   UNL     1     -17.017   1.064  29.157  0.00  0.00    -0.495 OA
ATOM     28  C   UNL     1     -15.925   0.548  29.917  0.00  0.00    +0.277 C 
ENDBRANCH  25   2
ENDBRANCH  22  21
ENDBRANCH  20   8
TORSDOF 5
ENDMDL
MODEL 3
REMARK VINA RESULT:      -7.0      2.449     10.945
REMARK  Name = 51136878
REMARK  7 active torsions:
REMARK  status: ('A' for Active; 'I' for Inactive)
REMARK    1  A    between atoms: O_2  and  C_25
REMARK    2  A    between atoms: O_2  and  C_28
REMARK    3  A    between atoms: N_4  and  C_14
REMARK    4  A    between atoms: N_8  and  C_20
REMARK    5  A    between atoms: C_9  and  C_13
REMARK    6  A    between atoms: C_15  and  C_16
REMARK    7  A    between atoms: C_21  and  C_22
REMARK                            x       y       z     vdW  Elec       q    Type
REMARK                         _______ _______ _______ _____ _____    ______ ____
ROOT
ATOM      7  N   UNL     1      17.830   7.335  20.960  0.00  0.00    -0.239 NA
ATOM     16  C   UNL     1      19.721   5.830  20.901  0.00  0.00    +0.041 A 
ATOM     17  C   UNL     1      19.152   5.144  19.835  0.00  0.00    +0.016 A 
ATOM     18  C   UNL     1      19.026   6.910  21.424  0.00  0.00    +0.124 A 
ATOM     19  C   UNL     1      17.922   5.552  19.330  0.00  0.00    +0.044 A 
ATOM     20  C   UNL     1      17.308   6.644  19.922  0.00  0.00    +0.125 A 
ENDROOT
BRANCH  16  15
ATOM      1  O   UNL     1      22.576   5.011  22.811  0.00  0.00    -0.336 OA
ATOM      5  N   UNL     1      22.000   4.984  20.646  0.00  0.00    -0.190 NA
ATOM      6  N   UNL     1      21.257   5.478  22.753  0.00  0.00    -0.056 NA
ATOM     13  C   UNL     1      22.937   4.744  21.528  0.00  0.00    +0.245 A 
ATOM     15  C   UNL     1      20.989   5.433  21.444  0.00  0.00    +0.204 A 
BRANCH  13   9
ATOM      4  N   UNL     1      24.401   3.145  20.306  0.00  0.00    -0.294 NA
ATOM      9  C   UNL     1      24.341   4.217  21.319  0.00  0.00    +0.146 C 
ATOM     10  C   UNL     1      25.311   5.297  20.803  0.00  0.00    +0.030 C 
ATOM     11  C   UNL     1      25.910   4.716  19.530  0.00  0.00    +0.017 C 
ATOM     12  C   UNL     1      25.730   3.221  19.699  0.00  0.00    +0.085 C 
ATOM     14  C   UNL     1      24.123   1.822  20.853  0.00  0.00    +0.105 C 
ENDBRANCH  13   9
ENDBRANCH  16  15
BRANCH  20   8
ATOM      3  O   UNL     1      14.615   6.782  21.234  0.00  0.00    -0.270 OA
ATOM      8  N   UNL     1      16.071   7.046  19.407  0.00  0.00    -0.266 N 
ATOM     22  C   UNL     1      14.839   7.091  20.068  0.00  0.00    +0.249 C 
ATOM     29  H   UNL     1      16.131   7.372  18.447  0.00  0.00    +0.157 HD
BRANCH  22  21
ATOM     21  C   UNL     1      13.701   7.595  19.255  0.00  0.00    +0.037 A 
ATOM     23  C   UNL     1      13.832   7.712  17.870  0.00  0.00    +0.016 A 
ATOM     24  C   UNL     1      12.505   7.952  19.875  0.00  0.00    +0.016 A 
ATOM     25  C   UNL     1      11.568   8.544  17.728  0.00  0.00    +0.120 A 
ATOM     26  C   UNL     1      12.765   8.187  17.107  0.00  0.00    +0.046 A 
ATOM     27  C   UNL     1      11.438   8.428  19.112  0.00  0.00    +0.046 A 
BRANCH  25   2
ATOM      2  O   UNL     1      10.528   9.008  16.983  0.00  0.00    -0.495 OA
ATOM     28  C   UNL     1      10.765   9.202  15.589  0.00  0.00    +0.277 C 
ENDBRANCH  25   2
ENDBRANCH  22  21
ENDBRANCH  20   8
TORSDOF 5
ENDMDL
MODEL 4
REMARK VINA RESULT:      -7.0     28.730     32.047
REMARK  Name = 51136878
REMARK  7 active torsions:
REMARK  status: ('A' for Active; 'I' for Inactive)
REMARK    1  A    between atoms: O_2  and  C_25
REMARK    2  A    between atoms: O_2  and  C_28
REMARK    3  A    between atoms: N_4  and  C_14
REMARK    4  A    between atoms: N_8  and  C_20
REMARK    5  A    between atoms: C_9  and  C_13
REMARK    6  A    between atoms: C_15  and  C_16
REMARK    7  A    between atoms: C_21  and  C_22
REMARK                            x       y       z     vdW  Elec       q    Type
REMARK                         _______ _______ _______ _____ _____    ______ ____
ROOT
ATOM      7  N   UNL     1     -12.592   5.943  21.696  0.00  0.00    -0.239 NA
ATOM     16  C   UNL     1     -14.693   4.974  22.397  0.00  0.00    +0.041 A 
ATOM     17  C   UNL     1     -15.378   5.796  21.510  0.00  0.00    +0.016 A 
ATOM     18  C   UNL     1     -13.312   5.085  22.453  0.00  0.00    +0.124 A 
ATOM     19  C   UNL     1     -14.671   6.692  20.714  0.00  0.00    +0.044 A 
ATOM     20  C   UNL     1     -13.291   6.726  20.844  0.00  0.00    +0.125 A 
ENDROOT
BRANCH  16  15
ATOM      1  O   UNL     1     -16.670   2.455  23.887  0.00  0.00    -0.336 OA
ATOM      5  N   UNL     1     -15.244   4.036  24.586  0.00  0.00    -0.190 NA
ATOM      6  N   UNL     1     -16.231   3.121  22.735  0.00  0.00    -0.056 NA
ATOM     13  C   UNL     1     -16.041   3.056  24.932  0.00  0.00    +0.245 A 
ATOM     15  C   UNL     1     -15.394   4.039  23.230  0.00  0.00    +0.204 A 
BRANCH  13   9
ATOM      4  N   UNL     1     -17.514   3.170  26.934  0.00  0.00    -0.294 NA
ATOM      9  C   UNL     1     -16.350   2.510  26.309  0.00  0.00    +0.146 C 
ATOM     10  C   UNL     1     -16.715   1.013  26.287  0.00  0.00    +0.030 C 
ATOM     11  C   UNL     1     -18.070   0.925  26.973  0.00  0.00    +0.017 C 
ATOM     12  C   UNL     1     -18.125   2.180  27.821  0.00  0.00    +0.085 C 
ATOM     14  C   UNL     1     -17.168   4.398  27.639  0.00  0.00    +0.105 C 
ENDBRANCH  13   9
ENDBRANCH  16  15
BRANCH  20   8
ATOM      3  O   UNL     1     -11.146   6.247  18.806  0.00  0.00    -0.270 OA
ATOM      8  N   UNL     1     -12.590   7.631  20.040  0.00  0.00    -0.266 N 
ATOM     22  C   UNL     1     -11.593   7.350  19.101  0.00  0.00    +0.249 C 
ATOM     29  H   UNL     1     -12.903   8.590  20.160  0.00  0.00    +0.157 HD
BRANCH  22  21
ATOM     21  C   UNL     1     -11.053   8.532  18.377  0.00  0.00    +0.037 A 
ATOM     23  C   UNL     1     -10.740   9.696  19.080  0.00  0.00    +0.016 A 
ATOM     24  C   UNL     1     -10.861   8.477  16.997  0.00  0.00    +0.016 A 
ATOM     25  C   UNL     1     -10.044  10.750  17.021  0.00  0.00    +0.120 A 
ATOM     26  C   UNL     1     -10.236  10.806  18.402  0.00  0.00    +0.046 A 
ATOM     27  C   UNL     1     -10.357   9.587  16.319  0.00  0.00    +0.046 A 
BRANCH  25   2
ATOM      2  O   UNL     1      -9.552  11.833  16.360  0.00  0.00    -0.495 OA
ATOM     28  C   UNL     1      -9.262  12.992  17.139  0.00  0.00    +0.277 C 
ENDBRANCH  25   2
ENDBRANCH  22  21
ENDBRANCH  20   8
TORSDOF 5
ENDMDL
MODEL 5
REMARK VINA RESULT:      -6.8      2.376     10.818
REMARK  Name = 51136878
REMARK  7 active torsions:
REMARK  status: ('A' for Active; 'I' for Inactive)
REMARK    1  A    between atoms: O_2  and  C_25
REMARK    2  A    between atoms: O_2  and  C_28
REMARK    3  A    between atoms: N_4  and  C_14
REMARK    4  A    between atoms: N_8  and  C_20
REMARK    5  A    between atoms: C_9  and  C_13
REMARK    6  A    between atoms: C_15  and  C_16
REMARK    7  A    between atoms: C_21  and  C_22
REMARK                            x       y       z     vdW  Elec       q    Type
REMARK                         _______ _______ _______ _____ _____    ______ ____
ROOT
ATOM      7  N   UNL     1      18.309   5.283  19.552  0.00  0.00    -0.239 NA
ATOM     16  C   UNL     1      20.343   5.766  20.765  0.00  0.00    +0.041 A 
ATOM     17  C   UNL     1      19.786   6.945  21.247  0.00  0.00    +0.016 A 
ATOM     18  C   UNL     1      19.571   4.976  19.928  0.00  0.00    +0.124 A 
ATOM     19  C   UNL     1      18.490   7.293  20.883  0.00  0.00    +0.044 A 
ATOM     20  C   UNL     1      17.799   6.436  20.041  0.00  0.00    +0.125 A 
ENDROOT
BRANCH  16  15
ATOM      1  O   UNL     1      23.790   5.412  21.448  0.00  0.00    -0.336 OA
ATOM      5  N   UNL     1      21.953   4.141  21.629  0.00  0.00    -0.190 NA
ATOM      6  N   UNL     1      22.726   6.197  20.986  0.00  0.00    -0.056 NA
ATOM     13  C   UNL     1      23.248   4.218  21.807  0.00  0.00    +0.245 A 
ATOM     15  C   UNL     1      21.678   5.379  21.123  0.00  0.00    +0.204 A 
BRANCH  13   9
ATOM      4  N   UNL     1      23.535   2.176  23.199  0.00  0.00    -0.294 NA
ATOM      9  C   UNL     1      24.206   3.178  22.349  0.00  0.00    +0.146 C 
ATOM     10  C   UNL     1      24.883   2.357  21.235  0.00  0.00    +0.030 C 
ATOM     11  C   UNL     1      24.588   0.904  21.579  0.00  0.00    +0.017 C 
ATOM     12  C   UNL     1      24.305   0.939  23.067  0.00  0.00    +0.085 C 
ATOM     14  C   UNL     1      23.406   2.595  24.589  0.00  0.00    +0.105 C 
ENDBRANCH  13   9
ENDBRANCH  16  15
BRANCH  20   8
ATOM      3  O   UNL     1      15.394   6.972  21.749  0.00  0.00    -0.270 OA
ATOM      8  N   UNL     1      16.497   6.797  19.680  0.00  0.00    -0.266 N 
ATOM     22  C   UNL     1      15.407   7.036  20.524  0.00  0.00    +0.249 C 
ATOM     29  H   UNL     1      16.387   6.927  18.678  0.00  0.00    +0.157 HD
BRANCH  22  21
ATOM     21  C   UNL     1      14.149   7.433  19.838  0.00  0.00    +0.037 A 
ATOM     23  C   UNL     1      14.190   7.899  18.523  0.00  0.00    +0.016 A 
ATOM     24  C   UNL     1      12.930   7.342  20.509  0.00  0.00    +0.016 A 
ATOM     25  C   UNL     1      11.791   8.183  18.551  0.00  0.00    +0.120 A 
ATOM     26  C   UNL     1      13.010   8.275  17.880  0.00  0.00    +0.046 A 
ATOM     27  C   UNL     1      11.751   7.718  19.865  0.00  0.00    +0.046 A 
BRANCH  25   2
ATOM      2  O   UNL     1      10.640   8.549  17.923  0.00  0.00    -0.495 OA
ATOM     28  C   UNL     1      10.679   8.638  16.499  0.00  0.00    +0.277 C 
ENDBRANCH  25   2
ENDBRANCH  22  21
ENDBRANCH  20   8
TORSDOF 5
ENDMDL
MODEL 6
REMARK VINA RESULT:      -6.7     28.847     32.305
REMARK  Name = 51136878
REMARK  7 active torsions:
REMARK  status: ('A' for Active; 'I' for Inactive)
REMARK    1  A    between atoms: O_2  and  C_25
REMARK    2  A    between atoms: O_2  and  C_28
REMARK    3  A    between atoms: N_4  and  C_14
REMARK    4  A    between atoms: N_8  and  C_20
REMARK    5  A    between atoms: C_9  and  C_13
REMARK    6  A    between atoms: C_15  and  C_16
REMARK    7  A    between atoms: C_21  and  C_22
REMARK                            x       y       z     vdW  Elec       q    Type
REMARK                         _______ _______ _______ _____ _____    ______ ____
ROOT
ATOM      7  N   UNL     1     -14.832   7.238  21.658  0.00  0.00    -0.239 NA
ATOM     16  C   UNL     1     -14.840   5.107  22.801  0.00  0.00    +0.041 A 
ATOM     17  C   UNL     1     -13.507   4.909  22.457  0.00  0.00    +0.016 A 
ATOM     18  C   UNL     1     -15.452   6.277  22.380  0.00  0.00    +0.124 A 
ATOM     19  C   UNL     1     -12.836   5.875  21.715  0.00  0.00    +0.044 A 
ATOM     20  C   UNL     1     -13.537   7.011  21.344  0.00  0.00    +0.125 A 
ENDROOT
BRANCH  16  15
ATOM      1  O   UNL     1     -16.660   2.382  24.117  0.00  0.00    -0.336 OA
ATOM      5  N   UNL     1     -15.776   4.285  24.904  0.00  0.00    -0.190 NA
ATOM      6  N   UNL     1     -16.057   3.014  23.022  0.00  0.00    -0.056 NA
ATOM     13  C   UNL     1     -16.448   3.197  25.185  0.00  0.00    +0.245 A 
ATOM     15  C   UNL     1     -15.559   4.129  23.566  0.00  0.00    +0.204 A 
BRANCH  13   9
ATOM      4  N   UNL     1     -16.881   1.272  26.701  0.00  0.00    -0.294 NA
ATOM      9  C   UNL     1     -17.009   2.730  26.511  0.00  0.00    +0.146 C 
ATOM     10  C   UNL     1     -16.277   3.348  27.717  0.00  0.00    +0.030 C 
ATOM     11  C   UNL     1     -15.825   2.162  28.556  0.00  0.00    +0.017 C 
ATOM     12  C   UNL     1     -16.767   1.050  28.142  0.00  0.00    +0.085 C 
ATOM     14  C   UNL     1     -17.981   0.518  26.114  0.00  0.00    +0.105 C 
ENDBRANCH  13   9
ENDBRANCH  16  15
BRANCH  20   8
ATOM      3  O   UNL     1     -12.644   9.772  22.100  0.00  0.00    -0.270 OA
ATOM      8  N   UNL     1     -12.852   7.976  20.597  0.00  0.00    -0.266 N 
ATOM     22  C   UNL     1     -12.459   9.255  21.003  0.00  0.00    +0.249 C 
ATOM     29  H   UNL     1     -12.598   7.649  19.669  0.00  0.00    +0.157 HD
BRANCH  22  21
ATOM     21  C   UNL     1     -11.715  10.042  19.983  0.00  0.00    +0.037 A 
ATOM     23  C   UNL     1     -10.718   9.431  19.222  0.00  0.00    +0.016 A 
ATOM     24  C   UNL     1     -12.013  11.391  19.790  0.00  0.00    +0.016 A 
ATOM     25  C   UNL     1     -10.318  11.519  18.074  0.00  0.00    +0.120 A 
ATOM     26  C   UNL     1     -10.019  10.170  18.267  0.00  0.00    +0.046 A 
ATOM     27  C   UNL     1     -11.314  12.130  18.835  0.00  0.00    +0.046 A 
BRANCH  25   2
ATOM      2  O   UNL     1      -9.635  12.239  17.142  0.00  0.00    -0.495 OA
ATOM     28  C   UNL     1      -9.624  13.657  17.299  0.00  0.00    +0.277 C 
ENDBRANCH  25   2
ENDBRANCH  22  21
ENDBRANCH  20   8
TORSDOF 5
ENDMDL
MODEL 7
REMARK VINA RESULT:      -6.5     28.213     30.914
REMARK  Name = 51136878
REMARK  7 active torsions:
REMARK  status: ('A' for Active; 'I' for Inactive)
REMARK    1  A    between atoms: O_2  and  C_25
REMARK    2  A    between atoms: O_2  and  C_28
REMARK    3  A    between atoms: N_4  and  C_14
REMARK    4  A    between atoms: N_8  and  C_20
REMARK    5  A    between atoms: C_9  and  C_13
REMARK    6  A    between atoms: C_15  and  C_16
REMARK    7  A    between atoms: C_21  and  C_22
REMARK                            x       y       z     vdW  Elec       q    Type
REMARK                         _______ _______ _______ _____ _____    ______ ____
ROOT
ATOM      7  N   UNL     1      -5.201 -11.986  10.777  0.00  0.00    -0.239 NA
ATOM     16  C   UNL     1      -3.985 -10.958  12.596  0.00  0.00    +0.041 A 
ATOM     17  C   UNL     1      -3.129 -10.345  11.689  0.00  0.00    +0.016 A 
ATOM     18  C   UNL     1      -4.997 -11.763  12.095  0.00  0.00    +0.124 A 
ATOM     19  C   UNL     1      -3.308 -10.551  10.325  0.00  0.00    +0.044 A 
ATOM     20  C   UNL     1      -4.349 -11.373   9.924  0.00  0.00    +0.125 A 
ENDROOT
BRANCH  16  15
ATOM      1  O   UNL     1      -2.958 -10.453  15.937  0.00  0.00    -0.336 OA
ATOM      5  N   UNL     1      -4.898 -10.735  14.853  0.00  0.00    -0.190 NA
ATOM      6  N   UNL     1      -2.630 -10.602  14.583  0.00  0.00    -0.056 NA
ATOM     13  C   UNL     1      -4.312 -10.544  16.008  0.00  0.00    +0.245 A 
ATOM     15  C   UNL     1      -3.826 -10.764  14.009  0.00  0.00    +0.204 A 
BRANCH  13   9
ATOM      4  N   UNL     1      -6.383 -10.647  17.385  0.00  0.00    -0.294 NA
ATOM      9  C   UNL     1      -4.926 -10.411  17.386  0.00  0.00    +0.146 C 
ATOM     10  C   UNL     1      -4.364 -11.438  18.388  0.00  0.00    +0.030 C 
ATOM     11  C   UNL     1      -5.584 -12.161  18.940  0.00  0.00    +0.017 C 
ATOM     12  C   UNL     1      -6.717 -11.183  18.704  0.00  0.00    +0.085 C 
ATOM     14  C   UNL     1      -7.157  -9.454  17.065  0.00  0.00    +0.105 C 
ENDBRANCH  13   9
ENDBRANCH  16  15
BRANCH  20   8
ATOM      3  O   UNL     1      -5.723  -9.671   7.873  0.00  0.00    -0.270 OA
ATOM      8  N   UNL     1      -4.520 -11.574   8.550  0.00  0.00    -0.266 N 
ATOM     22  C   UNL     1      -5.173 -10.742   7.636  0.00  0.00    +0.249 C 
ATOM     29  H   UNL     1      -4.065 -12.419   8.216  0.00  0.00    +0.157 HD
BRANCH  22  21
ATOM     21  C   UNL     1      -5.163 -11.218   6.227  0.00  0.00    +0.037 A 
ATOM     23  C   UNL     1      -6.262 -10.976   5.402  0.00  0.00    +0.016 A 
ATOM     24  C   UNL     1      -4.057 -11.907   5.731  0.00  0.00    +0.016 A 
ATOM     25  C   UNL     1      -5.147 -12.114   3.585  0.00  0.00    +0.120 A 
ATOM     26  C   UNL     1      -6.254 -11.425   4.081  0.00  0.00    +0.046 A 
ATOM     27  C   UNL     1      -4.049 -12.355   4.410  0.00  0.00    +0.046 A 
BRANCH  25   2
ATOM      2  O   UNL     1      -5.139 -12.550   2.296  0.00  0.00    -0.495 OA
ATOM     28  C   UNL     1      -3.950 -13.189   1.835  0.00  0.00    +0.277 C 
ENDBRANCH  25   2
ENDBRANCH  22  21
ENDBRANCH  20   8
TORSDOF 5
ENDMDL
MODEL 8
REMARK VINA RESULT:      -6.4      2.673     11.052
REMARK  Name = 51136878
REMARK  7 active torsions:
REMARK  status: ('A' for Active; 'I' for Inactive)
REMARK    1  A    between atoms: O_2  and  C_25
REMARK    2  A    between atoms: O_2  and  C_28
REMARK    3  A    between atoms: N_4  and  C_14
REMARK    4  A    between atoms: N_8  and  C_20
REMARK    5  A    between atoms: C_9  and  C_13
REMARK    6  A    between atoms: C_15  and  C_16
REMARK    7  A    between atoms: C_21  and  C_22
REMARK                            x       y       z     vdW  Elec       q    Type
REMARK                         _______ _______ _______ _____ _____    ______ ____
ROOT
ATOM      7  N   UNL     1      19.208   5.091  20.074  0.00  0.00    -0.239 NA
ATOM     16  C   UNL     1      21.347   5.610  21.072  0.00  0.00    +0.041 A 
ATOM     17  C   UNL     1      20.821   6.777  21.613  0.00  0.00    +0.016 A 
ATOM     18  C   UNL     1      20.507   4.808  20.316  0.00  0.00    +0.124 A 
ATOM     19  C   UNL     1      19.488   7.103  21.385  0.00  0.00    +0.044 A 
ATOM     20  C   UNL     1      18.731   6.234  20.616  0.00  0.00    +0.125 A 
ENDROOT
BRANCH  16  15
ATOM      1  O   UNL     1      24.488   4.379  22.115  0.00  0.00    -0.336 OA
ATOM      5  N   UNL     1      23.717   5.697  20.476  0.00  0.00    -0.190 NA
ATOM      6  N   UNL     1      23.101   4.451  22.294  0.00  0.00    -0.056 NA
ATOM     13  C   UNL     1      24.767   5.140  21.024  0.00  0.00    +0.245 A 
ATOM     15  C   UNL     1      22.718   5.247  21.290  0.00  0.00    +0.204 A 
BRANCH  13   9
ATOM      4  N   UNL     1      26.421   4.988  19.172  0.00  0.00    -0.294 NA
ATOM      9  C   UNL     1      26.222   5.225  20.615  0.00  0.00    +0.146 C 
ATOM     10  C   UNL     1      26.831   6.617  20.870  0.00  0.00    +0.030 C 
ATOM     11  C   UNL     1      27.400   7.053  19.528  0.00  0.00    +0.017 C 
ATOM     12  C   UNL     1      27.611   5.748  18.787  0.00  0.00    +0.085 C 
ATOM     14  C   UNL     1      26.541   3.575  18.833  0.00  0.00    +0.105 C 
ENDBRANCH  13   9
ENDBRANCH  16  15
BRANCH  20   8
ATOM      3  O   UNL     1      16.910   5.531  18.340  0.00  0.00    -0.270 OA
ATOM      8  N   UNL     1      17.391   6.572  20.392  0.00  0.00    -0.266 N 
ATOM     22  C   UNL     1      16.586   6.214  19.306  0.00  0.00    +0.249 C 
ATOM     29  H   UNL     1      16.987   7.108  21.154  0.00  0.00    +0.157 HD
BRANCH  22  21
ATOM     21  C   UNL     1      15.184   6.705  19.368  0.00  0.00    +0.037 A 
ATOM     23  C   UNL     1      14.451   6.575  20.548  0.00  0.00    +0.016 A 
ATOM     24  C   UNL     1      14.602   7.294  18.246  0.00  0.00    +0.016 A 
ATOM     25  C   UNL     1      12.553   7.623  19.483  0.00  0.00    +0.120 A 
ATOM     26  C   UNL     1      13.135   7.033  20.606  0.00  0.00    +0.046 A 
ATOM     27  C   UNL     1      13.285   7.753  18.304  0.00  0.00    +0.046 A 
BRANCH  25   2
ATOM      2  O   UNL     1      11.268   8.070  19.540  0.00  0.00    -0.495 OA
ATOM     28  C   UNL     1      10.713   8.284  20.837  0.00  0.00    +0.277 C 
ENDBRANCH  25   2
ENDBRANCH  22  21
ENDBRANCH  20   8
TORSDOF 5
ENDMDL
MODEL 9
REMARK VINA RESULT:      -6.4     29.801     33.605
REMARK  Name = 51136878
REMARK  7 active torsions:
REMARK  status: ('A' for Active; 'I' for Inactive)
REMARK    1  A    between atoms: O_2  and  C_25
REMARK    2  A    between atoms: O_2  and  C_28
REMARK    3  A    between atoms: N_4  and  C_14
REMARK    4  A    between atoms: N_8  and  C_20
REMARK    5  A    between atoms: C_9  and  C_13
REMARK    6  A    between atoms: C_15  and  C_16
REMARK    7  A    between atoms: C_21  and  C_22
REMARK                            x       y       z     vdW  Elec       q    Type
REMARK                         _______ _______ _______ _____ _____    ______ ____
ROOT
ATOM      7  N   UNL     1     -11.249  -8.645  14.922  0.00  0.00    -0.239 NA
ATOM     16  C   UNL     1     -10.067  -9.022  16.997  0.00  0.00    +0.041 A 
ATOM     17  C   UNL     1     -10.117  -7.663  17.282  0.00  0.00    +0.016 A 
ATOM     18  C   UNL     1     -10.642  -9.460  15.814  0.00  0.00    +0.124 A 
ATOM     19  C   UNL     1     -10.734  -6.793  16.388  0.00  0.00    +0.044 A 
ATOM     20  C   UNL     1     -11.280  -7.330  15.233  0.00  0.00    +0.125 A 
ENDROOT
BRANCH  16  15
ATOM      1  O   UNL     1      -9.044 -11.189  19.591  0.00  0.00    -0.336 OA
ATOM      5  N   UNL     1      -8.232 -10.515  17.614  0.00  0.00    -0.190 NA
ATOM      6  N   UNL     1      -9.989 -10.299  19.065  0.00  0.00    -0.056 NA
ATOM     13  C   UNL     1      -8.043 -11.259  18.674  0.00  0.00    +0.245 A 
ATOM     15  C   UNL     1      -9.438  -9.944  17.899  0.00  0.00    +0.204 A 
BRANCH  13   9
ATOM      4  N   UNL     1      -6.193 -12.683  17.811  0.00  0.00    -0.294 NA
ATOM      9  C   UNL     1      -6.883 -12.172  19.012  0.00  0.00    +0.146 C 
ATOM     10  C   UNL     1      -5.783 -11.461  19.822  0.00  0.00    +0.030 C 
ATOM     11  C   UNL     1      -4.503 -11.677  19.028  0.00  0.00    +0.017 C 
ATOM     12  C   UNL     1      -4.800 -12.909  18.198  0.00  0.00    +0.085 C 
ATOM     14  C   UNL     1      -6.811 -13.883  17.261  0.00  0.00    +0.105 C 
ENDBRANCH  13   9
ENDBRANCH  16  15
BRANCH  20   8
ATOM      3  O   UNL     1     -14.069  -6.230  15.214  0.00  0.00    -0.270 OA
ATOM      8  N   UNL     1     -11.897  -6.447  14.341  0.00  0.00    -0.266 N 
ATOM     22  C   UNL     1     -13.209  -5.964  14.380  0.00  0.00    +0.249 C 
ATOM     29  H   UNL     1     -11.267  -6.113  13.617  0.00  0.00    +0.157 HD
BRANCH  22  21
ATOM     21  C   UNL     1     -13.565  -5.008  13.299  0.00  0.00    +0.037 A 
ATOM     23  C   UNL     1     -14.903  -4.813  12.954  0.00  0.00    +0.016 A 
ATOM     24  C   UNL     1     -12.563  -4.309  12.628  0.00  0.00    +0.016 A 
ATOM     25  C   UNL     1     -14.234  -3.217  11.267  0.00  0.00    +0.120 A 
ATOM     26  C   UNL     1     -15.238  -3.917  11.937  0.00  0.00    +0.046 A 
ATOM     27  C   UNL     1     -12.897  -3.413  11.612  0.00  0.00    +0.046 A 
BRANCH  25   2
ATOM      2  O   UNL     1     -14.561  -2.344  10.276  0.00  0.00    -0.495 OA
ATOM     28  C   UNL     1     -15.893  -1.833  10.275  0.00  0.00    +0.277 C 
ENDBRANCH  25   2
ENDBRANCH  22  21
ENDBRANCH  20   8
TORSDOF 5
ENDMDL
MODEL 10
REMARK VINA RESULT:      -6.4     33.190     34.604
REMARK  Name = 51136878
REMARK  7 active torsions:
REMARK  status: ('A' for Active; 'I' for Inactive)
REMARK    1  A    between atoms: O_2  and  C_25
REMARK    2  A    between atoms: O_2  and  C_28
REMARK    3  A    between atoms: N_4  and  C_14
REMARK    4  A    between atoms: N_8  and  C_20
REMARK    5  A    between atoms: C_9  and  C_13
REMARK    6  A    between atoms: C_15  and  C_16
REMARK    7  A    between atoms: C_21  and  C_22
REMARK                            x       y       z     vdW  Elec       q    Type
REMARK                         _______ _______ _______ _____ _____    ______ ____
ROOT
ATOM      7  N   UNL     1     -13.507   6.834  32.559  0.00  0.00    -0.239 NA
ATOM     16  C   UNL     1     -13.137   7.422  34.874  0.00  0.00    +0.041 A 
ATOM     17  C   UNL     1     -13.701   6.218  35.279  0.00  0.00    +0.016 A 
ATOM     18  C   UNL     1     -13.064   7.681  33.515  0.00  0.00    +0.124 A 
ATOM     19  C   UNL     1     -14.168   5.320  34.325  0.00  0.00    +0.044 A 
ATOM     20  C   UNL     1     -14.049   5.672  32.990  0.00  0.00    +0.125 A 
ENDROOT
BRANCH  16  15
ATOM      1  O   UNL     1     -12.313  10.176  36.926  0.00  0.00    -0.336 OA
ATOM      5  N   UNL     1     -11.751   8.010  36.800  0.00  0.00    -0.190 NA
ATOM      6  N   UNL     1     -13.032   9.649  35.846  0.00  0.00    -0.056 NA
ATOM     13  C   UNL     1     -11.584   9.145  37.431  0.00  0.00    +0.245 A 
ATOM     15  C   UNL     1     -12.646   8.369  35.835  0.00  0.00    +0.204 A 
BRANCH  13   9
ATOM      4  N   UNL     1     -11.457   9.442  39.898  0.00  0.00    -0.294 NA
ATOM      9  C   UNL     1     -10.709   9.460  38.626  0.00  0.00    +0.146 C 
ATOM     10  C   UNL     1      -9.578   8.433  38.822  0.00  0.00    +0.030 C 
ATOM     11  C   UNL     1      -9.736   7.937  40.252  0.00  0.00    +0.017 C 
ATOM     12  C   UNL     1     -10.501   9.052  40.935  0.00  0.00    +0.085 C 
ATOM     14  C   UNL     1     -12.107  10.711  40.201  0.00  0.00    +0.105 C 
ENDBRANCH  13   9
ENDBRANCH  16  15
BRANCH  20   8
ATOM      3  O   UNL     1     -12.876   3.084  32.033  0.00  0.00    -0.270 OA
ATOM      8  N   UNL     1     -14.522   4.762  32.038  0.00  0.00    -0.266 N 
ATOM     22  C   UNL     1     -13.930   3.563  31.629  0.00  0.00    +0.249 C 
ATOM     29  H   UNL     1     -15.425   5.027  31.655  0.00  0.00    +0.157 HD
BRANCH  22  21
ATOM     21  C   UNL     1     -14.695   2.794  30.612  0.00  0.00    +0.037 A 
ATOM     23  C   UNL     1     -15.129   3.422  29.444  0.00  0.00    +0.016 A 
ATOM     24  C   UNL     1     -14.981   1.446  30.827  0.00  0.00    +0.016 A 
ATOM     25  C   UNL     1     -16.134   1.352  28.706  0.00  0.00    +0.120 A 
ATOM     26  C   UNL     1     -15.849   2.701  28.491  0.00  0.00    +0.046 A 
ATOM     27  C   UNL     1     -15.701   0.725  29.874  0.00  0.00    +0.046 A 
BRANCH  25   2
ATOM      2  O   UNL     1     -16.837   0.650  27.776  0.00  0.00    -0.495 OA
ATOM     28  C   UNL     1     -16.642   1.009  26.409  0.00  0.00    +0.277 C 
ENDBRANCH  25   2
ENDBRANCH  22  21
ENDBRANCH  20   8
TORSDOF 5
ENDMDL
