REMARK  Name = 25389521
REMARK  9 active torsions:
REMARK  status: ('A' for Active; 'I' for Inactive)
REMARK    1  A    between atoms: O_1  and  C_15
REMARK    2  A    between atoms: O_1  and  C_20
REMARK    3  A    between atoms: N_4  and  C_18
REMARK    4  A    between atoms: N_6  and  C_25
REMARK    5  A    between atoms: C_8  and  C_14
REMARK    6  A    between atoms: C_9  and  C_15
REMARK    7  A    between atoms: C_17  and  C_19
REMARK    8  A    between atoms: C_25  and  C_27
REMARK    9  A    between atoms: C_27  and  C_32
REMARK                            x       y       z     vdW  Elec       q    Type
REMARK                         _______ _______ _______ _____ _____    ______ ____
ROOT
ATOM      3  N   UNL     1      -4.317  -1.453   0.514  0.00  0.00    -0.296 NA
ATOM      7  C   UNL     1      -2.813  -1.988  -1.544  0.00  0.00    +0.002 C 
ATOM      8  C   UNL     1      -2.251  -2.671  -0.267  0.00  0.00    +0.055 C 
ATOM      9  C   UNL     1      -3.978  -0.198  -0.207  0.00  0.00    +0.095 C 
ATOM     10  C   UNL     1      -2.924  -0.467  -1.302  0.00  0.00    +0.026 C 
ATOM     11  C   UNL     1      -4.249  -2.522  -1.738  0.00  0.00    +0.019 C 
ATOM     12  C   UNL     1      -3.076  -2.145   0.943  0.00  0.00    +0.094 C 
ATOM     13  C   UNL     1      -5.039  -2.339  -0.430  0.00  0.00    +0.085 C 
ENDROOT
BRANCH   8  14
ATOM      4  N   UNL     1      -0.060  -3.576   0.641  0.00  0.00    -0.270 N 
ATOM      5  N   UNL     1       1.254  -3.325   0.760  0.00  0.00    -0.171 NA
ATOM     14  C   UNL     1      -0.751  -2.600  -0.016  0.00  0.00    +0.044 A 
ATOM     16  C   UNL     1       0.177  -1.644  -0.349  0.00  0.00    +0.053 A 
ATOM     17  C   UNL     1       1.393  -2.143   0.153  0.00  0.00    +0.093 A 
ATOM     18  C   UNL     1      -0.598  -4.798   1.195  0.00  0.00    +0.172 C 
BRANCH  17  19
ATOM     19  C   UNL     1       2.684  -1.513   0.066  0.00  0.00    +0.003 A 
ATOM     21  C   UNL     1       2.780  -0.121   0.036  0.00  0.00    +0.018 A 
ATOM     22  C   UNL     1       3.837  -2.291   0.011  0.00  0.00    +0.011 A 
ATOM     23  C   UNL     1       4.032   0.510  -0.048  0.00  0.00    -0.017 A 
ATOM     24  C   UNL     1       5.089  -1.682  -0.072  0.00  0.00    +0.009 A 
ATOM     26  C   UNL     1       5.204  -0.282  -0.103  0.00  0.00    -0.018 A 
ATOM     28  C   UNL     1       4.147   1.909  -0.079  0.00  0.00    +0.008 A 
ATOM     29  C   UNL     1       6.456   0.348  -0.188  0.00  0.00    +0.008 A 
ATOM     30  C   UNL     1       5.399   2.519  -0.163  0.00  0.00    +0.001 A 
ATOM     31  C   UNL     1       6.551   1.740  -0.217  0.00  0.00    +0.001 A 
ENDBRANCH  17  19
ENDBRANCH   8  14
BRANCH   9  15
ATOM     15  C   UNL     1      -3.542   0.920   0.743  0.00  0.00    +0.252 C 
BRANCH  15   1
ATOM      1  O   UNL     1      -3.347   2.098  -0.015  0.00  0.00    -0.449 OA
BRANCH   1  20
ATOM      2  O   UNL     1      -2.760   3.236   1.892  0.00  0.00    -0.226 OA
ATOM      6  N   UNL     1      -2.797   4.284  -0.178  0.00  0.00    -0.281 N 
ATOM     20  C   UNL     1      -2.948   3.215   0.680  0.00  0.00    +0.400 C 
ATOM     33  H   UNL     1      -2.982   4.134  -1.165  0.00  0.00    +0.152 HD
BRANCH   6  25
ATOM     25  C   UNL     1      -2.387   5.602   0.248  0.00  0.00    +0.107 C 
BRANCH  25  27
ATOM     27  C   UNL     1      -0.874   5.778   0.215  0.00  0.00    +0.015 C 
ATOM     32  C   UNL     1      -0.291   5.601  -1.180  0.00  0.00    +0.005 C 
ENDBRANCH  25  27
ENDBRANCH   6  25
ENDBRANCH   1  20
ENDBRANCH  15   1
ENDBRANCH   9  15
TORSDOF 7
