MODEL 1
REMARK VINA RESULT:      -7.7      0.000      0.000
REMARK  Name = 25313316
REMARK  8 active torsions:
REMARK  status: ('A' for Active; 'I' for Inactive)
REMARK    1  A    between atoms: O_5  and  C_25
REMARK    2  A    between atoms: N_9  and  C_19
REMARK    3  A    between atoms: N_10  and  C_28
REMARK    4  A    between atoms: C_12  and  C_16
REMARK    5  A    between atoms: C_13  and  C_18
REMARK    6  A    between atoms: C_16  and  C_19
REMARK    7  A    between atoms: C_18  and  C_25
REMARK    8  A    between atoms: C_33  and  C_36
REMARK                            x       y       z     vdW  Elec       q    Type
REMARK                         _______ _______ _______ _____ _____    ______ ____
ROOT
ATOM      4  O   UNL     1      14.310   8.632  15.375  0.00  0.00    -0.252 OA
ATOM      6  O   UNL     1      14.945  12.806  13.487  0.00  0.00    -0.377 OA
ATOM      8  N   UNL     1      13.101   9.757  16.981  0.00  0.00    -0.285 N 
ATOM     11  N   UNL     1      14.624  10.906  15.541  0.00  0.00    -0.281 N 
ATOM     12  C   UNL     1      13.538   9.554  19.422  0.00  0.00    +0.011 C 
ATOM     13  C   UNL     1      12.393   8.512  19.501  0.00  0.00    +0.006 C 
ATOM     14  C   UNL     1      13.312  10.506  18.229  0.00  0.00    +0.113 C 
ATOM     15  C   UNL     1      12.193   7.790  18.158  0.00  0.00    +0.023 C 
ATOM     17  C   UNL     1      12.002   8.795  17.026  0.00  0.00    +0.109 C 
ATOM     22  C   UNL     1      14.029   9.701  15.931  0.00  0.00    +0.305 C 
ATOM     26  C   UNL     1      13.980  12.222  15.643  0.00  0.00    +0.137 C 
ATOM     27  C   UNL     1      15.813  10.897  14.691  0.00  0.00    +0.137 C 
ATOM     29  C   UNL     1      13.731  12.780  14.243  0.00  0.00    +0.179 C 
ATOM     30  C   UNL     1      15.483  11.489  13.328  0.00  0.00    +0.179 C 
ENDROOT
BRANCH  12  16
ATOM     16  C   UNL     1      14.939   8.931  19.349  0.00  0.00    +0.020 C 
BRANCH  16  19
ATOM     19  C   UNL     1      15.839   9.491  20.440  0.00  0.00    +0.085 C 
BRANCH  19   9
ATOM      9  N   UNL     1      17.068   8.703  20.522  0.00  0.00    -0.299 NA
ATOM     10  N   UNL     1      19.134   7.220  21.824  0.00  0.00    -0.327 N 
ATOM     20  C   UNL     1      18.068   9.391  21.348  0.00  0.00    +0.103 C 
ATOM     21  C   UNL     1      16.791   7.372  21.078  0.00  0.00    +0.103 C 
ATOM     23  C   UNL     1      19.378   8.603  21.394  0.00  0.00    +0.120 C 
ATOM     24  C   UNL     1      18.059   6.517  21.116  0.00  0.00    +0.120 C 
BRANCH  10  28
ATOM     28  C   UNL     1      20.208   6.495  22.352  0.00  0.00    +0.030 A 
ATOM     31  C   UNL     1      20.716   5.397  21.659  0.00  0.00    +0.035 A 
ATOM     32  C   UNL     1      20.772   6.873  23.571  0.00  0.00    +0.023 A 
ATOM     33  C   UNL     1      21.788   4.675  22.184  0.00  0.00    +0.057 A 
ATOM     34  C   UNL     1      21.843   6.151  24.097  0.00  0.00    +0.002 A 
ATOM     35  C   UNL     1      22.351   5.052  23.404  0.00  0.00    +0.012 A 
BRANCH  33  36
ATOM      1  F   UNL     1      21.363   2.811  20.770  0.00  0.00    -0.166 F 
ATOM      2  F   UNL     1      23.267   3.827  20.507  0.00  0.00    -0.166 F 
ATOM      3  F   UNL     1      22.939   2.579  22.250  0.00  0.00    -0.166 F 
ATOM     36  C   UNL     1      22.330   3.499  21.444  0.00  0.00    +0.417 C 
ENDBRANCH  33  36
ENDBRANCH  10  28
ENDBRANCH  19   9
ENDBRANCH  16  19
ENDBRANCH  12  16
BRANCH  13  18
ATOM     18  C   UNL     1      12.575   7.503  20.634  0.00  0.00    +0.124 C 
BRANCH  18  25
ATOM      7  O   UNL     1      10.393   7.598  21.717  0.00  0.00    -0.251 OA
ATOM     25  C   UNL     1      11.256   6.970  21.120  0.00  0.00    +0.305 C 
BRANCH  25   5
ATOM      5  O   UNL     1      11.146   5.655  20.798  0.00  0.00    -0.481 OA
ATOM     37  H   UNL     1      10.428   5.215  21.299  0.00  0.00    +0.295 HD
ENDBRANCH  25   5
ENDBRANCH  18  25
ENDBRANCH  13  18
TORSDOF 8
ENDMDL
MODEL 2
REMARK VINA RESULT:      -7.5     12.957     15.000
REMARK  Name = 25313316
REMARK  8 active torsions:
REMARK  status: ('A' for Active; 'I' for Inactive)
REMARK    1  A    between atoms: O_5  and  C_25
REMARK    2  A    between atoms: N_9  and  C_19
REMARK    3  A    between atoms: N_10  and  C_28
REMARK    4  A    between atoms: C_12  and  C_16
REMARK    5  A    between atoms: C_13  and  C_18
REMARK    6  A    between atoms: C_16  and  C_19
REMARK    7  A    between atoms: C_18  and  C_25
REMARK    8  A    between atoms: C_33  and  C_36
REMARK                            x       y       z     vdW  Elec       q    Type
REMARK                         _______ _______ _______ _____ _____    ______ ____
ROOT
ATOM      4  O   UNL     1       9.354   7.083   2.889  0.00  0.00    -0.252 OA
ATOM      6  O   UNL     1       6.815  10.462   1.014  0.00  0.00    -0.377 OA
ATOM      8  N   UNL     1       8.231   7.584   4.837  0.00  0.00    -0.285 N 
ATOM     11  N   UNL     1       8.285   9.118   3.004  0.00  0.00    -0.281 N 
ATOM     12  C   UNL     1       9.370   8.102   6.987  0.00  0.00    +0.011 C 
ATOM     13  C   UNL     1       9.151   6.628   7.413  0.00  0.00    +0.006 C 
ATOM     14  C   UNL     1       8.296   8.527   5.964  0.00  0.00    +0.113 C 
ATOM     15  C   UNL     1       9.051   5.697   6.194  0.00  0.00    +0.023 C 
ATOM     17  C   UNL     1       7.989   6.194   5.218  0.00  0.00    +0.109 C 
ATOM     22  C   UNL     1       8.665   7.881   3.537  0.00  0.00    +0.305 C 
ATOM     26  C   UNL     1       7.046   9.826   3.351  0.00  0.00    +0.137 C 
ATOM     27  C   UNL     1       8.944   9.636   1.807  0.00  0.00    +0.137 C 
ATOM     29  C   UNL     1       6.131   9.885   2.129  0.00  0.00    +0.179 C 
ATOM     30  C   UNL     1       7.958   9.682   0.648  0.00  0.00    +0.179 C 
ENDROOT
BRANCH  12  16
ATOM     16  C   UNL     1      10.774   8.385   6.434  0.00  0.00    +0.020 C 
BRANCH  16  19
ATOM     19  C   UNL     1      11.490   9.428   7.281  0.00  0.00    +0.085 C 
BRANCH  19   9
ATOM      9  N   UNL     1      12.935   9.214   7.213  0.00  0.00    -0.299 NA
ATOM     10  N   UNL     1      15.459   8.842   5.930  0.00  0.00    -0.327 N 
ATOM     20  C   UNL     1      13.239   7.954   6.525  0.00  0.00    +0.103 C 
ATOM     21  C   UNL     1      13.589  10.332   6.521  0.00  0.00    +0.103 C 
ATOM     23  C   UNL     1      14.746   7.692   6.499  0.00  0.00    +0.120 C 
ATOM     24  C   UNL     1      15.108  10.149   6.495  0.00  0.00    +0.120 C 
BRANCH  10  28
ATOM     28  C   UNL     1      16.743   8.631   5.415  0.00  0.00    +0.030 A 
ATOM     31  C   UNL     1      17.851   8.686   6.260  0.00  0.00    +0.035 A 
ATOM     32  C   UNL     1      16.914   8.363   4.056  0.00  0.00    +0.023 A 
ATOM     33  C   UNL     1      19.131   8.474   5.747  0.00  0.00    +0.057 A 
ATOM     34  C   UNL     1      18.194   8.151   3.543  0.00  0.00    +0.002 A 
ATOM     35  C   UNL     1      19.302   8.207   4.388  0.00  0.00    +0.012 A 
BRANCH  33  36
ATOM      1  F   UNL     1      21.262   9.419   6.216  0.00  0.00    -0.166 F 
ATOM      2  F   UNL     1      20.015   8.917   7.925  0.00  0.00    -0.166 F 
ATOM      3  F   UNL     1      20.966   7.339   6.781  0.00  0.00    -0.166 F 
ATOM     36  C   UNL     1      20.317   8.535   6.649  0.00  0.00    +0.417 C 
ENDBRANCH  33  36
ENDBRANCH  10  28
ENDBRANCH  19   9
ENDBRANCH  16  19
ENDBRANCH  12  16
BRANCH  13  18
ATOM     18  C   UNL     1      10.210   6.122   8.393  0.00  0.00    +0.124 C 
BRANCH  18  25
ATOM      7  O   UNL     1       8.923   4.743   9.938  0.00  0.00    -0.251 OA
ATOM     25  C   UNL     1       9.777   4.851   9.069  0.00  0.00    +0.305 C 
BRANCH  25   5
ATOM      5  O   UNL     1      10.484   3.803   8.572  0.00  0.00    -0.481 OA
ATOM     37  H   UNL     1      10.742   3.947   7.638  0.00  0.00    +0.295 HD
ENDBRANCH  25   5
ENDBRANCH  18  25
ENDBRANCH  13  18
TORSDOF 8
ENDMDL
MODEL 3
REMARK VINA RESULT:      -7.1     27.541     31.256
REMARK  Name = 25313316
REMARK  8 active torsions:
REMARK  status: ('A' for Active; 'I' for Inactive)
REMARK    1  A    between atoms: O_5  and  C_25
REMARK    2  A    between atoms: N_9  and  C_19
REMARK    3  A    between atoms: N_10  and  C_28
REMARK    4  A    between atoms: C_12  and  C_16
REMARK    5  A    between atoms: C_13  and  C_18
REMARK    6  A    between atoms: C_16  and  C_19
REMARK    7  A    between atoms: C_18  and  C_25
REMARK    8  A    between atoms: C_33  and  C_36
REMARK                            x       y       z     vdW  Elec       q    Type
REMARK                         _______ _______ _______ _____ _____    ______ ____
ROOT
ATOM      4  O   UNL     1      -7.770 -12.178  17.560  0.00  0.00    -0.252 OA
ATOM      6  O   UNL     1     -11.304  -9.226  17.126  0.00  0.00    -0.377 OA
ATOM      8  N   UNL     1      -6.441 -10.346  17.129  0.00  0.00    -0.285 N 
ATOM     11  N   UNL     1      -8.771 -10.341  16.600  0.00  0.00    -0.281 N 
ATOM     12  C   UNL     1      -4.712 -10.293  15.341  0.00  0.00    +0.011 C 
ATOM     13  C   UNL     1      -3.646 -10.629  16.415  0.00  0.00    +0.006 C 
ATOM     14  C   UNL     1      -5.916  -9.578  15.990  0.00  0.00    +0.113 C 
ATOM     15  C   UNL     1      -4.260 -11.396  17.599  0.00  0.00    +0.023 C 
ATOM     17  C   UNL     1      -5.457 -10.642  18.169  0.00  0.00    +0.109 C 
ATOM     22  C   UNL     1      -7.668 -11.024  17.123  0.00  0.00    +0.305 C 
ATOM     26  C   UNL     1      -8.943  -8.882  16.646  0.00  0.00    +0.137 C 
ATOM     27  C   UNL     1      -9.995 -11.067  16.265  0.00  0.00    +0.137 C 
ATOM     29  C   UNL     1     -10.125  -8.534  17.548  0.00  0.00    +0.179 C 
ATOM     30  C   UNL     1     -11.123 -10.644  17.195  0.00  0.00    +0.179 C 
ENDROOT
BRANCH  12  16
ATOM     16  C   UNL     1      -5.185 -11.510  14.535  0.00  0.00    +0.020 C 
BRANCH  16  19
ATOM     19  C   UNL     1      -4.550 -11.524  13.152  0.00  0.00    +0.085 C 
BRANCH  19   9
ATOM      9  N   UNL     1      -5.149 -10.481  12.320  0.00  0.00    -0.299 NA
ATOM     10  N   UNL     1      -6.484  -9.417  10.030  0.00  0.00    -0.327 N 
ATOM     20  C   UNL     1      -4.450 -10.384  11.033  0.00  0.00    +0.103 C 
ATOM     21  C   UNL     1      -6.574 -10.755  12.097  0.00  0.00    +0.103 C 
ATOM     23  C   UNL     1      -5.031  -9.258  10.176  0.00  0.00    +0.120 C 
ATOM     24  C   UNL     1      -7.226  -9.640  11.275  0.00  0.00    +0.120 C 
BRANCH  10  28
ATOM     28  C   UNL     1      -7.111  -8.781   8.953  0.00  0.00    +0.030 A 
ATOM     31  C   UNL     1      -7.984  -7.719   9.183  0.00  0.00    +0.035 A 
ATOM     32  C   UNL     1      -6.860  -9.209   7.649  0.00  0.00    +0.023 A 
ATOM     33  C   UNL     1      -8.609  -7.083   8.109  0.00  0.00    +0.057 A 
ATOM     34  C   UNL     1      -7.484  -8.574   6.575  0.00  0.00    +0.002 A 
ATOM     35  C   UNL     1      -8.359  -7.512   6.805  0.00  0.00    +0.012 A 
BRANCH  33  36
ATOM      1  F   UNL     1     -10.330  -6.144   9.454  0.00  0.00    -0.166 F 
ATOM      2  F   UNL     1      -8.915  -4.755   8.563  0.00  0.00    -0.166 F 
ATOM      3  F   UNL     1     -10.410  -5.720   7.322  0.00  0.00    -0.166 F 
ATOM     36  C   UNL     1      -9.544  -5.949   8.355  0.00  0.00    +0.417 C 
ENDBRANCH  33  36
ENDBRANCH  10  28
ENDBRANCH  19   9
ENDBRANCH  16  19
ENDBRANCH  12  16
BRANCH  13  18
ATOM     18  C   UNL     1      -2.441 -11.382  15.852  0.00  0.00    +0.124 C 
BRANCH  18  25
ATOM      7  O   UNL     1      -1.463  -9.895  14.186  0.00  0.00    -0.251 OA
ATOM     25  C   UNL     1      -1.418 -10.442  15.278  0.00  0.00    +0.305 C 
BRANCH  25   5
ATOM      5  O   UNL     1      -0.402 -10.275  16.164  0.00  0.00    -0.481 OA
ATOM     37  H   UNL     1      -0.083  -9.349  16.185  0.00  0.00    +0.295 HD
ENDBRANCH  25   5
ENDBRANCH  18  25
ENDBRANCH  13  18
TORSDOF 8
ENDMDL
MODEL 4
REMARK VINA RESULT:      -7.1     15.008     18.924
REMARK  Name = 25313316
REMARK  8 active torsions:
REMARK  status: ('A' for Active; 'I' for Inactive)
REMARK    1  A    between atoms: O_5  and  C_25
REMARK    2  A    between atoms: N_9  and  C_19
REMARK    3  A    between atoms: N_10  and  C_28
REMARK    4  A    between atoms: C_12  and  C_16
REMARK    5  A    between atoms: C_13  and  C_18
REMARK    6  A    between atoms: C_16  and  C_19
REMARK    7  A    between atoms: C_18  and  C_25
REMARK    8  A    between atoms: C_33  and  C_36
REMARK                            x       y       z     vdW  Elec       q    Type
REMARK                         _______ _______ _______ _____ _____    ______ ____
ROOT
ATOM      4  O   UNL     1       8.316   8.931   4.818  0.00  0.00    -0.252 OA
ATOM      6  O   UNL     1      10.888  12.495   3.377  0.00  0.00    -0.377 OA
ATOM      8  N   UNL     1       9.857   8.758   6.521  0.00  0.00    -0.285 N 
ATOM     11  N   UNL     1      10.343   9.982   4.526  0.00  0.00    -0.281 N 
ATOM     12  C   UNL     1      11.067   6.655   7.071  0.00  0.00    +0.011 C 
ATOM     13  C   UNL     1      10.024   6.393   8.187  0.00  0.00    +0.006 C 
ATOM     14  C   UNL     1      11.178   8.168   6.789  0.00  0.00    +0.113 C 
ATOM     15  C   UNL     1       8.678   7.067   7.871  0.00  0.00    +0.023 C 
ATOM     17  C   UNL     1       8.871   8.551   7.579  0.00  0.00    +0.109 C 
ATOM     22  C   UNL     1       9.438   9.208   5.260  0.00  0.00    +0.305 C 
ATOM     26  C   UNL     1      11.357  10.863   5.120  0.00  0.00    +0.137 C 
ATOM     27  C   UNL     1      10.119  10.219   3.100  0.00  0.00    +0.137 C 
ATOM     29  C   UNL     1      11.028  12.318   4.790  0.00  0.00    +0.179 C 
ATOM     30  C   UNL     1       9.822  11.692   2.859  0.00  0.00    +0.179 C 
ENDROOT
BRANCH  12  16
ATOM     16  C   UNL     1      10.789   5.889   5.770  0.00  0.00    +0.020 C 
BRANCH  16  19
ATOM     19  C   UNL     1      11.611   6.454   4.622  0.00  0.00    +0.085 C 
BRANCH  19   9
ATOM      9  N   UNL     1      11.700   5.470   3.544  0.00  0.00    -0.299 NA
ATOM     10  N   UNL     1      11.580   4.539   0.846  0.00  0.00    -0.327 N 
ATOM     20  C   UNL     1      10.407   5.333   2.863  0.00  0.00    +0.103 C 
ATOM     21  C   UNL     1      12.735   5.857   2.577  0.00  0.00    +0.103 C 
ATOM     23  C   UNL     1      10.473   4.264   1.770  0.00  0.00    +0.120 C 
ATOM     24  C   UNL     1      12.878   4.806   1.474  0.00  0.00    +0.120 C 
BRANCH  10  28
ATOM     28  C   UNL     1      11.531   3.965  -0.429  0.00  0.00    +0.030 A 
ATOM     31  C   UNL     1      10.539   4.351  -1.330  0.00  0.00    +0.035 A 
ATOM     32  C   UNL     1      12.477   3.009  -0.800  0.00  0.00    +0.023 A 
ATOM     33  C   UNL     1      10.490   3.780  -2.601  0.00  0.00    +0.057 A 
ATOM     34  C   UNL     1      12.429   2.437  -2.072  0.00  0.00    +0.002 A 
ATOM     35  C   UNL     1      11.435   2.823  -2.972  0.00  0.00    +0.012 A 
BRANCH  33  36
ATOM      1  F   UNL     1       8.668   3.139  -3.988  0.00  0.00    -0.166 F 
ATOM      2  F   UNL     1       8.545   5.097  -3.051  0.00  0.00    -0.166 F 
ATOM      3  F   UNL     1       9.915   4.772  -4.701  0.00  0.00    -0.166 F 
ATOM     36  C   UNL     1       9.428   4.190  -3.564  0.00  0.00    +0.417 C 
ENDBRANCH  33  36
ENDBRANCH  10  28
ENDBRANCH  19   9
ENDBRANCH  16  19
ENDBRANCH  12  16
BRANCH  13  18
ATOM     18  C   UNL     1       9.826   4.908   8.489  0.00  0.00    +0.124 C 
BRANCH  18  25
ATOM      7  O   UNL     1       8.292   4.498  10.339  0.00  0.00    -0.251 OA
ATOM     25  C   UNL     1       9.427   4.680   9.920  0.00  0.00    +0.305 C 
BRANCH  25   5
ATOM      5  O   UNL     1      10.528   4.704  10.713  0.00  0.00    -0.481 OA
ATOM     37  H   UNL     1      10.517   3.984  11.377  0.00  0.00    +0.295 HD
ENDBRANCH  25   5
ENDBRANCH  18  25
ENDBRANCH  13  18
TORSDOF 8
ENDMDL
MODEL 5
REMARK VINA RESULT:      -6.9     28.078     31.308
REMARK  Name = 25313316
REMARK  8 active torsions:
REMARK  status: ('A' for Active; 'I' for Inactive)
REMARK    1  A    between atoms: O_5  and  C_25
REMARK    2  A    between atoms: N_9  and  C_19
REMARK    3  A    between atoms: N_10  and  C_28
REMARK    4  A    between atoms: C_12  and  C_16
REMARK    5  A    between atoms: C_13  and  C_18
REMARK    6  A    between atoms: C_16  and  C_19
REMARK    7  A    between atoms: C_18  and  C_25
REMARK    8  A    between atoms: C_33  and  C_36
REMARK                            x       y       z     vdW  Elec       q    Type
REMARK                         _______ _______ _______ _____ _____    ______ ____
ROOT
ATOM      4  O   UNL     1      -8.642  -8.007  17.065  0.00  0.00    -0.252 OA
ATOM      6  O   UNL     1      -9.033 -11.613  19.935  0.00  0.00    -0.377 OA
ATOM      8  N   UNL     1     -10.934  -8.154  16.881  0.00  0.00    -0.285 N 
ATOM     11  N   UNL     1      -9.637  -9.975  17.725  0.00  0.00    -0.281 N 
ATOM     12  C   UNL     1     -12.130  -8.320  14.706  0.00  0.00    +0.011 C 
ATOM     13  C   UNL     1     -12.381  -6.792  14.771  0.00  0.00    +0.006 C 
ATOM     14  C   UNL     1     -11.958  -8.894  16.128  0.00  0.00    +0.113 C 
ATOM     15  C   UNL     1     -11.302  -6.078  15.604  0.00  0.00    +0.023 C 
ATOM     17  C   UNL     1     -11.173  -6.716  16.983  0.00  0.00    +0.109 C 
ATOM     22  C   UNL     1      -9.675  -8.673  17.215  0.00  0.00    +0.305 C 
ATOM     26  C   UNL     1     -10.717 -10.595  18.504  0.00  0.00    +0.137 C 
ATOM     27  C   UNL     1      -8.369 -10.700  17.798  0.00  0.00    +0.137 C 
ATOM     29  C   UNL     1     -10.239 -10.844  19.933  0.00  0.00    +0.179 C 
ATOM     30  C   UNL     1      -7.980 -10.925  19.252  0.00  0.00    +0.179 C 
ENDROOT
BRANCH  12  16
ATOM     16  C   UNL     1     -10.938  -8.716  13.824  0.00  0.00    +0.020 C 
BRANCH  16  19
ATOM     19  C   UNL     1     -10.588 -10.184  14.012  0.00  0.00    +0.085 C 
BRANCH  19   9
ATOM      9  N   UNL     1      -9.319 -10.481  13.348  0.00  0.00    -0.299 NA
ATOM     10  N   UNL     1      -6.840  -9.870  12.069  0.00  0.00    -0.327 N 
ATOM     20  C   UNL     1      -9.302  -9.918  11.992  0.00  0.00    +0.103 C 
ATOM     21  C   UNL     1      -8.194  -9.947  14.125  0.00  0.00    +0.103 C 
ATOM     23  C   UNL     1      -8.003 -10.271  11.267  0.00  0.00    +0.120 C 
ATOM     24  C   UNL     1      -6.856 -10.300  13.470  0.00  0.00    +0.120 C 
BRANCH  10  28
ATOM     28  C   UNL     1      -5.617  -9.693  11.412  0.00  0.00    +0.030 A 
ATOM     31  C   UNL     1      -4.427 -10.054  12.043  0.00  0.00    +0.035 A 
ATOM     32  C   UNL     1      -5.589  -9.156  10.124  0.00  0.00    +0.023 A 
ATOM     33  C   UNL     1      -3.208  -9.879  11.388  0.00  0.00    +0.057 A 
ATOM     34  C   UNL     1      -4.370  -8.980   9.469  0.00  0.00    +0.002 A 
ATOM     35  C   UNL     1      -3.180  -9.341  10.101  0.00  0.00    +0.012 A 
BRANCH  33  36
ATOM      1  F   UNL     1      -1.917  -9.921  13.384  0.00  0.00    -0.166 F 
ATOM      2  F   UNL     1      -1.682 -11.606  12.030  0.00  0.00    -0.166 F 
ATOM      3  F   UNL     1      -0.828  -9.679  11.517  0.00  0.00    -0.166 F 
ATOM     36  C   UNL     1      -1.936 -10.264  12.063  0.00  0.00    +0.417 C 
ENDBRANCH  33  36
ENDBRANCH  10  28
ENDBRANCH  19   9
ENDBRANCH  16  19
ENDBRANCH  12  16
BRANCH  13  18
ATOM     18  C   UNL     1     -12.514  -6.145  13.393  0.00  0.00    +0.124 C 
BRANCH  18  25
ATOM      7  O   UNL     1     -12.933  -3.748  13.238  0.00  0.00    -0.251 OA
ATOM     25  C   UNL     1     -13.332  -4.885  13.448  0.00  0.00    +0.305 C 
BRANCH  25   5
ATOM      5  O   UNL     1     -14.616  -5.185  13.772  0.00  0.00    -0.481 OA
ATOM     37  H   UNL     1     -15.119  -4.390  14.049  0.00  0.00    +0.295 HD
ENDBRANCH  25   5
ENDBRANCH  18  25
ENDBRANCH  13  18
TORSDOF 8
ENDMDL
MODEL 6
REMARK VINA RESULT:      -6.9     26.467     30.133
REMARK  Name = 25313316
REMARK  8 active torsions:
REMARK  status: ('A' for Active; 'I' for Inactive)
REMARK    1  A    between atoms: O_5  and  C_25
REMARK    2  A    between atoms: N_9  and  C_19
REMARK    3  A    between atoms: N_10  and  C_28
REMARK    4  A    between atoms: C_12  and  C_16
REMARK    5  A    between atoms: C_13  and  C_18
REMARK    6  A    between atoms: C_16  and  C_19
REMARK    7  A    between atoms: C_18  and  C_25
REMARK    8  A    between atoms: C_33  and  C_36
REMARK                            x       y       z     vdW  Elec       q    Type
REMARK                         _______ _______ _______ _____ _____    ______ ____
ROOT
ATOM      4  O   UNL     1     -13.995  10.847  15.791  0.00  0.00    -0.252 OA
ATOM      6  O   UNL     1     -14.571   6.640  13.959  0.00  0.00    -0.377 OA
ATOM      8  N   UNL     1     -11.795  10.613  15.148  0.00  0.00    -0.285 N 
ATOM     11  N   UNL     1     -13.248   8.722  15.317  0.00  0.00    -0.281 N 
ATOM     12  C   UNL     1      -9.872  10.904  16.699  0.00  0.00    +0.011 C 
ATOM     13  C   UNL     1      -9.717  12.354  16.174  0.00  0.00    +0.006 C 
ATOM     14  C   UNL     1     -10.539  10.016  15.628  0.00  0.00    +0.113 C 
ATOM     15  C   UNL     1     -11.052  12.909  15.649  0.00  0.00    +0.023 C 
ATOM     17  C   UNL     1     -11.662  11.967  14.616  0.00  0.00    +0.109 C 
ATOM     22  C   UNL     1     -13.069  10.104  15.440  0.00  0.00    +0.305 C 
ATOM     26  C   UNL     1     -12.513   7.870  14.373  0.00  0.00    +0.137 C 
ATOM     27  C   UNL     1     -14.426   8.079  15.896  0.00  0.00    +0.137 C 
ATOM     29  C   UNL     1     -13.478   7.313  13.328  0.00  0.00    +0.179 C 
ATOM     30  C   UNL     1     -15.318   7.534  14.790  0.00  0.00    +0.179 C 
ENDROOT
BRANCH  12  16
ATOM     16  C   UNL     1     -10.637  10.804  18.027  0.00  0.00    +0.020 C 
BRANCH  16  19
ATOM     19  C   UNL     1     -10.119   9.645  18.865  0.00  0.00    +0.085 C 
BRANCH  19   9
ATOM      9  N   UNL     1     -11.197   9.116  19.700  0.00  0.00    -0.299 NA
ATOM     10  N   UNL     1     -13.404   7.422  20.346  0.00  0.00    -0.327 N 
ATOM     20  C   UNL     1     -12.498   9.311  19.047  0.00  0.00    +0.103 C 
ATOM     21  C   UNL     1     -10.984   7.690  19.974  0.00  0.00    +0.103 C 
ATOM     23  C   UNL     1     -13.638   8.813  19.937  0.00  0.00    +0.120 C 
ATOM     24  C   UNL     1     -12.075   7.137  20.895  0.00  0.00    +0.120 C 
BRANCH  10  28
ATOM     28  C   UNL     1     -14.504   6.665  20.764  0.00  0.00    +0.030 A 
ATOM     31  C   UNL     1     -14.442   5.943  21.955  0.00  0.00    +0.035 A 
ATOM     32  C   UNL     1     -15.664   6.635  19.989  0.00  0.00    +0.023 A 
ATOM     33  C   UNL     1     -15.539   5.189  22.372  0.00  0.00    +0.057 A 
ATOM     34  C   UNL     1     -16.762   5.881  20.406  0.00  0.00    +0.002 A 
ATOM     35  C   UNL     1     -16.699   5.158  21.597  0.00  0.00    +0.012 A 
BRANCH  33  36
ATOM      1  F   UNL     1     -15.955   3.145  23.514  0.00  0.00    -0.166 F 
ATOM      2  F   UNL     1     -14.206   4.277  24.136  0.00  0.00    -0.166 F 
ATOM      3  F   UNL     1     -16.190   4.976  24.664  0.00  0.00    -0.166 F 
ATOM     36  C   UNL     1     -15.472   4.415  23.645  0.00  0.00    +0.417 C 
ENDBRANCH  33  36
ENDBRANCH  10  28
ENDBRANCH  19   9
ENDBRANCH  16  19
ENDBRANCH  12  16
BRANCH  13  18
ATOM     18  C   UNL     1      -9.105  13.304  17.202  0.00  0.00    +0.124 C 
BRANCH  18  25
ATOM      7  O   UNL     1      -6.914  14.332  17.501  0.00  0.00    -0.251 OA
ATOM     25  C   UNL     1      -7.722  13.739  16.801  0.00  0.00    +0.305 C 
BRANCH  25   5
ATOM      5  O   UNL     1      -7.482  13.374  15.515  0.00  0.00    -0.481 OA
ATOM     37  H   UNL     1      -6.766  13.908  15.111  0.00  0.00    +0.295 HD
ENDBRANCH  25   5
ENDBRANCH  18  25
ENDBRANCH  13  18
TORSDOF 8
ENDMDL
MODEL 7
REMARK VINA RESULT:      -6.9     27.685     31.348
REMARK  Name = 25313316
REMARK  8 active torsions:
REMARK  status: ('A' for Active; 'I' for Inactive)
REMARK    1  A    between atoms: O_5  and  C_25
REMARK    2  A    between atoms: N_9  and  C_19
REMARK    3  A    between atoms: N_10  and  C_28
REMARK    4  A    between atoms: C_12  and  C_16
REMARK    5  A    between atoms: C_13  and  C_18
REMARK    6  A    between atoms: C_16  and  C_19
REMARK    7  A    between atoms: C_18  and  C_25
REMARK    8  A    between atoms: C_33  and  C_36
REMARK                            x       y       z     vdW  Elec       q    Type
REMARK                         _______ _______ _______ _____ _____    ______ ____
ROOT
ATOM      4  O   UNL     1      -7.837 -12.165  17.431  0.00  0.00    -0.252 OA
ATOM      6  O   UNL     1     -11.325  -9.149  17.077  0.00  0.00    -0.377 OA
ATOM      8  N   UNL     1      -6.479 -10.343  17.055  0.00  0.00    -0.285 N 
ATOM     11  N   UNL     1      -8.809 -10.287  16.523  0.00  0.00    -0.281 N 
ATOM     12  C   UNL     1      -4.746 -10.265  15.271  0.00  0.00    +0.011 C 
ATOM     13  C   UNL     1      -3.688 -10.648  16.336  0.00  0.00    +0.006 C 
ATOM     14  C   UNL     1      -5.941  -9.551  15.938  0.00  0.00    +0.113 C 
ATOM     15  C   UNL     1      -4.316 -11.438  17.497  0.00  0.00    +0.023 C 
ATOM     17  C   UNL     1      -5.502 -10.683  18.087  0.00  0.00    +0.109 C 
ATOM     22  C   UNL     1      -7.717 -11.002  17.027  0.00  0.00    +0.305 C 
ATOM     26  C   UNL     1      -8.958  -8.828  16.609  0.00  0.00    +0.137 C 
ATOM     27  C   UNL     1     -10.043 -10.985  16.166  0.00  0.00    +0.137 C 
ATOM     29  C   UNL     1     -10.136  -8.487  17.520  0.00  0.00    +0.179 C 
ATOM     30  C   UNL     1     -11.166 -10.571  17.105  0.00  0.00    +0.179 C 
ENDROOT
BRANCH  12  16
ATOM     16  C   UNL     1      -5.237 -11.452  14.430  0.00  0.00    +0.020 C 
BRANCH  16  19
ATOM     19  C   UNL     1      -4.675 -11.384  13.017  0.00  0.00    +0.085 C 
BRANCH  19   9
ATOM      9  N   UNL     1      -5.480 -10.472  12.206  0.00  0.00    -0.299 NA
ATOM     10  N   UNL     1      -6.491  -9.333   9.790  0.00  0.00    -0.327 N 
ATOM     20  C   UNL     1      -4.619  -9.634  11.364  0.00  0.00    +0.103 C 
ATOM     21  C   UNL     1      -6.420 -11.225  11.366  0.00  0.00    +0.103 C 
ATOM     23  C   UNL     1      -5.448  -8.636  10.552  0.00  0.00    +0.120 C 
ATOM     24  C   UNL     1      -7.309 -10.280  10.553  0.00  0.00    +0.120 C 
BRANCH  10  28
ATOM     28  C   UNL     1      -7.037  -8.684   8.677  0.00  0.00    +0.030 A 
ATOM     31  C   UNL     1      -6.951  -9.270   7.415  0.00  0.00    +0.035 A 
ATOM     32  C   UNL     1      -7.671  -7.451   8.831  0.00  0.00    +0.023 A 
ATOM     33  C   UNL     1      -7.496  -8.624   6.305  0.00  0.00    +0.057 A 
ATOM     34  C   UNL     1      -8.217  -6.803   7.722  0.00  0.00    +0.002 A 
ATOM     35  C   UNL     1      -8.129  -7.390   6.460  0.00  0.00    +0.012 A 
BRANCH  33  36
ATOM      1  F   UNL     1      -6.282 -10.017   4.809  0.00  0.00    -0.166 F 
ATOM      2  F   UNL     1      -8.451 -10.072   4.658  0.00  0.00    -0.166 F 
ATOM      3  F   UNL     1      -7.359  -8.343   3.934  0.00  0.00    -0.166 F 
ATOM     36  C   UNL     1      -7.402  -9.250   4.955  0.00  0.00    +0.417 C 
ENDBRANCH  33  36
ENDBRANCH  10  28
ENDBRANCH  19   9
ENDBRANCH  16  19
ENDBRANCH  12  16
BRANCH  13  18
ATOM     18  C   UNL     1      -2.494 -11.403  15.753  0.00  0.00    +0.124 C 
BRANCH  18  25
ATOM      7  O   UNL     1      -1.458  -9.921  14.118  0.00  0.00    -0.251 OA
ATOM     25  C   UNL     1      -1.452 -10.463  15.214  0.00  0.00    +0.305 C 
BRANCH  25   5
ATOM      5  O   UNL     1      -0.471 -10.288  16.136  0.00  0.00    -0.481 OA
ATOM     37  H   UNL     1      -0.432 -11.030  16.774  0.00  0.00    +0.295 HD
ENDBRANCH  25   5
ENDBRANCH  18  25
ENDBRANCH  13  18
TORSDOF 8
ENDMDL
MODEL 8
REMARK VINA RESULT:      -6.8     27.488     30.875
REMARK  Name = 25313316
REMARK  8 active torsions:
REMARK  status: ('A' for Active; 'I' for Inactive)
REMARK    1  A    between atoms: O_5  and  C_25
REMARK    2  A    between atoms: N_9  and  C_19
REMARK    3  A    between atoms: N_10  and  C_28
REMARK    4  A    between atoms: C_12  and  C_16
REMARK    5  A    between atoms: C_13  and  C_18
REMARK    6  A    between atoms: C_16  and  C_19
REMARK    7  A    between atoms: C_18  and  C_25
REMARK    8  A    between atoms: C_33  and  C_36
REMARK                            x       y       z     vdW  Elec       q    Type
REMARK                         _______ _______ _______ _____ _____    ______ ____
ROOT
ATOM      4  O   UNL     1      -7.780  -8.660  17.210  0.00  0.00    -0.252 OA
ATOM      6  O   UNL     1      -5.929 -12.520  18.960  0.00  0.00    -0.377 OA
ATOM      8  N   UNL     1      -9.778  -9.801  17.316  0.00  0.00    -0.285 N 
ATOM     11  N   UNL     1      -7.684 -10.950  17.415  0.00  0.00    -0.281 N 
ATOM     12  C   UNL     1     -11.310 -10.074  15.375  0.00  0.00    +0.011 C 
ATOM     13  C   UNL     1     -12.135  -8.876  15.907  0.00  0.00    +0.006 C 
ATOM     14  C   UNL     1     -10.566 -10.768  16.536  0.00  0.00    +0.113 C 
ATOM     15  C   UNL     1     -11.269  -7.923  16.748  0.00  0.00    +0.023 C 
ATOM     17  C   UNL     1     -10.547  -8.682  17.856  0.00  0.00    +0.109 C 
ATOM     22  C   UNL     1      -8.377  -9.739  17.308  0.00  0.00    +0.305 C 
ATOM     26  C   UNL     1      -8.183 -12.133  18.129  0.00  0.00    +0.137 C 
ATOM     27  C   UNL     1      -6.258 -11.012  17.099  0.00  0.00    +0.137 C 
ATOM     29  C   UNL     1      -7.302 -12.405  19.346  0.00  0.00    +0.179 C 
ATOM     30  C   UNL     1      -5.458 -11.309  18.359  0.00  0.00    +0.179 C 
ENDROOT
BRANCH  12  16
ATOM     16  C   UNL     1     -10.325  -9.702  14.258  0.00  0.00    +0.020 C 
BRANCH  16  19
ATOM     19  C   UNL     1     -10.247 -10.805  13.214  0.00  0.00    +0.085 C 
BRANCH  19   9
ATOM      9  N   UNL     1      -8.855 -11.017  12.818  0.00  0.00    -0.299 NA
ATOM     10  N   UNL     1      -6.022 -10.689  12.971  0.00  0.00    -0.327 N 
ATOM     20  C   UNL     1      -8.233  -9.748  12.422  0.00  0.00    +0.103 C 
ATOM     21  C   UNL     1      -8.095 -11.625  13.917  0.00  0.00    +0.103 C 
ATOM     23  C   UNL     1      -6.794  -9.966  11.952  0.00  0.00    +0.120 C 
ATOM     24  C   UNL     1      -6.650 -11.905  13.498  0.00  0.00    +0.120 C 
BRANCH  10  28
ATOM     28  C   UNL     1      -4.627 -10.588  12.935  0.00  0.00    +0.030 A 
ATOM     31  C   UNL     1      -3.893 -10.640  14.119  0.00  0.00    +0.035 A 
ATOM     32  C   UNL     1      -3.971 -10.438  11.713  0.00  0.00    +0.023 A 
ATOM     33  C   UNL     1      -2.502 -10.541  14.084  0.00  0.00    +0.057 A 
ATOM     34  C   UNL     1      -2.579 -10.338  11.677  0.00  0.00    +0.002 A 
ATOM     35  C   UNL     1      -1.846 -10.389  12.862  0.00  0.00    +0.012 A 
BRANCH  33  36
ATOM      1  F   UNL     1      -0.760 -11.568  15.334  0.00  0.00    -0.166 F 
ATOM      2  F   UNL     1      -1.055  -9.435  15.634  0.00  0.00    -0.166 F 
ATOM      3  F   UNL     1      -2.479 -10.850  16.456  0.00  0.00    -0.166 F 
ATOM     36  C   UNL     1      -1.717 -10.595  15.350  0.00  0.00    +0.417 C 
ENDBRANCH  33  36
ENDBRANCH  10  28
ENDBRANCH  19   9
ENDBRANCH  16  19
ENDBRANCH  12  16
BRANCH  13  18
ATOM     18  C   UNL     1     -12.864  -8.110  14.803  0.00  0.00    +0.124 C 
BRANCH  18  25
ATOM      7  O   UNL     1     -12.607  -5.688  14.909  0.00  0.00    -0.251 OA
ATOM     25  C   UNL     1     -13.200  -6.708  15.229  0.00  0.00    +0.305 C 
BRANCH  25   5
ATOM      5  O   UNL     1     -14.287  -6.724  16.044  0.00  0.00    -0.481 OA
ATOM     37  H   UNL     1     -14.042  -6.588  16.983  0.00  0.00    +0.295 HD
ENDBRANCH  25   5
ENDBRANCH  18  25
ENDBRANCH  13  18
TORSDOF 8
ENDMDL
MODEL 9
REMARK VINA RESULT:      -6.7     15.356     18.961
REMARK  Name = 25313316
REMARK  8 active torsions:
REMARK  status: ('A' for Active; 'I' for Inactive)
REMARK    1  A    between atoms: O_5  and  C_25
REMARK    2  A    between atoms: N_9  and  C_19
REMARK    3  A    between atoms: N_10  and  C_28
REMARK    4  A    between atoms: C_12  and  C_16
REMARK    5  A    between atoms: C_13  and  C_18
REMARK    6  A    between atoms: C_16  and  C_19
REMARK    7  A    between atoms: C_18  and  C_25
REMARK    8  A    between atoms: C_33  and  C_36
REMARK                            x       y       z     vdW  Elec       q    Type
REMARK                         _______ _______ _______ _____ _____    ______ ____
ROOT
ATOM      4  O   UNL     1       9.371  10.634   5.490  0.00  0.00    -0.252 OA
ATOM      6  O   UNL     1      13.209  12.930   4.314  0.00  0.00    -0.377 OA
ATOM      8  N   UNL     1      10.773   9.339   6.780  0.00  0.00    -0.285 N 
ATOM     11  N   UNL     1      11.622  10.712   5.017  0.00  0.00    -0.281 N 
ATOM     12  C   UNL     1      10.868   6.857   6.641  0.00  0.00    +0.011 C 
ATOM     13  C   UNL     1       9.921   6.791   7.867  0.00  0.00    +0.006 C 
ATOM     14  C   UNL     1      11.667   8.177   6.654  0.00  0.00    +0.113 C 
ATOM     15  C   UNL     1       9.043   8.049   7.969  0.00  0.00    +0.023 C 
ATOM     17  C   UNL     1       9.899   9.311   7.950  0.00  0.00    +0.109 C 
ATOM     22  C   UNL     1      10.520  10.252   5.746  0.00  0.00    +0.305 C 
ATOM     26  C   UNL     1      12.979  10.854   5.562  0.00  0.00    +0.137 C 
ATOM     27  C   UNL     1      11.424  11.403   3.743  0.00  0.00    +0.137 C 
ATOM     29  C   UNL     1      13.361  12.332   5.604  0.00  0.00    +0.179 C 
ATOM     30  C   UNL     1      11.851  12.858   3.868  0.00  0.00    +0.179 C 
ENDROOT
BRANCH  12  16
ATOM     16  C   UNL     1      10.151   6.680   5.295  0.00  0.00    +0.020 C 
BRANCH  16  19
ATOM     19  C   UNL     1      11.088   6.993   4.137  0.00  0.00    +0.085 C 
BRANCH  19   9
ATOM      9  N   UNL     1      11.048   5.906   3.159  0.00  0.00    -0.299 NA
ATOM     10  N   UNL     1      11.423   4.679   0.608  0.00  0.00    -0.327 N 
ATOM     20  C   UNL     1      10.178   6.260   2.031  0.00  0.00    +0.103 C 
ATOM     21  C   UNL     1      12.399   5.601   2.673  0.00  0.00    +0.103 C 
ATOM     23  C   UNL     1      10.083   5.108   1.029  0.00  0.00    +0.120 C 
ATOM     24  C   UNL     1      12.378   4.426   1.691  0.00  0.00    +0.120 C 
BRANCH  10  28
ATOM     28  C   UNL     1      11.541   3.979  -0.598  0.00  0.00    +0.030 A 
ATOM     31  C   UNL     1      10.527   4.057  -1.552  0.00  0.00    +0.035 A 
ATOM     32  C   UNL     1      12.674   3.203  -0.846  0.00  0.00    +0.023 A 
ATOM     33  C   UNL     1      10.645   3.360  -2.755  0.00  0.00    +0.057 A 
ATOM     34  C   UNL     1      12.792   2.506  -2.049  0.00  0.00    +0.002 A 
ATOM     35  C   UNL     1      11.778   2.584  -3.003  0.00  0.00    +0.012 A 
BRANCH  33  36
ATOM      1  F   UNL     1      10.041   3.608  -5.041  0.00  0.00    -0.166 F 
ATOM      2  F   UNL     1       8.769   2.331  -3.825  0.00  0.00    -0.166 F 
ATOM      3  F   UNL     1       8.698   4.484  -3.573  0.00  0.00    -0.166 F 
ATOM     36  C   UNL     1       9.560   3.443  -3.775  0.00  0.00    +0.417 C 
ENDBRANCH  33  36
ENDBRANCH  10  28
ENDBRANCH  19   9
ENDBRANCH  16  19
ENDBRANCH  12  16
BRANCH  13  18
ATOM     18  C   UNL     1       9.061   5.528   7.896  0.00  0.00    +0.124 C 
BRANCH  18  25
ATOM      7  O   UNL     1       9.080   4.452  10.083  0.00  0.00    -0.251 OA
ATOM     25  C   UNL     1       9.527   4.564   8.951  0.00  0.00    +0.305 C 
BRANCH  25   5
ATOM      5  O   UNL     1      10.543   3.806   8.463  0.00  0.00    -0.481 OA
ATOM     37  H   UNL     1      10.266   2.879   8.306  0.00  0.00    +0.295 HD
ENDBRANCH  25   5
ENDBRANCH  18  25
ENDBRANCH  13  18
TORSDOF 8
ENDMDL
MODEL 10
REMARK VINA RESULT:      -6.6     15.576     20.273
REMARK  Name = 25313316
REMARK  8 active torsions:
REMARK  status: ('A' for Active; 'I' for Inactive)
REMARK    1  A    between atoms: O_5  and  C_25
REMARK    2  A    between atoms: N_9  and  C_19
REMARK    3  A    between atoms: N_10  and  C_28
REMARK    4  A    between atoms: C_12  and  C_16
REMARK    5  A    between atoms: C_13  and  C_18
REMARK    6  A    between atoms: C_16  and  C_19
REMARK    7  A    between atoms: C_18  and  C_25
REMARK    8  A    between atoms: C_33  and  C_36
REMARK                            x       y       z     vdW  Elec       q    Type
REMARK                         _______ _______ _______ _____ _____    ______ ____
ROOT
ATOM      4  O   UNL     1      11.350   6.702  -3.053  0.00  0.00    -0.252 OA
ATOM      6  O   UNL     1       9.389   3.131  -5.241  0.00  0.00    -0.377 OA
ATOM      8  N   UNL     1      13.105   5.258  -2.677  0.00  0.00    -0.285 N 
ATOM     11  N   UNL     1      10.942   4.450  -3.297  0.00  0.00    -0.281 N 
ATOM     12  C   UNL     1      14.053   4.805  -0.422  0.00  0.00    +0.011 C 
ATOM     13  C   UNL     1      15.164   5.842  -0.724  0.00  0.00    +0.006 C 
ATOM     14  C   UNL     1      13.513   4.203  -1.737  0.00  0.00    +0.113 C 
ATOM     15  C   UNL     1      14.693   6.894  -1.742  0.00  0.00    +0.023 C 
ATOM     17  C   UNL     1      14.151   6.224  -3.001  0.00  0.00    +0.109 C 
ATOM     22  C   UNL     1      11.772   5.540  -3.012  0.00  0.00    +0.305 C 
ATOM     26  C   UNL     1      11.404   3.183  -3.879  0.00  0.00    +0.137 C 
ATOM     27  C   UNL     1       9.491   4.623  -3.342  0.00  0.00    +0.137 C 
ATOM     29  C   UNL     1      10.814   3.016  -5.278  0.00  0.00    +0.179 C 
ATOM     30  C   UNL     1       8.986   4.418  -4.762  0.00  0.00    +0.179 C 
ENDROOT
BRANCH  12  16
ATOM     16  C   UNL     1      12.899   5.361   0.423  0.00  0.00    +0.020 C 
BRANCH  16  19
ATOM     19  C   UNL     1      11.729   4.389   0.450  0.00  0.00    +0.085 C 
BRANCH  19   9
ATOM      9  N   UNL     1      10.836   4.717   1.562  0.00  0.00    -0.299 NA
ATOM     10  N   UNL     1      10.126   5.829   4.094  0.00  0.00    -0.327 N 
ATOM     20  C   UNL     1      11.311   4.096   2.804  0.00  0.00    +0.103 C 
ATOM     21  C   UNL     1      10.742   6.172   1.734  0.00  0.00    +0.103 C 
ATOM     23  C   UNL     1      10.354   4.385   3.962  0.00  0.00    +0.120 C 
ATOM     24  C   UNL     1       9.767   6.531   2.858  0.00  0.00    +0.120 C 
BRANCH  10  28
ATOM     28  C   UNL     1       9.668   6.313   5.325  0.00  0.00    +0.030 A 
ATOM     31  C   UNL     1       9.815   5.542   6.477  0.00  0.00    +0.035 A 
ATOM     32  C   UNL     1       9.065   7.570   5.399  0.00  0.00    +0.023 A 
ATOM     33  C   UNL     1       9.359   6.024   7.704  0.00  0.00    +0.057 A 
ATOM     34  C   UNL     1       8.609   8.053   6.625  0.00  0.00    +0.002 A 
ATOM     35  C   UNL     1       8.755   7.280   7.777  0.00  0.00    +0.012 A 
BRANCH  33  36
ATOM      1  F   UNL     1       9.485   3.858   8.676  0.00  0.00    -0.166 F 
ATOM      2  F   UNL     1      10.688   5.417   9.597  0.00  0.00    -0.166 F 
ATOM      3  F   UNL     1       8.536   5.412   9.865  0.00  0.00    -0.166 F 
ATOM     36  C   UNL     1       9.514   5.198   8.935  0.00  0.00    +0.417 C 
ENDBRANCH  33  36
ENDBRANCH  10  28
ENDBRANCH  19   9
ENDBRANCH  16  19
ENDBRANCH  12  16
BRANCH  13  18
ATOM     18  C   UNL     1      15.715   6.516   0.533  0.00  0.00    +0.124 C 
BRANCH  18  25
ATOM      7  O   UNL     1      17.486   8.186   0.668  0.00  0.00    -0.251 OA
ATOM     25  C   UNL     1      17.084   7.091   0.299  0.00  0.00    +0.305 C 
BRANCH  25   5
ATOM      5  O   UNL     1      17.841   6.206  -0.398  0.00  0.00    -0.481 OA
ATOM     37  H   UNL     1      18.558   6.650  -0.897  0.00  0.00    +0.295 HD
ENDBRANCH  25   5
ENDBRANCH  18  25
ENDBRANCH  13  18
TORSDOF 8
ENDMDL
