MODEL 1
REMARK VINA RESULT:      -7.0      0.000      0.000
REMARK  Name = 86769372
REMARK  9 active torsions:
REMARK  status: ('A' for Active; 'I' for Inactive)
REMARK    1  A    between atoms: O_2  and  C_10
REMARK    2  A    between atoms: O_5  and  C_26
REMARK    3  A    between atoms: O_5  and  C_27
REMARK    4  A    between atoms: N_6  and  C_14
REMARK    5  A    between atoms: N_7  and  C_20
REMARK    6  A    between atoms: C_9  and  C_20
REMARK    7  A    between atoms: C_11  and  C_21
REMARK    8  A    between atoms: C_21  and  C_23
REMARK    9  A    between atoms: C_25  and  C_26
REMARK                            x       y       z     vdW  Elec       q    Type
REMARK                         _______ _______ _______ _____ _____    ______ ____
ROOT
ATOM      1  O   UNL     1      10.735   8.428  19.976  0.00  0.00    -0.369 OA
ATOM      9  C   UNL     1      11.057   8.147  21.345  0.00  0.00    +0.164 C 
ATOM     10  C   UNL     1      11.719   6.770  21.489  0.00  0.00    +0.145 C 
ATOM     11  C   UNL     1      11.831   8.345  19.063  0.00  0.00    +0.125 C 
ATOM     12  C   UNL     1      12.870   6.572  20.507  0.00  0.00    +0.036 C 
ATOM     13  C   UNL     1      12.449   6.948  19.090  0.00  0.00    +0.034 C 
ENDROOT
BRANCH  10   2
ATOM      2  O   UNL     1      10.742   5.759  21.226  0.00  0.00    -0.389 OA
ATOM     30  H   UNL     1      10.313   5.977  20.382  0.00  0.00    +0.210 HD
ENDBRANCH  10   2
BRANCH   9  20
ATOM     20  C   UNL     1      11.884   9.274  21.960  0.00  0.00    +0.140 C 
BRANCH  20   7
ATOM      3  O   UNL     1      12.629  11.983  21.352  0.00  0.00    -0.253 OA
ATOM      6  N   UNL     1      10.558  12.694  22.124  0.00  0.00    -0.297 N 
ATOM      7  N   UNL     1      11.087  10.446  22.157  0.00  0.00    -0.297 N 
ATOM     22  C   UNL     1      11.524  11.734  21.834  0.00  0.00    +0.300 C 
ATOM     28  H   UNL     1       9.709  12.387  22.591  0.00  0.00    +0.151 HD
ATOM     29  H   UNL     1      10.163  10.337  22.566  0.00  0.00    +0.150 HD
BRANCH   6  14
ATOM     14  C   UNL     1      10.749  14.107  21.887  0.00  0.00    +0.074 C 
ATOM     15  C   UNL     1       9.534  14.717  21.181  0.00  0.00    +0.022 C 
ATOM     16  C   UNL     1      11.062  14.847  23.193  0.00  0.00    +0.022 C 
ATOM     17  C   UNL     1       8.318  14.829  22.100  0.00  0.00    +0.002 C 
ATOM     18  C   UNL     1       9.843  14.958  24.108  0.00  0.00    +0.002 C 
ATOM     19  C   UNL     1       8.651  15.578  23.386  0.00  0.00    +0.000 C 
ENDBRANCH   6  14
ENDBRANCH  20   7
ENDBRANCH   9  20
BRANCH  11  21
ATOM     21  C   UNL     1      11.299   8.676  17.675  0.00  0.00    +0.090 C 
BRANCH  21  23
ATOM      4  O   UNL     1      13.571   9.465  14.992  0.00  0.00    -0.357 OA
ATOM      8  N   UNL     1      12.500   8.763  15.530  0.00  0.00    -0.083 NA
ATOM     23  C   UNL     1      12.378   9.221  16.779  0.00  0.00    +0.086 A 
ATOM     24  C   UNL     1      13.335  10.205  17.082  0.00  0.00    +0.073 A 
ATOM     25  C   UNL     1      14.061  10.321  15.925  0.00  0.00    +0.163 A 
BRANCH  25  26
ATOM     26  C   UNL     1      15.204  11.148  15.522  0.00  0.00    +0.236 C 
BRANCH  26   5
ATOM      5  O   UNL     1      14.864  11.940  14.381  0.00  0.00    -0.375 OA
ATOM     27  C   UNL     1      15.698  11.633  13.275  0.00  0.00    +0.194 C 
ENDBRANCH  26   5
ENDBRANCH  25  26
ENDBRANCH  21  23
ENDBRANCH  11  21
TORSDOF 8
ENDMDL
MODEL 2
REMARK VINA RESULT:      -6.8     15.153     19.520
REMARK  Name = 86769372
REMARK  9 active torsions:
REMARK  status: ('A' for Active; 'I' for Inactive)
REMARK    1  A    between atoms: O_2  and  C_10
REMARK    2  A    between atoms: O_5  and  C_26
REMARK    3  A    between atoms: O_5  and  C_27
REMARK    4  A    between atoms: N_6  and  C_14
REMARK    5  A    between atoms: N_7  and  C_20
REMARK    6  A    between atoms: C_9  and  C_20
REMARK    7  A    between atoms: C_11  and  C_21
REMARK    8  A    between atoms: C_21  and  C_23
REMARK    9  A    between atoms: C_25  and  C_26
REMARK                            x       y       z     vdW  Elec       q    Type
REMARK                         _______ _______ _______ _____ _____    ______ ____
ROOT
ATOM      1  O   UNL     1      12.845   3.309   0.800  0.00  0.00    -0.369 OA
ATOM      9  C   UNL     1      13.397   4.127   1.840  0.00  0.00    +0.164 C 
ATOM     10  C   UNL     1      14.900   4.354   1.633  0.00  0.00    +0.145 C 
ATOM     11  C   UNL     1      13.062   3.787  -0.530  0.00  0.00    +0.125 C 
ATOM     12  C   UNL     1      15.229   4.814   0.216  0.00  0.00    +0.036 C 
ATOM     13  C   UNL     1      14.556   3.917  -0.819  0.00  0.00    +0.034 C 
ENDROOT
BRANCH  10   2
ATOM      2  O   UNL     1      15.588   3.122   1.863  0.00  0.00    -0.389 OA
ATOM     30  H   UNL     1      15.281   2.484   1.197  0.00  0.00    +0.210 HD
ENDBRANCH  10   2
BRANCH   9  20
ATOM     20  C   UNL     1      12.612   5.429   1.992  0.00  0.00    +0.140 C 
BRANCH  20   7
ATOM      3  O   UNL     1      10.137   4.498   3.119  0.00  0.00    -0.253 OA
ATOM      6  N   UNL     1      10.751   5.423   5.158  0.00  0.00    -0.297 N 
ATOM      7  N   UNL     1      12.166   5.604   3.340  0.00  0.00    -0.297 N 
ATOM     22  C   UNL     1      10.942   5.118   3.812  0.00  0.00    +0.300 C 
ATOM     28  H   UNL     1      11.447   6.005   5.615  0.00  0.00    +0.151 HD
ATOM     29  H   UNL     1      12.761   6.119   3.983  0.00  0.00    +0.150 HD
BRANCH   6  14
ATOM     14  C   UNL     1       9.570   5.038   5.897  0.00  0.00    +0.074 C 
ATOM     15  C   UNL     1       9.870   4.926   7.395  0.00  0.00    +0.022 C 
ATOM     16  C   UNL     1       8.414   6.010   5.632  0.00  0.00    +0.022 C 
ATOM     17  C   UNL     1      10.084   6.290   8.053  0.00  0.00    +0.002 C 
ATOM     18  C   UNL     1       8.633   7.371   6.293  0.00  0.00    +0.002 C 
ATOM     19  C   UNL     1       8.918   7.234   7.785  0.00  0.00    +0.000 C 
ENDBRANCH   6  14
ENDBRANCH  20   7
ENDBRANCH   9  20
BRANCH  11  21
ATOM     21  C   UNL     1      12.408   2.798  -1.485  0.00  0.00    +0.090 C 
BRANCH  21  23
ATOM      4  O   UNL     1       9.309   3.470  -3.198  0.00  0.00    -0.357 OA
ATOM      8  N   UNL     1      10.231   2.609  -2.617  0.00  0.00    -0.083 NA
ATOM     23  C   UNL     1      11.217   3.399  -2.182  0.00  0.00    +0.086 A 
ATOM     24  C   UNL     1      10.973   4.755  -2.457  0.00  0.00    +0.073 A 
ATOM     25  C   UNL     1       9.761   4.746  -3.096  0.00  0.00    +0.163 A 
BRANCH  25  26
ATOM     26  C   UNL     1       8.903   5.792  -3.663  0.00  0.00    +0.236 C 
BRANCH  26   5
ATOM      5  O   UNL     1       8.127   6.409  -2.632  0.00  0.00    -0.375 OA
ATOM     27  C   UNL     1       6.789   6.621  -3.053  0.00  0.00    +0.194 C 
ENDBRANCH  26   5
ENDBRANCH  25  26
ENDBRANCH  21  23
ENDBRANCH  11  21
TORSDOF 8
ENDMDL
MODEL 3
REMARK VINA RESULT:      -6.3     15.573     19.834
REMARK  Name = 86769372
REMARK  9 active torsions:
REMARK  status: ('A' for Active; 'I' for Inactive)
REMARK    1  A    between atoms: O_2  and  C_10
REMARK    2  A    between atoms: O_5  and  C_26
REMARK    3  A    between atoms: O_5  and  C_27
REMARK    4  A    between atoms: N_6  and  C_14
REMARK    5  A    between atoms: N_7  and  C_20
REMARK    6  A    between atoms: C_9  and  C_20
REMARK    7  A    between atoms: C_11  and  C_21
REMARK    8  A    between atoms: C_21  and  C_23
REMARK    9  A    between atoms: C_25  and  C_26
REMARK                            x       y       z     vdW  Elec       q    Type
REMARK                         _______ _______ _______ _____ _____    ______ ____
ROOT
ATOM      1  O   UNL     1      12.865   2.917   0.639  0.00  0.00    -0.369 OA
ATOM      9  C   UNL     1      13.180   3.750   1.762  0.00  0.00    +0.164 C 
ATOM     10  C   UNL     1      14.617   4.280   1.677  0.00  0.00    +0.145 C 
ATOM     11  C   UNL     1      13.059   3.522  -0.642  0.00  0.00    +0.125 C 
ATOM     12  C   UNL     1      14.931   4.895   0.316  0.00  0.00    +0.036 C 
ATOM     13  C   UNL     1      14.512   3.961  -0.815  0.00  0.00    +0.034 C 
ENDROOT
BRANCH  10   2
ATOM      2  O   UNL     1      15.523   3.192   1.882  0.00  0.00    -0.389 OA
ATOM     30  H   UNL     1      15.769   2.844   1.009  0.00  0.00    +0.210 HD
ENDBRANCH  10   2
BRANCH   9  20
ATOM     20  C   UNL     1      12.145   4.860   1.933  0.00  0.00    +0.140 C 
BRANCH  20   7
ATOM      3  O   UNL     1      12.428   7.076   3.742  0.00  0.00    -0.253 OA
ATOM      6  N   UNL     1      11.319   5.851   5.372  0.00  0.00    -0.297 N 
ATOM      7  N   UNL     1      11.683   4.925   3.286  0.00  0.00    -0.297 N 
ATOM     22  C   UNL     1      11.861   6.046   4.104  0.00  0.00    +0.300 C 
ATOM     28  H   UNL     1      10.940   4.933   5.589  0.00  0.00    +0.151 HD
ATOM     29  H   UNL     1      11.216   4.112   3.676  0.00  0.00    +0.150 HD
BRANCH   6  14
ATOM     14  C   UNL     1      11.364   6.850   6.415  0.00  0.00    +0.074 C 
ATOM     15  C   UNL     1      10.154   7.788   6.332  0.00  0.00    +0.022 C 
ATOM     16  C   UNL     1      11.467   6.198   7.798  0.00  0.00    +0.022 C 
ATOM     17  C   UNL     1       8.855   7.106   6.760  0.00  0.00    +0.002 C 
ATOM     18  C   UNL     1      10.165   5.519   8.223  0.00  0.00    +0.002 C 
ATOM     19  C   UNL     1       8.979   6.475   8.143  0.00  0.00    +0.000 C 
ENDBRANCH   6  14
ENDBRANCH  20   7
ENDBRANCH   9  20
BRANCH  11  21
ATOM     21  C   UNL     1      12.672   2.495  -1.698  0.00  0.00    +0.090 C 
BRANCH  21  23
ATOM      4  O   UNL     1       9.557   3.668  -3.078  0.00  0.00    -0.357 OA
ATOM      8  N   UNL     1      10.351   3.242  -2.021  0.00  0.00    -0.083 NA
ATOM     23  C   UNL     1      11.544   2.984  -2.564  0.00  0.00    +0.086 A 
ATOM     24  C   UNL     1      11.562   3.227  -3.949  0.00  0.00    +0.073 A 
ATOM     25  C   UNL     1      10.289   3.655  -4.222  0.00  0.00    +0.163 A 
BRANCH  25  26
ATOM     26  C   UNL     1       9.601   4.079  -5.446  0.00  0.00    +0.236 C 
BRANCH  26   5
ATOM      5  O   UNL     1       9.292   2.943  -6.259  0.00  0.00    -0.375 OA
ATOM     27  C   UNL     1       9.084   3.320  -7.611  0.00  0.00    +0.194 C 
ENDBRANCH  26   5
ENDBRANCH  25  26
ENDBRANCH  21  23
ENDBRANCH  11  21
TORSDOF 8
ENDMDL
MODEL 4
REMARK VINA RESULT:      -6.3      3.479      6.568
REMARK  Name = 86769372
REMARK  9 active torsions:
REMARK  status: ('A' for Active; 'I' for Inactive)
REMARK    1  A    between atoms: O_2  and  C_10
REMARK    2  A    between atoms: O_5  and  C_26
REMARK    3  A    between atoms: O_5  and  C_27
REMARK    4  A    between atoms: N_6  and  C_14
REMARK    5  A    between atoms: N_7  and  C_20
REMARK    6  A    between atoms: C_9  and  C_20
REMARK    7  A    between atoms: C_11  and  C_21
REMARK    8  A    between atoms: C_21  and  C_23
REMARK    9  A    between atoms: C_25  and  C_26
REMARK                            x       y       z     vdW  Elec       q    Type
REMARK                         _______ _______ _______ _____ _____    ______ ____
ROOT
ATOM      1  O   UNL     1      12.315   7.864  22.031  0.00  0.00    -0.369 OA
ATOM      9  C   UNL     1      13.392   7.336  21.245  0.00  0.00    +0.164 C 
ATOM     10  C   UNL     1      12.924   6.978  19.828  0.00  0.00    +0.145 C 
ATOM     11  C   UNL     1      11.645   8.993  21.466  0.00  0.00    +0.125 C 
ATOM     12  C   UNL     1      12.147   8.113  19.168  0.00  0.00    +0.036 C 
ATOM     13  C   UNL     1      11.061   8.644  20.098  0.00  0.00    +0.034 C 
ENDROOT
BRANCH  10   2
ATOM      2  O   UNL     1      12.059   5.842  19.902  0.00  0.00    -0.389 OA
ATOM     30  H   UNL     1      11.161   6.140  19.681  0.00  0.00    +0.210 HD
ENDBRANCH  10   2
BRANCH   9  20
ATOM     20  C   UNL     1      14.595   8.277  21.255  0.00  0.00    +0.140 C 
BRANCH  20   7
ATOM      3  O   UNL     1      14.376  11.098  21.767  0.00  0.00    -0.253 OA
ATOM      6  N   UNL     1      14.770  10.690  24.018  0.00  0.00    -0.297 N 
ATOM      7  N   UNL     1      14.723   8.930  22.522  0.00  0.00    -0.297 N 
ATOM     22  C   UNL     1      14.603  10.314  22.688  0.00  0.00    +0.300 C 
ATOM     28  H   UNL     1      15.029   9.969  24.686  0.00  0.00    +0.151 HD
ATOM     29  H   UNL     1      14.927   8.362  23.339  0.00  0.00    +0.150 HD
BRANCH   6  14
ATOM     14  C   UNL     1      14.695  12.061  24.469  0.00  0.00    +0.074 C 
ATOM     15  C   UNL     1      14.263  12.136  25.938  0.00  0.00    +0.022 C 
ATOM     16  C   UNL     1      16.025  12.789  24.244  0.00  0.00    +0.022 C 
ATOM     17  C   UNL     1      15.360  11.668  26.895  0.00  0.00    +0.002 C 
ATOM     18  C   UNL     1      17.118  12.319  25.204  0.00  0.00    +0.002 C 
ATOM     19  C   UNL     1      16.669  12.414  26.658  0.00  0.00    +0.000 C 
ENDBRANCH   6  14
ENDBRANCH  20   7
ENDBRANCH   9  20
BRANCH  11  21
ATOM     21  C   UNL     1      10.547   9.408  22.436  0.00  0.00    +0.090 C 
BRANCH  21  23
ATOM      4  O   UNL     1      11.052  12.285  24.546  0.00  0.00    -0.357 OA
ATOM      8  N   UNL     1      10.773  10.939  24.349  0.00  0.00    -0.083 NA
ATOM     23  C   UNL     1      10.807  10.768  23.024  0.00  0.00    +0.086 A 
ATOM     24  C   UNL     1      11.102  11.961  22.341  0.00  0.00    +0.073 A 
ATOM     25  C   UNL     1      11.247  12.884  23.343  0.00  0.00    +0.163 A 
BRANCH  25  26
ATOM     26  C   UNL     1      11.555  14.318  23.367  0.00  0.00    +0.236 C 
BRANCH  26   5
ATOM      5  O   UNL     1      10.534  15.033  24.069  0.00  0.00    -0.375 OA
ATOM     27  C   UNL     1       9.335  15.090  23.313  0.00  0.00    +0.194 C 
ENDBRANCH  26   5
ENDBRANCH  25  26
ENDBRANCH  21  23
ENDBRANCH  11  21
TORSDOF 8
ENDMDL
MODEL 5
REMARK VINA RESULT:      -6.1      4.604      8.461
REMARK  Name = 86769372
REMARK  9 active torsions:
REMARK  status: ('A' for Active; 'I' for Inactive)
REMARK    1  A    between atoms: O_2  and  C_10
REMARK    2  A    between atoms: O_5  and  C_26
REMARK    3  A    between atoms: O_5  and  C_27
REMARK    4  A    between atoms: N_6  and  C_14
REMARK    5  A    between atoms: N_7  and  C_20
REMARK    6  A    between atoms: C_9  and  C_20
REMARK    7  A    between atoms: C_11  and  C_21
REMARK    8  A    between atoms: C_21  and  C_23
REMARK    9  A    between atoms: C_25  and  C_26
REMARK                            x       y       z     vdW  Elec       q    Type
REMARK                         _______ _______ _______ _____ _____    ______ ____
ROOT
ATOM      1  O   UNL     1      12.502   7.975  21.967  0.00  0.00    -0.369 OA
ATOM      9  C   UNL     1      13.506   7.520  21.049  0.00  0.00    +0.164 C 
ATOM     10  C   UNL     1      12.889   7.116  19.704  0.00  0.00    +0.145 C 
ATOM     11  C   UNL     1      11.684   9.047  21.492  0.00  0.00    +0.125 C 
ATOM     12  C   UNL     1      11.952   8.184  19.148  0.00  0.00    +0.036 C 
ATOM     13  C   UNL     1      10.957   8.643  20.210  0.00  0.00    +0.034 C 
ENDROOT
BRANCH  10   2
ATOM      2  O   UNL     1      12.126   5.920  19.888  0.00  0.00    -0.389 OA
ATOM     30  H   UNL     1      12.750   5.200  20.084  0.00  0.00    +0.210 HD
ENDBRANCH  10   2
BRANCH   9  20
ATOM     20  C   UNL     1      14.627   8.547  20.906  0.00  0.00    +0.140 C 
BRANCH  20   7
ATOM      3  O   UNL     1      17.256   9.679  20.636  0.00  0.00    -0.253 OA
ATOM      6  N   UNL     1      18.073   8.053  22.077  0.00  0.00    -0.297 N 
ATOM      7  N   UNL     1      15.827   8.086  21.536  0.00  0.00    -0.297 N 
ATOM     22  C   UNL     1      17.073   8.695  21.352  0.00  0.00    +0.300 C 
ATOM     28  H   UNL     1      17.825   7.203  22.577  0.00  0.00    +0.151 HD
ATOM     29  H   UNL     1      15.773   7.268  22.135  0.00  0.00    +0.150 HD
BRANCH   6  14
ATOM     14  C   UNL     1      19.454   8.477  22.068  0.00  0.00    +0.074 C 
ATOM     15  C   UNL     1      20.079   8.351  23.462  0.00  0.00    +0.022 C 
ATOM     16  C   UNL     1      20.263   7.698  21.025  0.00  0.00    +0.022 C 
ATOM     17  C   UNL     1      20.317   6.896  23.867  0.00  0.00    +0.002 C 
ATOM     18  C   UNL     1      20.499   6.244  21.435  0.00  0.00    +0.002 C 
ATOM     19  C   UNL     1      21.131   6.145  22.819  0.00  0.00    +0.000 C 
ENDBRANCH   6  14
ENDBRANCH  20   7
ENDBRANCH   9  20
BRANCH  11  21
ATOM     21  C   UNL     1      10.691   9.390  22.594  0.00  0.00    +0.090 C 
BRANCH  21  23
ATOM      4  O   UNL     1      11.042  12.406  24.536  0.00  0.00    -0.357 OA
ATOM      8  N   UNL     1      10.820  11.039  24.415  0.00  0.00    -0.083 NA
ATOM     23  C   UNL     1      10.885  10.793  23.104  0.00  0.00    +0.086 A 
ATOM     24  C   UNL     1      11.144  11.954  22.355  0.00  0.00    +0.073 A 
ATOM     25  C   UNL     1      11.234  12.940  23.303  0.00  0.00    +0.163 A 
BRANCH  25  26
ATOM     26  C   UNL     1      11.483  14.384  23.245  0.00  0.00    +0.236 C 
BRANCH  26   5
ATOM      5  O   UNL     1      12.802  14.679  23.716  0.00  0.00    -0.375 OA
ATOM     27  C   UNL     1      13.702  14.865  22.636  0.00  0.00    +0.194 C 
ENDBRANCH  26   5
ENDBRANCH  25  26
ENDBRANCH  21  23
ENDBRANCH  11  21
TORSDOF 8
ENDMDL
MODEL 6
REMARK VINA RESULT:      -6.1     28.401     30.710
REMARK  Name = 86769372
REMARK  9 active torsions:
REMARK  status: ('A' for Active; 'I' for Inactive)
REMARK    1  A    between atoms: O_2  and  C_10
REMARK    2  A    between atoms: O_5  and  C_26
REMARK    3  A    between atoms: O_5  and  C_27
REMARK    4  A    between atoms: N_6  and  C_14
REMARK    5  A    between atoms: N_7  and  C_20
REMARK    6  A    between atoms: C_9  and  C_20
REMARK    7  A    between atoms: C_11  and  C_21
REMARK    8  A    between atoms: C_21  and  C_23
REMARK    9  A    between atoms: C_25  and  C_26
REMARK                            x       y       z     vdW  Elec       q    Type
REMARK                         _______ _______ _______ _____ _____    ______ ____
ROOT
ATOM      1  O   UNL     1     -14.040   2.343  31.258  0.00  0.00    -0.369 OA
ATOM      9  C   UNL     1     -14.271   1.975  29.891  0.00  0.00    +0.164 C 
ATOM     10  C   UNL     1     -14.271   0.451  29.717  0.00  0.00    +0.145 C 
ATOM     11  C   UNL     1     -14.946   1.769  32.204  0.00  0.00    +0.125 C 
ATOM     12  C   UNL     1     -15.172  -0.251  30.729  0.00  0.00    +0.036 C 
ATOM     13  C   UNL     1     -14.891   0.243  32.144  0.00  0.00    +0.034 C 
ENDROOT
BRANCH  10   2
ATOM      2  O   UNL     1     -12.939  -0.035  29.908  0.00  0.00    -0.389 OA
ATOM     30  H   UNL     1     -12.995  -0.992  30.070  0.00  0.00    +0.210 HD
ENDBRANCH  10   2
BRANCH   9  20
ATOM     20  C   UNL     1     -15.536   2.637  29.349  0.00  0.00    +0.140 C 
BRANCH  20   7
ATOM      3  O   UNL     1     -17.189   2.376  27.012  0.00  0.00    -0.253 OA
ATOM      6  N   UNL     1     -15.695   3.712  25.840  0.00  0.00    -0.297 N 
ATOM      7  N   UNL     1     -15.298   3.218  28.062  0.00  0.00    -0.297 N 
ATOM     22  C   UNL     1     -16.156   3.042  26.971  0.00  0.00    +0.300 C 
ATOM     28  H   UNL     1     -14.790   4.170  25.897  0.00  0.00    +0.151 HD
ATOM     29  H   UNL     1     -14.458   3.773  27.931  0.00  0.00    +0.150 HD
BRANCH   6  14
ATOM     14  C   UNL     1     -16.391   3.698  24.574  0.00  0.00    +0.074 C 
ATOM     15  C   UNL     1     -17.594   4.646  24.595  0.00  0.00    +0.022 C 
ATOM     16  C   UNL     1     -15.439   4.033  23.420  0.00  0.00    +0.022 C 
ATOM     17  C   UNL     1     -17.180   6.118  24.582  0.00  0.00    +0.002 C 
ATOM     18  C   UNL     1     -15.029   5.506  23.410  0.00  0.00    +0.002 C 
ATOM     19  C   UNL     1     -16.243   6.429  23.420  0.00  0.00    +0.000 C 
ENDBRANCH   6  14
ENDBRANCH  20   7
ENDBRANCH   9  20
BRANCH  11  21
ATOM     21  C   UNL     1     -14.547   2.273  33.585  0.00  0.00    +0.090 C 
BRANCH  21  23
ATOM      4  O   UNL     1     -14.779   5.738  34.547  0.00  0.00    -0.357 OA
ATOM      8  N   UNL     1     -14.191   4.481  34.609  0.00  0.00    -0.083 NA
ATOM     23  C   UNL     1     -14.906   3.722  33.775  0.00  0.00    +0.086 A 
ATOM     24  C   UNL     1     -15.948   4.439  33.162  0.00  0.00    +0.073 A 
ATOM     25  C   UNL     1     -15.824   5.702  33.681  0.00  0.00    +0.163 A 
BRANCH  25  26
ATOM     26  C   UNL     1     -16.564   6.954  33.493  0.00  0.00    +0.236 C 
BRANCH  26   5
ATOM      5  O   UNL     1     -16.513   7.360  32.123  0.00  0.00    -0.375 OA
ATOM     27  C   UNL     1     -15.244   7.903  31.795  0.00  0.00    +0.194 C 
ENDBRANCH  26   5
ENDBRANCH  25  26
ENDBRANCH  21  23
ENDBRANCH  11  21
TORSDOF 8
ENDMDL
MODEL 7
REMARK VINA RESULT:      -6.1      2.661      6.566
REMARK  Name = 86769372
REMARK  9 active torsions:
REMARK  status: ('A' for Active; 'I' for Inactive)
REMARK    1  A    between atoms: O_2  and  C_10
REMARK    2  A    between atoms: O_5  and  C_26
REMARK    3  A    between atoms: O_5  and  C_27
REMARK    4  A    between atoms: N_6  and  C_14
REMARK    5  A    between atoms: N_7  and  C_20
REMARK    6  A    between atoms: C_9  and  C_20
REMARK    7  A    between atoms: C_11  and  C_21
REMARK    8  A    between atoms: C_21  and  C_23
REMARK    9  A    between atoms: C_25  and  C_26
REMARK                            x       y       z     vdW  Elec       q    Type
REMARK                         _______ _______ _______ _____ _____    ______ ____
ROOT
ATOM      1  O   UNL     1      10.885  11.348  22.010  0.00  0.00    -0.369 OA
ATOM      9  C   UNL     1      11.378  12.689  22.134  0.00  0.00    +0.164 C 
ATOM     10  C   UNL     1      11.075  13.266  23.523  0.00  0.00    +0.145 C 
ATOM     11  C   UNL     1      11.352  10.432  23.003  0.00  0.00    +0.125 C 
ATOM     12  C   UNL     1      11.492  12.324  24.649  0.00  0.00    +0.036 C 
ATOM     13  C   UNL     1      10.968  10.913  24.402  0.00  0.00    +0.034 C 
ENDROOT
BRANCH  10   2
ATOM      2  O   UNL     1       9.666  13.483  23.635  0.00  0.00    -0.389 OA
ATOM     30  H   UNL     1       9.226  12.899  22.994  0.00  0.00    +0.210 HD
ENDBRANCH  10   2
BRANCH   9  20
ATOM     20  C   UNL     1      12.857  12.768  21.765  0.00  0.00    +0.140 C 
BRANCH  20   7
ATOM      3  O   UNL     1      14.463  10.693  20.591  0.00  0.00    -0.253 OA
ATOM      6  N   UNL     1      13.870  11.467  18.484  0.00  0.00    -0.297 N 
ATOM      7  N   UNL     1      13.051  12.522  20.369  0.00  0.00    -0.297 N 
ATOM     22  C   UNL     1      13.852  11.487  19.876  0.00  0.00    +0.300 C 
ATOM     28  H   UNL     1      13.390  12.216  17.993  0.00  0.00    +0.151 HD
ATOM     29  H   UNL     1      12.596  13.140  19.702  0.00  0.00    +0.150 HD
BRANCH   6  14
ATOM     14  C   UNL     1      14.619  10.498  17.715  0.00  0.00    +0.074 C 
ATOM     15  C   UNL     1      13.833   9.192  17.559  0.00  0.00    +0.022 C 
ATOM     16  C   UNL     1      15.022  11.070  16.352  0.00  0.00    +0.022 C 
ATOM     17  C   UNL     1      12.647   9.333  16.605  0.00  0.00    +0.002 C 
ATOM     18  C   UNL     1      13.833  11.208  15.401  0.00  0.00    +0.002 C 
ATOM     19  C   UNL     1      13.075   9.894  15.253  0.00  0.00    +0.000 C 
ENDBRANCH   6  14
ENDBRANCH  20   7
ENDBRANCH   9  20
BRANCH  11  21
ATOM     21  C   UNL     1      10.729   9.075  22.705  0.00  0.00    +0.090 C 
BRANCH  21  23
ATOM      4  O   UNL     1      11.974   7.175  19.907  0.00  0.00    -0.357 OA
ATOM      8  N   UNL     1      10.961   7.832  20.595  0.00  0.00    -0.083 NA
ATOM     23  C   UNL     1      11.541   8.296  21.706  0.00  0.00    +0.086 A 
ATOM     24  C   UNL     1      12.906   7.968  21.771  0.00  0.00    +0.073 A 
ATOM     25  C   UNL     1      13.128   7.263  20.617  0.00  0.00    +0.163 A 
BRANCH  25  26
ATOM     26  C   UNL     1      14.309   6.619  20.032  0.00  0.00    +0.236 C 
BRANCH  26   5
ATOM      5  O   UNL     1      15.456   6.845  20.855  0.00  0.00    -0.375 OA
ATOM     27  C   UNL     1      16.376   7.723  20.225  0.00  0.00    +0.194 C 
ENDBRANCH  26   5
ENDBRANCH  25  26
ENDBRANCH  21  23
ENDBRANCH  11  21
TORSDOF 8
ENDMDL
MODEL 8
REMARK VINA RESULT:      -6.0     13.175     16.772
REMARK  Name = 86769372
REMARK  9 active torsions:
REMARK  status: ('A' for Active; 'I' for Inactive)
REMARK    1  A    between atoms: O_2  and  C_10
REMARK    2  A    between atoms: O_5  and  C_26
REMARK    3  A    between atoms: O_5  and  C_27
REMARK    4  A    between atoms: N_6  and  C_14
REMARK    5  A    between atoms: N_7  and  C_20
REMARK    6  A    between atoms: C_9  and  C_20
REMARK    7  A    between atoms: C_11  and  C_21
REMARK    8  A    between atoms: C_21  and  C_23
REMARK    9  A    between atoms: C_25  and  C_26
REMARK                            x       y       z     vdW  Elec       q    Type
REMARK                         _______ _______ _______ _____ _____    ______ ____
ROOT
ATOM      1  O   UNL     1      11.524   6.344   7.214  0.00  0.00    -0.369 OA
ATOM      9  C   UNL     1      10.478   5.365   7.139  0.00  0.00    +0.164 C 
ATOM     10  C   UNL     1       9.297   5.744   8.041  0.00  0.00    +0.145 C 
ATOM     11  C   UNL     1      11.126   7.684   6.917  0.00  0.00    +0.125 C 
ATOM     12  C   UNL     1       8.841   7.185   7.829  0.00  0.00    +0.036 C 
ATOM     13  C   UNL     1      10.026   8.144   7.872  0.00  0.00    +0.034 C 
ENDROOT
BRANCH  10   2
ATOM      2  O   UNL     1       9.697   5.609   9.407  0.00  0.00    -0.389 OA
ATOM     30  H   UNL     1       8.902   5.704   9.958  0.00  0.00    +0.210 HD
ENDBRANCH  10   2
BRANCH   9  20
ATOM     20  C   UNL     1      10.066   5.110   5.691  0.00  0.00    +0.140 C 
BRANCH  20   7
ATOM      3  O   UNL     1      10.105   4.607   2.861  0.00  0.00    -0.253 OA
ATOM      6  N   UNL     1      12.310   5.330   2.793  0.00  0.00    -0.297 N 
ATOM      7  N   UNL     1      11.167   5.314   4.801  0.00  0.00    -0.297 N 
ATOM     22  C   UNL     1      11.105   5.044   3.430  0.00  0.00    +0.300 C 
ATOM     28  H   UNL     1      13.096   5.615   3.371  0.00  0.00    +0.151 HD
ATOM     29  H   UNL     1      12.041   5.660   5.186  0.00  0.00    +0.150 HD
BRANCH   6  14
ATOM     14  C   UNL     1      12.521   5.143   1.376  0.00  0.00    +0.074 C 
ATOM     15  C   UNL     1      13.579   6.115   0.843  0.00  0.00    +0.022 C 
ATOM     16  C   UNL     1      12.893   3.689   1.061  0.00  0.00    +0.022 C 
ATOM     17  C   UNL     1      14.991   5.755   1.306  0.00  0.00    +0.002 C 
ATOM     18  C   UNL     1      14.306   3.334   1.526  0.00  0.00    +0.002 C 
ATOM     19  C   UNL     1      15.341   4.308   0.973  0.00  0.00    +0.000 C 
ENDBRANCH   6  14
ENDBRANCH  20   7
ENDBRANCH   9  20
BRANCH  11  21
ATOM     21  C   UNL     1      12.360   8.568   7.044  0.00  0.00    +0.090 C 
BRANCH  21  23
ATOM      4  O   UNL     1      14.144   7.677   4.042  0.00  0.00    -0.357 OA
ATOM      8  N   UNL     1      12.974   7.869   4.766  0.00  0.00    -0.083 NA
ATOM     23  C   UNL     1      13.378   8.262   5.978  0.00  0.00    +0.086 A 
ATOM     24  C   UNL     1      14.778   8.336   6.075  0.00  0.00    +0.073 A 
ATOM     25  C   UNL     1      15.212   7.959   4.832  0.00  0.00    +0.163 A 
BRANCH  25  26
ATOM     26  C   UNL     1      16.537   7.807   4.221  0.00  0.00    +0.236 C 
BRANCH  26   5
ATOM      5  O   UNL     1      17.534   8.424   5.041  0.00  0.00    -0.375 OA
ATOM     27  C   UNL     1      18.835   8.198   4.524  0.00  0.00    +0.194 C 
ENDBRANCH  26   5
ENDBRANCH  25  26
ENDBRANCH  21  23
ENDBRANCH  11  21
TORSDOF 8
ENDMDL
MODEL 9
REMARK VINA RESULT:      -6.0      2.440      2.883
REMARK  Name = 86769372
REMARK  9 active torsions:
REMARK  status: ('A' for Active; 'I' for Inactive)
REMARK    1  A    between atoms: O_2  and  C_10
REMARK    2  A    between atoms: O_5  and  C_26
REMARK    3  A    between atoms: O_5  and  C_27
REMARK    4  A    between atoms: N_6  and  C_14
REMARK    5  A    between atoms: N_7  and  C_20
REMARK    6  A    between atoms: C_9  and  C_20
REMARK    7  A    between atoms: C_11  and  C_21
REMARK    8  A    between atoms: C_21  and  C_23
REMARK    9  A    between atoms: C_25  and  C_26
REMARK                            x       y       z     vdW  Elec       q    Type
REMARK                         _______ _______ _______ _____ _____    ______ ____
ROOT
ATOM      1  O   UNL     1      13.936   7.999  20.523  0.00  0.00    -0.369 OA
ATOM      9  C   UNL     1      14.802   8.376  21.602  0.00  0.00    +0.164 C 
ATOM     10  C   UNL     1      16.072   7.516  21.622  0.00  0.00    +0.145 C 
ATOM     11  C   UNL     1      14.533   8.025  19.224  0.00  0.00    +0.125 C 
ATOM     12  C   UNL     1      16.747   7.441  20.256  0.00  0.00    +0.036 C 
ATOM     13  C   UNL     1      15.739   7.088  19.167  0.00  0.00    +0.034 C 
ENDROOT
BRANCH  10   2
ATOM      2  O   UNL     1      15.721   6.184  22.008  0.00  0.00    -0.389 OA
ATOM     30  H   UNL     1      14.851   6.222  22.441  0.00  0.00    +0.210 HD
ENDBRANCH  10   2
BRANCH   9  20
ATOM     20  C   UNL     1      15.097   9.874  21.574  0.00  0.00    +0.140 C 
BRANCH  20   7
ATOM      3  O   UNL     1      12.394  10.781  21.207  0.00  0.00    -0.253 OA
ATOM      6  N   UNL     1      12.420  11.639  23.364  0.00  0.00    -0.297 N 
ATOM      7  N   UNL     1      14.291  10.573  22.528  0.00  0.00    -0.297 N 
ATOM     22  C   UNL     1      12.979  10.982  22.271  0.00  0.00    +0.300 C 
ATOM     28  H   UNL     1      13.017  11.817  24.166  0.00  0.00    +0.151 HD
ATOM     29  H   UNL     1      14.698  10.796  23.432  0.00  0.00    +0.150 HD
BRANCH   6  14
ATOM     14  C   UNL     1      11.074  12.165  23.368  0.00  0.00    +0.074 C 
ATOM     15  C   UNL     1      10.549  12.325  24.799  0.00  0.00    +0.022 C 
ATOM     16  C   UNL     1      10.997  13.488  22.597  0.00  0.00    +0.022 C 
ATOM     17  C   UNL     1      11.220  13.480  25.543  0.00  0.00    +0.002 C 
ATOM     18  C   UNL     1      11.668  14.640  23.346  0.00  0.00    +0.002 C 
ATOM     19  C   UNL     1      11.121  14.786  24.762  0.00  0.00    +0.000 C 
ENDBRANCH   6  14
ENDBRANCH  20   7
ENDBRANCH   9  20
BRANCH  11  21
ATOM     21  C   UNL     1      13.469   7.602  18.221  0.00  0.00    +0.090 C 
BRANCH  21  23
ATOM      4  O   UNL     1      12.532   9.513  15.312  0.00  0.00    -0.357 OA
ATOM      8  N   UNL     1      12.358   8.458  16.199  0.00  0.00    -0.083 NA
ATOM     23  C   UNL     1      13.344   8.588  17.091  0.00  0.00    +0.086 A 
ATOM     24  C   UNL     1      14.163   9.698  16.821  0.00  0.00    +0.073 A 
ATOM     25  C   UNL     1      13.610  10.245  15.693  0.00  0.00    +0.163 A 
BRANCH  25  26
ATOM     26  C   UNL     1      13.940  11.407  14.860  0.00  0.00    +0.236 C 
BRANCH  26   5
ATOM      5  O   UNL     1      13.018  11.515  13.772  0.00  0.00    -0.375 OA
ATOM     27  C   UNL     1      12.959  12.844  13.279  0.00  0.00    +0.194 C 
ENDBRANCH  26   5
ENDBRANCH  25  26
ENDBRANCH  21  23
ENDBRANCH  11  21
TORSDOF 8
ENDMDL
MODEL 10
REMARK VINA RESULT:      -6.0     26.775     29.525
REMARK  Name = 86769372
REMARK  9 active torsions:
REMARK  status: ('A' for Active; 'I' for Inactive)
REMARK    1  A    between atoms: O_2  and  C_10
REMARK    2  A    between atoms: O_5  and  C_26
REMARK    3  A    between atoms: O_5  and  C_27
REMARK    4  A    between atoms: N_6  and  C_14
REMARK    5  A    between atoms: N_7  and  C_20
REMARK    6  A    between atoms: C_9  and  C_20
REMARK    7  A    between atoms: C_11  and  C_21
REMARK    8  A    between atoms: C_21  and  C_23
REMARK    9  A    between atoms: C_25  and  C_26
REMARK                            x       y       z     vdW  Elec       q    Type
REMARK                         _______ _______ _______ _____ _____    ______ ____
ROOT
ATOM      1  O   UNL     1     -16.011   2.144  25.035  0.00  0.00    -0.369 OA
ATOM      9  C   UNL     1     -16.100   3.136  24.004  0.00  0.00    +0.164 C 
ATOM     10  C   UNL     1     -17.353   2.933  23.143  0.00  0.00    +0.145 C 
ATOM     11  C   UNL     1     -17.151   2.053  25.893  0.00  0.00    +0.125 C 
ATOM     12  C   UNL     1     -18.616   2.769  23.982  0.00  0.00    +0.036 C 
ATOM     13  C   UNL     1     -18.408   1.735  25.084  0.00  0.00    +0.034 C 
ENDROOT
BRANCH  10   2
ATOM      2  O   UNL     1     -17.189   1.744  22.364  0.00  0.00    -0.389 OA
ATOM     30  H   UNL     1     -16.476   1.223  22.768  0.00  0.00    +0.210 HD
ENDBRANCH  10   2
BRANCH   9  20
ATOM     20  C   UNL     1     -15.996   4.545  24.584  0.00  0.00    +0.140 C 
BRANCH  20   7
ATOM      3  O   UNL     1     -16.562   6.200  22.303  0.00  0.00    -0.253 OA
ATOM      6  N   UNL     1     -14.318   6.786  22.207  0.00  0.00    -0.297 N 
ATOM      7  N   UNL     1     -15.059   5.335  23.846  0.00  0.00    -0.297 N 
ATOM     22  C   UNL     1     -15.416   6.117  22.742  0.00  0.00    +0.300 C 
ATOM     28  H   UNL     1     -13.403   6.586  22.602  0.00  0.00    +0.151 HD
ATOM     29  H   UNL     1     -14.084   5.316  24.129  0.00  0.00    +0.150 HD
BRANCH   6  14
ATOM     14  C   UNL     1     -14.406   7.663  21.062  0.00  0.00    +0.074 C 
ATOM     15  C   UNL     1     -14.378   9.134  21.490  0.00  0.00    +0.022 C 
ATOM     16  C   UNL     1     -13.296   7.358  20.049  0.00  0.00    +0.022 C 
ATOM     17  C   UNL     1     -12.998   9.575  21.978  0.00  0.00    +0.002 C 
ATOM     18  C   UNL     1     -11.918   7.803  20.540  0.00  0.00    +0.002 C 
ATOM     19  C   UNL     1     -11.914   9.272  20.949  0.00  0.00    +0.000 C 
ENDBRANCH   6  14
ENDBRANCH  20   7
ENDBRANCH   9  20
BRANCH  11  21
ATOM     21  C   UNL     1     -16.871   0.959  26.914  0.00  0.00    +0.090 C 
BRANCH  21  23
ATOM      4  O   UNL     1     -15.088   2.916  29.360  0.00  0.00    -0.357 OA
ATOM      8  N   UNL     1     -15.836   2.786  28.196  0.00  0.00    -0.083 NA
ATOM     23  C   UNL     1     -16.071   1.476  28.080  0.00  0.00    +0.086 A 
ATOM     24  C   UNL     1     -15.502   0.737  29.131  0.00  0.00    +0.073 A 
ATOM     25  C   UNL     1     -14.895   1.688  29.908  0.00  0.00    +0.163 A 
BRANCH  25  26
ATOM     26  C   UNL     1     -14.118   1.641  31.151  0.00  0.00    +0.236 C 
BRANCH  26   5
ATOM      5  O   UNL     1     -14.881   1.019  32.189  0.00  0.00    -0.375 OA
ATOM     27  C   UNL     1     -14.666   1.658  33.437  0.00  0.00    +0.194 C 
ENDBRANCH  26   5
ENDBRANCH  25  26
ENDBRANCH  21  23
ENDBRANCH  11  21
TORSDOF 8
ENDMDL
