REMARK  Name = 75536738
REMARK  10 active torsions:
REMARK  status: ('A' for Active; 'I' for Inactive)
REMARK    1  A    between atoms: O_2  and  C_10
REMARK    2  A    between atoms: N_4  and  C_9
REMARK    3  A    between atoms: N_4  and  C_14
REMARK    4  A    between atoms: N_5  and  C_13
REMARK    5  A    between atoms: N_6  and  C_19
REMARK    6  A    between atoms: N_7  and  C_17
REMARK    7  A    between atoms: C_11  and  C_13
REMARK    8  A    between atoms: C_14  and  C_15
REMARK    9  A    between atoms: C_17  and  C_21
REMARK   10  A    between atoms: C_17  and  C_22
REMARK                            x       y       z     vdW  Elec       q    Type
REMARK                         _______ _______ _______ _____ _____    ______ ____
ROOT
ATOM      1  O   UNL     1       0.745  -1.113  -0.006  0.00  0.00    -0.371 OA
ATOM      9  C   UNL     1      -1.191   0.216  -0.362  0.00  0.00    +0.111 C 
ATOM     10  C   UNL     1      -0.210   0.991   0.498  0.00  0.00    +0.164 C 
ATOM     11  C   UNL     1       1.092   0.269   0.180  0.00  0.00    +0.165 C 
ATOM     12  C   UNL     1      -0.678  -1.205  -0.197  0.00  0.00    +0.181 C 
ENDROOT
BRANCH  10   2
ATOM      2  O   UNL     1      -0.150   2.362   0.156  0.00  0.00    -0.388 OA
ATOM     24  H   UNL     1       0.072   2.433  -0.788  0.00  0.00    +0.210 HD
ENDBRANCH  10   2
BRANCH   9   4
ATOM      4  N   UNL     1      -2.577   0.368   0.052  0.00  0.00    -0.302 NA
ATOM     23  H   UNL     1      -2.765   1.355   0.233  0.00  0.00    +0.123 HD
BRANCH   4  14
ATOM     14  C   UNL     1      -3.489  -0.106  -0.981  0.00  0.00    +0.156 C 
BRANCH  14  15
ATOM      6  N   UNL     1      -5.514  -0.833   0.323  0.00  0.00    -0.336 N 
ATOM      8  N   UNL     1      -5.771   0.950  -0.977  0.00  0.00    -0.239 NA
ATOM     15  C   UNL     1      -4.929   0.029  -0.563  0.00  0.00    +0.123 A 
ATOM     18  C   UNL     1      -6.811  -0.436   0.485  0.00  0.00    +0.106 A 
ATOM     19  C   UNL     1      -4.891  -1.959   0.977  0.00  0.00    +0.150 C 
ATOM     20  C   UNL     1      -6.946   0.666  -0.327  0.00  0.00    +0.130 A 
ENDBRANCH  14  15
ENDBRANCH   4  14
ENDBRANCH   9   4
BRANCH  11  13
ATOM     13  C   UNL     1       2.132   0.394   1.279  0.00  0.00    +0.140 C 
BRANCH  13   5
ATOM      3  O   UNL     1       4.417   1.456  -0.127  0.00  0.00    -0.253 OA
ATOM      5  N   UNL     1       3.338  -0.304   0.938  0.00  0.00    -0.297 N 
ATOM      7  N   UNL     1       5.447  -0.615   0.052  0.00  0.00    -0.297 N 
ATOM     16  C   UNL     1       4.404   0.286   0.252  0.00  0.00    +0.300 C 
ATOM     25  H   UNL     1       3.416  -1.283   1.197  0.00  0.00    +0.150 HD
ATOM     26  H   UNL     1       5.373  -1.538   0.470  0.00  0.00    +0.150 HD
BRANCH   7  17
ATOM     17  C   UNL     1       6.668  -0.259  -0.631  0.00  0.00    +0.068 C 
ATOM     21  C   UNL     1       7.230  -1.466  -1.371  0.00  0.00    +0.027 C 
ATOM     22  C   UNL     1       7.684   0.310   0.350  0.00  0.00    +0.027 C 
ENDBRANCH   7  17
ENDBRANCH  13   5
ENDBRANCH  11  13
TORSDOF 7
