MODEL 1
REMARK VINA RESULT:      -7.2      0.000      0.000
REMARK  Name = 28960506
REMARK  8 active torsions:
REMARK  status: ('A' for Active; 'I' for Inactive)
REMARK    1  A    between atoms: O_6  and  C_13
REMARK    2  A    between atoms: O_8  and  C_30
REMARK    3  A    between atoms: O_8  and  C_31
REMARK    4  A    between atoms: N_9  and  C_12
REMARK    5  A    between atoms: N_10  and  C_14
REMARK    6  A    between atoms: N_10  and  C_23
REMARK    7  A    between atoms: C_22  and  C_24
REMARK    8  A    between atoms: C_23  and  C_25
REMARK                            x       y       z     vdW  Elec       q    Type
REMARK                         _______ _______ _______ _____ _____    ______ ____
ROOT
ATOM      4  O   UNL     1      11.715  11.301  25.182  0.00  0.00    -0.343 OA
ATOM      5  O   UNL     1      10.159  12.981  24.820  0.00  0.00    -0.347 OA
ATOM     12  C   UNL     1      11.127  11.862  22.908  0.00  0.00    +0.143 C 
ATOM     13  C   UNL     1      12.271  12.901  22.854  0.00  0.00    +0.156 C 
ATOM     14  C   UNL     1      13.166  12.915  24.117  0.00  0.00    +0.116 C 
ATOM     15  C   UNL     1      10.615  11.702  24.352  0.00  0.00    +0.270 C 
ATOM     16  C   UNL     1      12.386  12.546  25.400  0.00  0.00    +0.166 C 
ATOM     17  C   UNL     1      11.200  13.449  25.689  0.00  0.00    +0.196 C 
ENDROOT
BRANCH  12   9
ATOM      9  N   UNL     1      11.576  10.569  22.390  0.00  0.00    -0.293 NA
ATOM     18  C   UNL     1      10.602   9.518  22.718  0.00  0.00    +0.085 C 
ATOM     19  C   UNL     1      11.803  10.648  20.940  0.00  0.00    +0.085 C 
ATOM     20  C   UNL     1      11.083   8.151  22.231  0.00  0.00    +0.028 C 
ATOM     21  C   UNL     1      12.325   9.319  20.391  0.00  0.00    +0.028 C 
ATOM     22  C   UNL     1      11.378   8.169  20.733  0.00  0.00    +0.077 C 
BRANCH  22  24
ATOM      7  O   UNL     1      12.292   6.640  19.141  0.00  0.00    -0.276 OA
ATOM     11  N   UNL     1      12.167   5.977  21.341  0.00  0.00    -0.329 N 
ATOM     24  C   UNL     1      11.994   6.871  20.310  0.00  0.00    +0.214 C 
ATOM     34  H   UNL     1      11.901   6.189  22.297  0.00  0.00    +0.145 HD
ATOM     35  H   UNL     1      12.572   5.062  21.175  0.00  0.00    +0.145 HD
ENDBRANCH  22  24
ENDBRANCH  12   9
BRANCH  13   6
ATOM      6  O   UNL     1      11.673  14.197  22.704  0.00  0.00    -0.388 OA
ATOM     33  H   UNL     1      11.441  14.518  23.592  0.00  0.00    +0.210 HD
ENDBRANCH  13   6
BRANCH  14  10
ATOM     10  N   UNL     1      14.279  11.970  23.971  0.00  0.00    -0.305 NA
ATOM     32  H   UNL     1      13.919  11.016  23.984  0.00  0.00    +0.123 HD
BRANCH  10  23
ATOM     23  C   UNL     1      15.000  12.219  22.734  0.00  0.00    +0.116 C 
BRANCH  23  25
ATOM     25  C   UNL     1      15.504  10.944  22.113  0.00  0.00    -0.033 A 
ATOM     26  C   UNL     1      15.016   9.713  22.551  0.00  0.00    +0.008 A 
ATOM     27  C   UNL     1      16.459  10.995  21.097  0.00  0.00    +0.008 A 
ATOM     28  C   UNL     1      15.484   8.533  21.975  0.00  0.00    +0.046 A 
ATOM     29  C   UNL     1      16.926   9.814  20.521  0.00  0.00    +0.046 A 
ATOM     30  C   UNL     1      16.439   8.583  20.960  0.00  0.00    +0.130 A 
BRANCH  30   8
ATOM      8  O   UNL     1      16.894   7.431  20.396  0.00  0.00    -0.406 OA
BRANCH   8  31
ATOM      1  F   UNL     1      15.211   5.939  20.201  0.00  0.00    -0.133 F 
ATOM      2  F   UNL     1      15.279   7.602  18.786  0.00  0.00    -0.133 F 
ATOM      3  F   UNL     1      16.752   5.958  18.651  0.00  0.00    -0.133 F 
ATOM     31  C   UNL     1      16.040   6.738  19.492  0.00  0.00    +0.575 C 
ENDBRANCH   8  31
ENDBRANCH  30   8
ENDBRANCH  23  25
ENDBRANCH  10  23
ENDBRANCH  14  10
TORSDOF 8
ENDMDL
MODEL 2
REMARK VINA RESULT:      -6.5      1.983      2.383
REMARK  Name = 28960506
REMARK  8 active torsions:
REMARK  status: ('A' for Active; 'I' for Inactive)
REMARK    1  A    between atoms: O_6  and  C_13
REMARK    2  A    between atoms: O_8  and  C_30
REMARK    3  A    between atoms: O_8  and  C_31
REMARK    4  A    between atoms: N_9  and  C_12
REMARK    5  A    between atoms: N_10  and  C_14
REMARK    6  A    between atoms: N_10  and  C_23
REMARK    7  A    between atoms: C_22  and  C_24
REMARK    8  A    between atoms: C_23  and  C_25
REMARK                            x       y       z     vdW  Elec       q    Type
REMARK                         _______ _______ _______ _____ _____    ______ ____
ROOT
ATOM      4  O   UNL     1      12.447  11.486  25.086  0.00  0.00    -0.343 OA
ATOM      5  O   UNL     1      10.438  12.592  25.429  0.00  0.00    -0.347 OA
ATOM     12  C   UNL     1      10.826  11.522  23.296  0.00  0.00    +0.143 C 
ATOM     13  C   UNL     1      11.452  12.819  22.735  0.00  0.00    +0.156 C 
ATOM     14  C   UNL     1      12.735  13.268  23.477  0.00  0.00    +0.116 C 
ATOM     15  C   UNL     1      11.038  11.437  24.819  0.00  0.00    +0.270 C 
ATOM     16  C   UNL     1      12.718  12.887  24.975  0.00  0.00    +0.166 C 
ATOM     17  C   UNL     1      11.540  13.455  25.748  0.00  0.00    +0.196 C 
ENDROOT
BRANCH  12   9
ATOM      9  N   UNL     1      11.402  10.344  22.645  0.00  0.00    -0.293 NA
ATOM     18  C   UNL     1      10.544   9.170  22.854  0.00  0.00    +0.085 C 
ATOM     19  C   UNL     1      11.612  10.599  21.213  0.00  0.00    +0.085 C 
ATOM     20  C   UNL     1      11.160   7.919  22.227  0.00  0.00    +0.028 C 
ATOM     21  C   UNL     1      12.264   9.398  20.528  0.00  0.00    +0.028 C 
ATOM     22  C   UNL     1      11.443   8.126  20.741  0.00  0.00    +0.077 C 
BRANCH  22  24
ATOM      7  O   UNL     1      12.042   6.577  19.024  0.00  0.00    -0.276 OA
ATOM     11  N   UNL     1      13.013   6.336  21.096  0.00  0.00    -0.329 N 
ATOM     24  C   UNL     1      12.186   6.951  20.185  0.00  0.00    +0.214 C 
ATOM     34  H   UNL     1      13.105   6.659  22.054  0.00  0.00    +0.145 HD
ATOM     35  H   UNL     1      13.564   5.526  20.835  0.00  0.00    +0.145 HD
ENDBRANCH  22  24
ENDBRANCH  12   9
BRANCH  13   6
ATOM      6  O   UNL     1      10.471  13.860  22.851  0.00  0.00    -0.388 OA
ATOM     33  H   UNL     1       9.597  13.456  22.716  0.00  0.00    +0.210 HD
ENDBRANCH  13   6
BRANCH  14  10
ATOM     10  N   UNL     1      13.923  12.661  22.866  0.00  0.00    -0.305 NA
ATOM     32  H   UNL     1      13.711  11.703  22.586  0.00  0.00    +0.123 HD
BRANCH  10  23
ATOM     23  C   UNL     1      14.356  13.436  21.715  0.00  0.00    +0.116 C 
BRANCH  23  25
ATOM     25  C   UNL     1      14.441  12.593  20.471  0.00  0.00    -0.033 A 
ATOM     26  C   UNL     1      15.351  11.538  20.401  0.00  0.00    +0.008 A 
ATOM     27  C   UNL     1      13.606  12.867  19.387  0.00  0.00    +0.008 A 
ATOM     28  C   UNL     1      15.427  10.759  19.249  0.00  0.00    +0.046 A 
ATOM     29  C   UNL     1      13.683  12.086  18.234  0.00  0.00    +0.046 A 
ATOM     30  C   UNL     1      14.594  11.032  18.165  0.00  0.00    +0.130 A 
BRANCH  30   8
ATOM      8  O   UNL     1      14.668  10.270  17.040  0.00  0.00    -0.406 OA
BRANCH   8  31
ATOM      1  F   UNL     1      14.392   8.235  17.977  0.00  0.00    -0.133 F 
ATOM      2  F   UNL     1      12.620   9.269  17.225  0.00  0.00    -0.133 F 
ATOM      3  F   UNL     1      14.099   8.420  15.819  0.00  0.00    -0.133 F 
ATOM     31  C   UNL     1      13.934   9.051  17.001  0.00  0.00    +0.575 C 
ENDBRANCH   8  31
ENDBRANCH  30   8
ENDBRANCH  23  25
ENDBRANCH  10  23
ENDBRANCH  14  10
TORSDOF 8
ENDMDL
MODEL 3
REMARK VINA RESULT:      -6.5      3.226      6.106
REMARK  Name = 28960506
REMARK  8 active torsions:
REMARK  status: ('A' for Active; 'I' for Inactive)
REMARK    1  A    between atoms: O_6  and  C_13
REMARK    2  A    between atoms: O_8  and  C_30
REMARK    3  A    between atoms: O_8  and  C_31
REMARK    4  A    between atoms: N_9  and  C_12
REMARK    5  A    between atoms: N_10  and  C_14
REMARK    6  A    between atoms: N_10  and  C_23
REMARK    7  A    between atoms: C_22  and  C_24
REMARK    8  A    between atoms: C_23  and  C_25
REMARK                            x       y       z     vdW  Elec       q    Type
REMARK                         _______ _______ _______ _____ _____    ______ ____
ROOT
ATOM      4  O   UNL     1      14.361   9.743  18.523  0.00  0.00    -0.343 OA
ATOM      5  O   UNL     1      12.889   9.556  16.741  0.00  0.00    -0.347 OA
ATOM     12  C   UNL     1      12.075   9.105  18.973  0.00  0.00    +0.143 C 
ATOM     13  C   UNL     1      12.449   7.612  18.830  0.00  0.00    +0.156 C 
ATOM     14  C   UNL     1      13.963   7.360  18.630  0.00  0.00    +0.116 C 
ATOM     15  C   UNL     1      13.007   9.977  18.110  0.00  0.00    +0.270 C 
ATOM     16  C   UNL     1      14.659   8.508  17.862  0.00  0.00    +0.166 C 
ATOM     17  C   UNL     1      14.072   8.784  16.489  0.00  0.00    +0.196 C 
ENDROOT
BRANCH  12   9
ATOM      9  N   UNL     1      12.150   9.526  20.373  0.00  0.00    -0.293 NA
ATOM     18  C   UNL     1      12.197  10.992  20.466  0.00  0.00    +0.085 C 
ATOM     19  C   UNL     1      11.018   8.982  21.134  0.00  0.00    +0.085 C 
ATOM     20  C   UNL     1      12.331  11.447  21.920  0.00  0.00    +0.028 C 
ATOM     21  C   UNL     1      11.111   9.367  22.611  0.00  0.00    +0.028 C 
ATOM     22  C   UNL     1      11.205  10.883  22.783  0.00  0.00    +0.077 C 
BRANCH  22  24
ATOM      7  O   UNL     1      10.534  11.562  24.973  0.00  0.00    -0.276 OA
ATOM     11  N   UNL     1      12.759  11.100  24.609  0.00  0.00    -0.329 N 
ATOM     24  C   UNL     1      11.443  11.211  24.224  0.00  0.00    +0.214 C 
ATOM     34  H   UNL     1      13.493  10.819  23.967  0.00  0.00    +0.145 HD
ATOM     35  H   UNL     1      13.041  11.301  25.562  0.00  0.00    +0.145 HD
ENDBRANCH  22  24
ENDBRANCH  12   9
BRANCH  13   6
ATOM      6  O   UNL     1      11.747   7.096  17.688  0.00  0.00    -0.388 OA
ATOM     33  H   UNL     1      11.576   6.153  17.851  0.00  0.00    +0.210 HD
ENDBRANCH  13   6
BRANCH  14  10
ATOM     10  N   UNL     1      14.635   7.203  19.924  0.00  0.00    -0.305 NA
ATOM     32  H   UNL     1      13.978   6.826  20.607  0.00  0.00    +0.123 HD
BRANCH  10  23
ATOM     23  C   UNL     1      15.787   6.325  19.797  0.00  0.00    +0.116 C 
BRANCH  23  25
ATOM     25  C   UNL     1      17.024   6.933  20.402  0.00  0.00    -0.033 A 
ATOM     26  C   UNL     1      18.240   6.252  20.336  0.00  0.00    +0.008 A 
ATOM     27  C   UNL     1      16.955   8.179  21.025  0.00  0.00    +0.008 A 
ATOM     28  C   UNL     1      19.386   6.816  20.896  0.00  0.00    +0.046 A 
ATOM     29  C   UNL     1      18.102   8.742  21.585  0.00  0.00    +0.046 A 
ATOM     30  C   UNL     1      19.317   8.061  21.520  0.00  0.00    +0.130 A 
BRANCH  30   8
ATOM      8  O   UNL     1      20.436   8.611  22.065  0.00  0.00    -0.406 OA
BRANCH   8  31
ATOM      1  F   UNL     1      21.909   8.520  23.773  0.00  0.00    -0.133 F 
ATOM      2  F   UNL     1      20.074   9.672  24.059  0.00  0.00    -0.133 F 
ATOM      3  F   UNL     1      20.009   7.463  23.998  0.00  0.00    -0.133 F 
ATOM     31  C   UNL     1      20.590   8.566  23.480  0.00  0.00    +0.575 C 
ENDBRANCH   8  31
ENDBRANCH  30   8
ENDBRANCH  23  25
ENDBRANCH  10  23
ENDBRANCH  14  10
TORSDOF 8
ENDMDL
MODEL 4
REMARK VINA RESULT:      -6.1     25.740     27.952
REMARK  Name = 28960506
REMARK  8 active torsions:
REMARK  status: ('A' for Active; 'I' for Inactive)
REMARK    1  A    between atoms: O_6  and  C_13
REMARK    2  A    between atoms: O_8  and  C_30
REMARK    3  A    between atoms: O_8  and  C_31
REMARK    4  A    between atoms: N_9  and  C_12
REMARK    5  A    between atoms: N_10  and  C_14
REMARK    6  A    between atoms: N_10  and  C_23
REMARK    7  A    between atoms: C_22  and  C_24
REMARK    8  A    between atoms: C_23  and  C_25
REMARK                            x       y       z     vdW  Elec       q    Type
REMARK                         _______ _______ _______ _____ _____    ______ ____
ROOT
ATOM      4  O   UNL     1     -10.350   8.564  17.345  0.00  0.00    -0.343 OA
ATOM      5  O   UNL     1     -10.107  10.813  17.854  0.00  0.00    -0.347 OA
ATOM     12  C   UNL     1     -11.954   9.594  18.827  0.00  0.00    +0.143 C 
ATOM     13  C   UNL     1     -12.855   9.956  17.624  0.00  0.00    +0.156 C 
ATOM     14  C   UNL     1     -12.350   9.396  16.271  0.00  0.00    +0.116 C 
ATOM     15  C   UNL     1     -10.477   9.535  18.394  0.00  0.00    +0.270 C 
ATOM     16  C   UNL     1     -10.808   9.302  16.207  0.00  0.00    +0.166 C 
ATOM     17  C   UNL     1     -10.094  10.623  16.431  0.00  0.00    +0.196 C 
ENDROOT
BRANCH  12   9
ATOM      9  N   UNL     1     -12.357   8.312  19.409  0.00  0.00    -0.293 NA
ATOM     18  C   UNL     1     -11.418   7.910  20.465  0.00  0.00    +0.085 C 
ATOM     19  C   UNL     1     -13.731   8.391  19.923  0.00  0.00    +0.085 C 
ATOM     20  C   UNL     1     -11.794   6.546  21.045  0.00  0.00    +0.028 C 
ATOM     21  C   UNL     1     -14.187   7.044  20.485  0.00  0.00    +0.028 C 
ATOM     22  C   UNL     1     -13.229   6.541  21.565  0.00  0.00    +0.077 C 
BRANCH  22  24
ATOM      7  O   UNL     1     -14.725   4.684  21.709  0.00  0.00    -0.276 OA
ATOM     11  N   UNL     1     -12.659   4.500  22.706  0.00  0.00    -0.329 N 
ATOM     24  C   UNL     1     -13.625   5.159  21.983  0.00  0.00    +0.214 C 
ATOM     34  H   UNL     1     -11.762   4.921  22.929  0.00  0.00    +0.145 HD
ATOM     35  H   UNL     1     -12.816   3.558  23.047  0.00  0.00    +0.145 HD
ENDBRANCH  22  24
ENDBRANCH  12   9
BRANCH  13   6
ATOM      6  O   UNL     1     -12.904  11.388  17.534  0.00  0.00    -0.388 OA
ATOM     33  H   UNL     1     -13.070  11.618  16.604  0.00  0.00    +0.210 HD
ENDBRANCH  13   6
BRANCH  14  10
ATOM     10  N   UNL     1     -12.899   8.057  16.030  0.00  0.00    -0.305 NA
ATOM     32  H   UNL     1     -12.707   7.460  16.835  0.00  0.00    +0.123 HD
BRANCH  10  23
ATOM     23  C   UNL     1     -14.331   8.130  15.789  0.00  0.00    +0.116 C 
BRANCH  23  25
ATOM     25  C   UNL     1     -14.741   7.307  14.597  0.00  0.00    -0.033 A 
ATOM     26  C   UNL     1     -15.887   6.514  14.657  0.00  0.00    +0.008 A 
ATOM     27  C   UNL     1     -13.975   7.340  13.432  0.00  0.00    +0.008 A 
ATOM     28  C   UNL     1     -16.266   5.753  13.552  0.00  0.00    +0.046 A 
ATOM     29  C   UNL     1     -14.355   6.578  12.327  0.00  0.00    +0.046 A 
ATOM     30  C   UNL     1     -15.501   5.784  12.387  0.00  0.00    +0.130 A 
BRANCH  30   8
ATOM      8  O   UNL     1     -15.872   5.042  11.309  0.00  0.00    -0.406 OA
BRANCH   8  31
ATOM      1  F   UNL     1     -15.144   3.422   9.916  0.00  0.00    -0.133 F 
ATOM      2  F   UNL     1     -14.244   3.550  11.903  0.00  0.00    -0.133 F 
ATOM      3  F   UNL     1     -16.318   2.825  11.660  0.00  0.00    -0.133 F 
ATOM     31  C   UNL     1     -15.395   3.704  11.214  0.00  0.00    +0.575 C 
ENDBRANCH   8  31
ENDBRANCH  30   8
ENDBRANCH  23  25
ENDBRANCH  10  23
ENDBRANCH  14  10
TORSDOF 8
ENDMDL
MODEL 5
REMARK VINA RESULT:      -6.0     27.196     29.524
REMARK  Name = 28960506
REMARK  8 active torsions:
REMARK  status: ('A' for Active; 'I' for Inactive)
REMARK    1  A    between atoms: O_6  and  C_13
REMARK    2  A    between atoms: O_8  and  C_30
REMARK    3  A    between atoms: O_8  and  C_31
REMARK    4  A    between atoms: N_9  and  C_12
REMARK    5  A    between atoms: N_10  and  C_14
REMARK    6  A    between atoms: N_10  and  C_23
REMARK    7  A    between atoms: C_22  and  C_24
REMARK    8  A    between atoms: C_23  and  C_25
REMARK                            x       y       z     vdW  Elec       q    Type
REMARK                         _______ _______ _______ _____ _____    ______ ____
ROOT
ATOM      4  O   UNL     1      -9.421  -8.137  17.296  0.00  0.00    -0.343 OA
ATOM      5  O   UNL     1     -11.600  -8.843  17.656  0.00  0.00    -0.347 OA
ATOM     12  C   UNL     1      -9.902 -10.501  17.193  0.00  0.00    +0.143 C 
ATOM     13  C   UNL     1     -10.180 -10.393  15.676  0.00  0.00    +0.156 C 
ATOM     14  C   UNL     1      -9.894  -8.991  15.084  0.00  0.00    +0.116 C 
ATOM     15  C   UNL     1     -10.220  -9.168  17.894  0.00  0.00    +0.270 C 
ATOM     16  C   UNL     1     -10.154  -7.854  16.100  0.00  0.00    +0.166 C 
ATOM     17  C   UNL     1     -11.570  -7.822  16.648  0.00  0.00    +0.196 C 
ENDROOT
BRANCH  12   9
ATOM      9  N   UNL     1      -8.508 -10.876  17.439  0.00  0.00    -0.293 NA
ATOM     18  C   UNL     1      -8.109 -10.501  18.802  0.00  0.00    +0.085 C 
ATOM     19  C   UNL     1      -8.314 -12.313  17.205  0.00  0.00    +0.085 C 
ATOM     20  C   UNL     1      -6.639 -10.836  19.057  0.00  0.00    +0.028 C 
ATOM     21  C   UNL     1      -6.851 -12.711  17.405  0.00  0.00    +0.028 C 
ATOM     22  C   UNL     1      -6.353 -12.312  18.794  0.00  0.00    +0.077 C 
BRANCH  22  24
ATOM      7  O   UNL     1      -4.127 -11.846  19.525  0.00  0.00    -0.276 OA
ATOM     11  N   UNL     1      -4.477 -13.704  18.213  0.00  0.00    -0.329 N 
ATOM     24  C   UNL     1      -4.884 -12.583  18.897  0.00  0.00    +0.214 C 
ATOM     34  H   UNL     1      -5.122 -14.289  17.691  0.00  0.00    +0.145 HD
ATOM     35  H   UNL     1      -3.502 -13.985  18.207  0.00  0.00    +0.145 HD
ENDBRANCH  22  24
ENDBRANCH  12   9
BRANCH  13   6
ATOM      6  O   UNL     1     -11.566 -10.702  15.466  0.00  0.00    -0.388 OA
ATOM     33  H   UNL     1     -11.809 -11.402  16.095  0.00  0.00    +0.210 HD
ENDBRANCH  13   6
BRANCH  14  10
ATOM     10  N   UNL     1      -8.500  -8.894  14.638  0.00  0.00    -0.305 NA
ATOM     32  H   UNL     1      -7.911  -8.610  15.420  0.00  0.00    +0.123 HD
BRANCH  10  23
ATOM     23  C   UNL     1      -8.047 -10.168  14.104  0.00  0.00    +0.116 C 
BRANCH  23  25
ATOM     25  C   UNL     1      -6.656 -10.508  14.570  0.00  0.00    -0.033 A 
ATOM     26  C   UNL     1      -5.980 -11.595  14.016  0.00  0.00    +0.008 A 
ATOM     27  C   UNL     1      -6.044  -9.734  15.556  0.00  0.00    +0.008 A 
ATOM     28  C   UNL     1      -4.693 -11.909  14.448  0.00  0.00    +0.046 A 
ATOM     29  C   UNL     1      -4.755 -10.049  15.988  0.00  0.00    +0.046 A 
ATOM     30  C   UNL     1      -4.080 -11.136  15.434  0.00  0.00    +0.130 A 
BRANCH  30   8
ATOM      8  O   UNL     1      -2.822 -11.442  15.855  0.00  0.00    -0.406 OA
BRANCH   8  31
ATOM      1  F   UNL     1      -1.045 -11.945  14.557  0.00  0.00    -0.133 F 
ATOM      2  F   UNL     1      -2.139 -10.102  14.132  0.00  0.00    -0.133 F 
ATOM      3  F   UNL     1      -0.867 -10.257  15.934  0.00  0.00    -0.133 F 
ATOM     31  C   UNL     1      -1.719 -10.918  15.123  0.00  0.00    +0.575 C 
ENDBRANCH   8  31
ENDBRANCH  30   8
ENDBRANCH  23  25
ENDBRANCH  10  23
ENDBRANCH  14  10
TORSDOF 8
ENDMDL
MODEL 6
REMARK VINA RESULT:      -6.0     16.518     18.774
REMARK  Name = 28960506
REMARK  8 active torsions:
REMARK  status: ('A' for Active; 'I' for Inactive)
REMARK    1  A    between atoms: O_6  and  C_13
REMARK    2  A    between atoms: O_8  and  C_30
REMARK    3  A    between atoms: O_8  and  C_31
REMARK    4  A    between atoms: N_9  and  C_12
REMARK    5  A    between atoms: N_10  and  C_14
REMARK    6  A    between atoms: N_10  and  C_23
REMARK    7  A    between atoms: C_22  and  C_24
REMARK    8  A    between atoms: C_23  and  C_25
REMARK                            x       y       z     vdW  Elec       q    Type
REMARK                         _______ _______ _______ _____ _____    ______ ____
ROOT
ATOM      4  O   UNL     1       9.672  10.784   4.693  0.00  0.00    -0.343 OA
ATOM      5  O   UNL     1       7.611  11.802   4.999  0.00  0.00    -0.347 OA
ATOM     12  C   UNL     1       7.815   9.435   5.445  0.00  0.00    +0.143 C 
ATOM     13  C   UNL     1       7.443   9.106   3.981  0.00  0.00    +0.156 C 
ATOM     14  C   UNL     1       8.447   9.657   2.939  0.00  0.00    +0.116 C 
ATOM     15  C   UNL     1       8.505  10.810   5.528  0.00  0.00    +0.270 C 
ATOM     16  C   UNL     1       9.105  10.981   3.393  0.00  0.00    +0.166 C 
ATOM     17  C   UNL     1       8.119  12.097   3.690  0.00  0.00    +0.196 C 
ENDROOT
BRANCH  12   9
ATOM      9  N   UNL     1       8.690   8.402   6.002  0.00  0.00    -0.293 NA
ATOM     18  C   UNL     1       8.936   8.652   7.429  0.00  0.00    +0.085 C 
ATOM     19  C   UNL     1       8.111   7.069   5.790  0.00  0.00    +0.085 C 
ATOM     20  C   UNL     1       9.893   7.612   8.013  0.00  0.00    +0.028 C 
ATOM     21  C   UNL     1       9.039   5.973   6.317  0.00  0.00    +0.028 C 
ATOM     22  C   UNL     1       9.372   6.194   7.793  0.00  0.00    +0.077 C 
BRANCH  22  24
ATOM      7  O   UNL     1      10.089   4.174   8.847  0.00  0.00    -0.276 OA
ATOM     11  N   UNL     1      11.684   5.533   7.896  0.00  0.00    -0.329 N 
ATOM     24  C   UNL     1      10.395   5.192   8.230  0.00  0.00    +0.214 C 
ATOM     34  H   UNL     1      11.911   6.387   7.396  0.00  0.00    +0.145 HD
ATOM     35  H   UNL     1      12.463   4.932   8.144  0.00  0.00    +0.145 HD
ENDBRANCH  22  24
ENDBRANCH  12   9
BRANCH  13   6
ATOM      6  O   UNL     1       6.154   9.682   3.721  0.00  0.00    -0.388 OA
ATOM     33  H   UNL     1       6.296  10.509   3.230  0.00  0.00    +0.210 HD
ENDBRANCH  13   6
BRANCH  14  10
ATOM     10  N   UNL     1       9.512   8.682   2.683  0.00  0.00    -0.305 NA
ATOM     32  H   UNL     1       9.915   8.376   3.569  0.00  0.00    +0.123 HD
BRANCH  10  23
ATOM     23  C   UNL     1       8.992   7.541   1.947  0.00  0.00    +0.116 C 
BRANCH  23  25
ATOM     25  C   UNL     1       9.988   6.415   1.882  0.00  0.00    -0.033 A 
ATOM     26  C   UNL     1      10.558   5.916   3.054  0.00  0.00    +0.008 A 
ATOM     27  C   UNL     1      10.340   5.868   0.648  0.00  0.00    +0.008 A 
ATOM     28  C   UNL     1      11.480   4.873   2.992  0.00  0.00    +0.046 A 
ATOM     29  C   UNL     1      11.263   4.823   0.587  0.00  0.00    +0.046 A 
ATOM     30  C   UNL     1      11.833   4.326   1.759  0.00  0.00    +0.130 A 
BRANCH  30   8
ATOM      8  O   UNL     1      12.732   3.306   1.699  0.00  0.00    -0.406 OA
BRANCH   8  31
ATOM      1  F   UNL     1      14.287   4.937   1.565  0.00  0.00    -0.133 F 
ATOM      2  F   UNL     1      14.942   2.938   2.157  0.00  0.00    -0.133 F 
ATOM      3  F   UNL     1      14.338   3.344   0.070  0.00  0.00    -0.133 F 
ATOM     31  C   UNL     1      14.082   3.615   1.367  0.00  0.00    +0.575 C 
ENDBRANCH   8  31
ENDBRANCH  30   8
ENDBRANCH  23  25
ENDBRANCH  10  23
ENDBRANCH  14  10
TORSDOF 8
ENDMDL
MODEL 7
REMARK VINA RESULT:      -5.9     26.999     30.045
REMARK  Name = 28960506
REMARK  8 active torsions:
REMARK  status: ('A' for Active; 'I' for Inactive)
REMARK    1  A    between atoms: O_6  and  C_13
REMARK    2  A    between atoms: O_8  and  C_30
REMARK    3  A    between atoms: O_8  and  C_31
REMARK    4  A    between atoms: N_9  and  C_12
REMARK    5  A    between atoms: N_10  and  C_14
REMARK    6  A    between atoms: N_10  and  C_23
REMARK    7  A    between atoms: C_22  and  C_24
REMARK    8  A    between atoms: C_23  and  C_25
REMARK                            x       y       z     vdW  Elec       q    Type
REMARK                         _______ _______ _______ _____ _____    ______ ____
ROOT
ATOM      4  O   UNL     1      -8.866 -12.441  17.429  0.00  0.00    -0.343 OA
ATOM      5  O   UNL     1     -10.406 -13.748  18.568  0.00  0.00    -0.347 OA
ATOM     12  C   UNL     1     -10.839 -11.381  18.332  0.00  0.00    +0.143 C 
ATOM     13  C   UNL     1     -10.096 -11.091  19.655  0.00  0.00    +0.156 C 
ATOM     14  C   UNL     1      -8.597 -11.481  19.632  0.00  0.00    +0.116 C 
ATOM     15  C   UNL     1     -10.268 -12.643  17.659  0.00  0.00    +0.270 C 
ATOM     16  C   UNL     1      -8.316 -12.702  18.725  0.00  0.00    +0.166 C 
ATOM     17  C   UNL     1      -9.091 -13.951  19.105  0.00  0.00    +0.196 C 
ENDROOT
BRANCH  12   9
ATOM      9  N   UNL     1     -10.739 -10.240  17.420  0.00  0.00    -0.293 NA
ATOM     18  C   UNL     1     -11.734 -10.352  16.345  0.00  0.00    +0.085 C 
ATOM     19  C   UNL     1     -10.895  -8.978  18.157  0.00  0.00    +0.085 C 
ATOM     20  C   UNL     1     -11.605  -9.196  15.353  0.00  0.00    +0.028 C 
ATOM     21  C   UNL     1     -10.738  -7.774  17.228  0.00  0.00    +0.028 C 
ATOM     22  C   UNL     1     -11.718  -7.846  16.057  0.00  0.00    +0.077 C 
BRANCH  22  24
ATOM      7  O   UNL     1     -11.980  -6.666  13.997  0.00  0.00    -0.276 OA
ATOM     11  N   UNL     1     -10.504  -5.830  15.553  0.00  0.00    -0.329 N 
ATOM     24  C   UNL     1     -11.434  -6.734  15.096  0.00  0.00    +0.214 C 
ATOM     34  H   UNL     1     -10.059  -5.917  16.461  0.00  0.00    +0.145 HD
ATOM     35  H   UNL     1     -10.228  -5.035  14.986  0.00  0.00    +0.145 HD
ENDBRANCH  22  24
ENDBRANCH  12   9
BRANCH  13   6
ATOM      6  O   UNL     1     -10.745 -11.843  20.692  0.00  0.00    -0.388 OA
ATOM     33  H   UNL     1     -11.496 -11.314  21.011  0.00  0.00    +0.210 HD
ENDBRANCH  13   6
BRANCH  14  10
ATOM     10  N   UNL     1      -7.780 -10.360  19.154  0.00  0.00    -0.305 NA
ATOM     32  H   UNL     1      -8.114  -9.491  19.572  0.00  0.00    +0.123 HD
BRANCH  10  23
ATOM     23  C   UNL     1      -6.381 -10.571  19.485  0.00  0.00    +0.116 C 
BRANCH  23  25
ATOM     25  C   UNL     1      -5.521 -10.661  18.253  0.00  0.00    -0.033 A 
ATOM     26  C   UNL     1      -5.866  -9.946  17.106  0.00  0.00    +0.008 A 
ATOM     27  C   UNL     1      -4.376 -11.457  18.260  0.00  0.00    +0.008 A 
ATOM     28  C   UNL     1      -5.069 -10.029  15.966  0.00  0.00    +0.046 A 
ATOM     29  C   UNL     1      -3.577 -11.540  17.119  0.00  0.00    +0.046 A 
ATOM     30  C   UNL     1      -3.924 -10.826  15.972  0.00  0.00    +0.130 A 
BRANCH  30   8
ATOM      8  O   UNL     1      -3.145 -10.906  14.859  0.00  0.00    -0.406 OA
BRANCH   8  31
ATOM      1  F   UNL     1      -1.662  -9.652  16.010  0.00  0.00    -0.133 F 
ATOM      2  F   UNL     1      -0.969 -11.542  15.160  0.00  0.00    -0.133 F 
ATOM      3  F   UNL     1      -1.405  -9.819  13.846  0.00  0.00    -0.133 F 
ATOM     31  C   UNL     1      -1.787 -10.488  14.954  0.00  0.00    +0.575 C 
ENDBRANCH   8  31
ENDBRANCH  30   8
ENDBRANCH  23  25
ENDBRANCH  10  23
ENDBRANCH  14  10
TORSDOF 8
ENDMDL
MODEL 8
REMARK VINA RESULT:      -5.9     27.389     29.725
REMARK  Name = 28960506
REMARK  8 active torsions:
REMARK  status: ('A' for Active; 'I' for Inactive)
REMARK    1  A    between atoms: O_6  and  C_13
REMARK    2  A    between atoms: O_8  and  C_30
REMARK    3  A    between atoms: O_8  and  C_31
REMARK    4  A    between atoms: N_9  and  C_12
REMARK    5  A    between atoms: N_10  and  C_14
REMARK    6  A    between atoms: N_10  and  C_23
REMARK    7  A    between atoms: C_22  and  C_24
REMARK    8  A    between atoms: C_23  and  C_25
REMARK                            x       y       z     vdW  Elec       q    Type
REMARK                         _______ _______ _______ _____ _____    ______ ____
ROOT
ATOM      4  O   UNL     1      -9.097 -13.506  17.854  0.00  0.00    -0.343 OA
ATOM      5  O   UNL     1     -10.632 -12.336  19.138  0.00  0.00    -0.347 OA
ATOM     12  C   UNL     1      -9.011 -11.093  17.844  0.00  0.00    +0.143 C 
ATOM     13  C   UNL     1      -8.021 -11.109  19.031  0.00  0.00    +0.156 C 
ATOM     14  C   UNL     1      -7.565 -12.529  19.449  0.00  0.00    +0.116 C 
ATOM     15  C   UNL     1      -9.923 -12.334  17.888  0.00  0.00    +0.270 C 
ATOM     16  C   UNL     1      -8.659 -13.596  19.214  0.00  0.00    +0.166 C 
ATOM     17  C   UNL     1      -9.964 -13.320  19.940  0.00  0.00    +0.196 C 
ENDROOT
BRANCH  12   9
ATOM      9  N   UNL     1      -8.293 -11.045  16.570  0.00  0.00    -0.293 NA
ATOM     18  C   UNL     1      -9.238 -11.072  15.445  0.00  0.00    +0.085 C 
ATOM     19  C   UNL     1      -7.431  -9.857  16.510  0.00  0.00    +0.085 C 
ATOM     20  C   UNL     1      -8.501 -11.079  14.106  0.00  0.00    +0.028 C 
ATOM     21  C   UNL     1      -6.631  -9.820  15.207  0.00  0.00    +0.028 C 
ATOM     22  C   UNL     1      -7.553  -9.888  13.989  0.00  0.00    +0.077 C 
BRANCH  22  24
ATOM      7  O   UNL     1      -6.424 -11.086  12.259  0.00  0.00    -0.276 OA
ATOM     11  N   UNL     1      -6.345  -8.787  12.222  0.00  0.00    -0.329 N 
ATOM     24  C   UNL     1      -6.731  -9.999  12.744  0.00  0.00    +0.214 C 
ATOM     34  H   UNL     1      -6.602  -7.903  12.650  0.00  0.00    +0.145 HD
ATOM     35  H   UNL     1      -5.781  -8.737  11.381  0.00  0.00    +0.145 HD
ENDBRANCH  22  24
ENDBRANCH  12   9
BRANCH  13   6
ATOM      6  O   UNL     1      -8.675 -10.493  20.151  0.00  0.00    -0.388 OA
ATOM     33  H   UNL     1      -8.317  -9.594  20.241  0.00  0.00    +0.210 HD
ENDBRANCH  13   6
BRANCH  14  10
ATOM     10  N   UNL     1      -6.369 -12.928  18.698  0.00  0.00    -0.305 NA
ATOM     32  H   UNL     1      -6.623 -13.116  17.728  0.00  0.00    +0.123 HD
BRANCH  10  23
ATOM     23  C   UNL     1      -5.358 -11.887  18.760  0.00  0.00    +0.116 C 
BRANCH  23  25
ATOM     25  C   UNL     1      -4.505 -11.859  17.519  0.00  0.00    -0.033 A 
ATOM     26  C   UNL     1      -4.767 -12.742  16.472  0.00  0.00    +0.008 A 
ATOM     27  C   UNL     1      -3.455 -10.946  17.417  0.00  0.00    +0.008 A 
ATOM     28  C   UNL     1      -3.977 -12.714  15.324  0.00  0.00    +0.046 A 
ATOM     29  C   UNL     1      -2.666 -10.919  16.268  0.00  0.00    +0.046 A 
ATOM     30  C   UNL     1      -2.926 -11.803  15.221  0.00  0.00    +0.130 A 
BRANCH  30   8
ATOM      8  O   UNL     1      -2.156 -11.775  14.099  0.00  0.00    -0.406 OA
BRANCH   8  31
ATOM      1  F   UNL     1      -1.836 -10.967  12.016  0.00  0.00    -0.133 F 
ATOM      2  F   UNL     1      -3.479 -10.142  13.197  0.00  0.00    -0.133 F 
ATOM      3  F   UNL     1      -1.382  -9.658  13.706  0.00  0.00    -0.133 F 
ATOM     31  C   UNL     1      -2.218 -10.623  13.266  0.00  0.00    +0.575 C 
ENDBRANCH   8  31
ENDBRANCH  30   8
ENDBRANCH  23  25
ENDBRANCH  10  23
ENDBRANCH  14  10
TORSDOF 8
ENDMDL
MODEL 9
REMARK VINA RESULT:      -5.8     27.438     30.257
REMARK  Name = 28960506
REMARK  8 active torsions:
REMARK  status: ('A' for Active; 'I' for Inactive)
REMARK    1  A    between atoms: O_6  and  C_13
REMARK    2  A    between atoms: O_8  and  C_30
REMARK    3  A    between atoms: O_8  and  C_31
REMARK    4  A    between atoms: N_9  and  C_12
REMARK    5  A    between atoms: N_10  and  C_14
REMARK    6  A    between atoms: N_10  and  C_23
REMARK    7  A    between atoms: C_22  and  C_24
REMARK    8  A    between atoms: C_23  and  C_25
REMARK                            x       y       z     vdW  Elec       q    Type
REMARK                         _______ _______ _______ _____ _____    ______ ____
ROOT
ATOM      4  O   UNL     1     -10.757 -13.114  18.258  0.00  0.00    -0.343 OA
ATOM      5  O   UNL     1     -12.213 -11.816  19.512  0.00  0.00    -0.347 OA
ATOM     12  C   UNL     1     -10.385 -10.730  18.361  0.00  0.00    +0.143 C 
ATOM     13  C   UNL     1      -9.473 -10.911  19.596  0.00  0.00    +0.156 C 
ATOM     14  C   UNL     1      -9.213 -12.391  19.973  0.00  0.00    +0.116 C 
ATOM     15  C   UNL     1     -11.439 -11.852  18.302  0.00  0.00    +0.270 C 
ATOM     16  C   UNL     1     -10.411 -13.308  19.634  0.00  0.00    +0.166 C 
ATOM     17  C   UNL     1     -11.713 -12.904  20.303  0.00  0.00    +0.196 C 
ENDROOT
BRANCH  12   9
ATOM      9  N   UNL     1      -9.594 -10.721  17.129  0.00  0.00    -0.293 NA
ATOM     18  C   UNL     1     -10.475 -10.678  15.954  0.00  0.00    +0.085 C 
ATOM     19  C   UNL     1      -8.655  -9.591  17.130  0.00  0.00    +0.085 C 
ATOM     20  C   UNL     1      -9.666 -10.723  14.658  0.00  0.00    +0.028 C 
ATOM     21  C   UNL     1      -7.783  -9.598  15.874  0.00  0.00    +0.028 C 
ATOM     22  C   UNL     1      -8.637  -9.596  14.607  0.00  0.00    +0.077 C 
BRANCH  22  24
ATOM      7  O   UNL     1      -8.204 -10.036  12.299  0.00  0.00    -0.276 OA
ATOM     11  N   UNL     1      -6.418  -9.571  13.674  0.00  0.00    -0.329 N 
ATOM     24  C   UNL     1      -7.755  -9.753  13.407  0.00  0.00    +0.214 C 
ATOM     34  H   UNL     1      -6.072  -9.350  14.602  0.00  0.00    +0.145 HD
ATOM     35  H   UNL     1      -5.725  -9.657  12.939  0.00  0.00    +0.145 HD
ENDBRANCH  22  24
ENDBRANCH  12   9
BRANCH  13   6
ATOM      6  O   UNL     1     -10.111 -10.264  20.707  0.00  0.00    -0.388 OA
ATOM     33  H   UNL     1     -10.767 -10.884  21.070  0.00  0.00    +0.210 HD
ENDBRANCH  13   6
BRANCH  14  10
ATOM     10  N   UNL     1      -8.032 -12.902  19.268  0.00  0.00    -0.305 NA
ATOM     32  H   UNL     1      -8.185 -12.846  18.261  0.00  0.00    +0.123 HD
BRANCH  10  23
ATOM     23  C   UNL     1      -6.849 -12.145  19.639  0.00  0.00    +0.116 C 
BRANCH  23  25
ATOM     25  C   UNL     1      -6.010 -11.792  18.440  0.00  0.00    -0.033 A 
ATOM     26  C   UNL     1      -5.952 -12.658  17.349  0.00  0.00    +0.008 A 
ATOM     27  C   UNL     1      -5.292 -10.596  18.421  0.00  0.00    +0.008 A 
ATOM     28  C   UNL     1      -5.175 -12.330  16.239  0.00  0.00    +0.046 A 
ATOM     29  C   UNL     1      -4.514 -10.268  17.310  0.00  0.00    +0.046 A 
ATOM     30  C   UNL     1      -4.456 -11.135  16.219  0.00  0.00    +0.130 A 
BRANCH  30   8
ATOM      8  O   UNL     1      -3.698 -10.815  15.135  0.00  0.00    -0.406 OA
BRANCH   8  31
ATOM      1  F   UNL     1      -1.971 -12.186  14.652  0.00  0.00    -0.133 F 
ATOM      2  F   UNL     1      -1.633 -10.030  14.545  0.00  0.00    -0.133 F 
ATOM      3  F   UNL     1      -1.876 -11.027  16.503  0.00  0.00    -0.133 F 
ATOM     31  C   UNL     1      -2.289 -11.000  15.218  0.00  0.00    +0.575 C 
ENDBRANCH   8  31
ENDBRANCH  30   8
ENDBRANCH  23  25
ENDBRANCH  10  23
ENDBRANCH  14  10
TORSDOF 8
ENDMDL
MODEL 10
REMARK VINA RESULT:      -5.8     27.048     29.595
REMARK  Name = 28960506
REMARK  8 active torsions:
REMARK  status: ('A' for Active; 'I' for Inactive)
REMARK    1  A    between atoms: O_6  and  C_13
REMARK    2  A    between atoms: O_8  and  C_30
REMARK    3  A    between atoms: O_8  and  C_31
REMARK    4  A    between atoms: N_9  and  C_12
REMARK    5  A    between atoms: N_10  and  C_14
REMARK    6  A    between atoms: N_10  and  C_23
REMARK    7  A    between atoms: C_22  and  C_24
REMARK    8  A    between atoms: C_23  and  C_25
REMARK                            x       y       z     vdW  Elec       q    Type
REMARK                         _______ _______ _______ _____ _____    ______ ____
ROOT
ATOM      4  O   UNL     1      -7.171 -10.412  18.389  0.00  0.00    -0.343 OA
ATOM      5  O   UNL     1      -7.235 -12.108  19.968  0.00  0.00    -0.347 OA
ATOM     12  C   UNL     1      -6.071 -12.501  17.885  0.00  0.00    +0.143 C 
ATOM     13  C   UNL     1      -7.366 -13.044  17.239  0.00  0.00    +0.156 C 
ATOM     14  C   UNL     1      -8.509 -12.004  17.155  0.00  0.00    +0.116 C 
ATOM     15  C   UNL     1      -6.407 -11.472  18.981  0.00  0.00    +0.270 C 
ATOM     16  C   UNL     1      -8.478 -10.993  18.325  0.00  0.00    +0.166 C 
ATOM     17  C   UNL     1      -8.561 -11.630  19.701  0.00  0.00    +0.196 C 
ENDROOT
BRANCH  12   9
ATOM      9  N   UNL     1      -5.204 -11.892  16.876  0.00  0.00    -0.293 NA
ATOM     18  C   UNL     1      -4.191 -11.039  17.514  0.00  0.00    +0.085 C 
ATOM     19  C   UNL     1      -4.576 -12.928  16.044  0.00  0.00    +0.085 C 
ATOM     20  C   UNL     1      -3.312 -10.352  16.469  0.00  0.00    +0.028 C 
ATOM     21  C   UNL     1      -3.710 -12.306  14.948  0.00  0.00    +0.028 C 
ATOM     22  C   UNL     1      -2.656 -11.370  15.540  0.00  0.00    +0.077 C 
BRANCH  22  24
ATOM      7  O   UNL     1      -1.937 -11.090  13.279  0.00  0.00    -0.276 OA
ATOM     11  N   UNL     1      -1.251  -9.545  14.841  0.00  0.00    -0.329 N 
ATOM     24  C   UNL     1      -1.929 -10.670  14.434  0.00  0.00    +0.214 C 
ATOM     34  H   UNL     1      -1.250  -9.227  15.804  0.00  0.00    +0.145 HD
ATOM     35  H   UNL     1      -0.718  -8.991  14.179  0.00  0.00    +0.145 HD
ENDBRANCH  22  24
ENDBRANCH  12   9
BRANCH  13   6
ATOM      6  O   UNL     1      -7.816 -14.152  18.034  0.00  0.00    -0.388 OA
ATOM     33  H   UNL     1      -8.681 -13.913  18.407  0.00  0.00    +0.210 HD
ENDBRANCH  13   6
BRANCH  14  10
ATOM     10  N   UNL     1      -8.430 -11.250  15.899  0.00  0.00    -0.305 NA
ATOM     32  H   UNL     1      -7.693 -10.548  15.969  0.00  0.00    +0.123 HD
BRANCH  10  23
ATOM     23  C   UNL     1      -8.168 -12.145  14.784  0.00  0.00    +0.116 C 
BRANCH  23  25
ATOM     25  C   UNL     1      -7.166 -11.565  13.822  0.00  0.00    -0.033 A 
ATOM     26  C   UNL     1      -6.668 -10.277  14.024  0.00  0.00    +0.008 A 
ATOM     27  C   UNL     1      -6.734 -12.316  12.730  0.00  0.00    +0.008 A 
ATOM     28  C   UNL     1      -5.741  -9.741  13.133  0.00  0.00    +0.046 A 
ATOM     29  C   UNL     1      -5.805 -11.779  11.839  0.00  0.00    +0.046 A 
ATOM     30  C   UNL     1      -5.308 -10.491  12.040  0.00  0.00    +0.130 A 
BRANCH  30   8
ATOM      8  O   UNL     1      -4.401  -9.968  11.171  0.00  0.00    -0.406 OA
BRANCH   8  31
ATOM      1  F   UNL     1      -4.031  -9.002   9.164  0.00  0.00    -0.133 F 
ATOM      2  F   UNL     1      -6.101  -9.249   9.820  0.00  0.00    -0.133 F 
ATOM      3  F   UNL     1      -4.795  -7.747  10.782  0.00  0.00    -0.133 F 
ATOM     31  C   UNL     1      -4.846  -8.984  10.243  0.00  0.00    +0.575 C 
ENDBRANCH   8  31
ENDBRANCH  30   8
ENDBRANCH  23  25
ENDBRANCH  10  23
ENDBRANCH  14  10
TORSDOF 8
ENDMDL
