MODEL 1
REMARK VINA RESULT:      -8.4      0.000      0.000
REMARK  Name = 11886000
REMARK  6 active torsions:
REMARK  status: ('A' for Active; 'I' for Inactive)
REMARK    1  A    between atoms: S_1  and  C_17
REMARK    2  A    between atoms: S_1  and  C_20
REMARK    3  A    between atoms: O_4  and  C_14
REMARK    4  A    between atoms: O_4  and  C_18
REMARK    5  A    between atoms: N_6  and  C_13
REMARK    6  A    between atoms: N_10  and  C_19
REMARK                            x       y       z     vdW  Elec       q    Type
REMARK                         _______ _______ _______ _____ _____    ______ ____
ROOT
ATOM      2  O   UNL     1     -14.208   4.721  23.841  0.00  0.00    -0.368 OA
ATOM      3  O   UNL     1     -16.679   4.093  22.093  0.00  0.00    -0.368 OA
ATOM     11  C   UNL     1     -16.091   5.338  22.531  0.00  0.00    +0.177 C 
ATOM     12  C   UNL     1     -15.586   5.111  23.942  0.00  0.00    +0.192 C 
ATOM     13  C   UNL     1     -14.842   5.623  21.720  0.00  0.00    +0.168 C 
ATOM     14  C   UNL     1     -16.455   3.975  24.428  0.00  0.00    +0.235 C 
ATOM     15  C   UNL     1     -13.765   4.857  22.483  0.00  0.00    +0.190 C 
ATOM     16  C   UNL     1     -16.629   3.152  23.174  0.00  0.00    +0.207 C 
ENDROOT
BRANCH  13   6
ATOM      6  N   UNL     1     -14.595   7.057  21.556  0.00  0.00    -0.212 N 
ATOM      7  N   UNL     1     -15.579   7.937  21.772  0.00  0.00    -0.043 NA
ATOM      8  N   UNL     1     -13.707   8.992  21.177  0.00  0.00    -0.101 NA
ATOM      9  N   UNL     1     -15.029   9.123  21.539  0.00  0.00    -0.022 NA
ATOM     17  C   UNL     1     -13.460   7.703  21.196  0.00  0.00    +0.214 A 
BRANCH  17   1
ATOM      1  S   UNL     1     -11.975   6.914  20.835  0.00  0.00    -0.049 S 
BRANCH   1  20
ATOM     20  C   UNL     1     -11.426   7.925  19.458  0.00  0.00    +0.016 A 
ATOM     24  C   UNL     1     -10.511   8.946  19.679  0.00  0.00    +0.015 A 
ATOM     25  C   UNL     1     -11.922   7.676  18.184  0.00  0.00    +0.015 A 
ATOM     30  C   UNL     1     -10.084   9.731  18.609  0.00  0.00    +0.001 A 
ATOM     31  C   UNL     1     -11.494   8.463  17.114  0.00  0.00    +0.001 A 
ATOM     34  C   UNL     1     -10.575   9.490  17.326  0.00  0.00    +0.000 A 
ENDBRANCH   1  20
ENDBRANCH  17   1
ENDBRANCH  13   6
BRANCH  14   4
ATOM      4  O   UNL     1     -15.875   3.232  25.477  0.00  0.00    -0.442 OA
BRANCH   4  18
ATOM      5  O   UNL     1     -17.522   3.806  26.955  0.00  0.00    -0.226 OA
ATOM     10  N   UNL     1     -15.374   3.216  27.675  0.00  0.00    -0.251 N 
ATOM     18  C   UNL     1     -16.368   3.454  26.746  0.00  0.00    +0.405 C 
ATOM     35  H   UNL     1     -14.489   2.930  27.275  0.00  0.00    +0.158 HD
BRANCH  10  19
ATOM     19  C   UNL     1     -15.456   3.324  29.083  0.00  0.00    +0.044 A 
ATOM     21  C   UNL     1     -15.218   2.224  29.910  0.00  0.00    +0.003 A 
ATOM     22  C   UNL     1     -15.784   4.569  29.603  0.00  0.00    +0.024 A 
ATOM     23  C   UNL     1     -15.315   2.391  31.312  0.00  0.00    -0.016 A 
ATOM     26  C   UNL     1     -14.887   0.961  29.391  0.00  0.00    +0.010 A 
ATOM     27  C   UNL     1     -15.878   4.734  30.981  0.00  0.00    +0.002 A 
ATOM     28  C   UNL     1     -15.646   3.653  31.832  0.00  0.00    +0.008 A 
ATOM     29  C   UNL     1     -15.077   1.292  32.153  0.00  0.00    +0.008 A 
ATOM     32  C   UNL     1     -14.654  -0.120  30.242  0.00  0.00    +0.001 A 
ATOM     33  C   UNL     1     -14.750   0.045  31.620  0.00  0.00    +0.001 A 
ENDBRANCH  10  19
ENDBRANCH   4  18
ENDBRANCH  14   4
TORSDOF 6
ENDMDL
MODEL 2
REMARK VINA RESULT:      -8.3      2.217      3.651
REMARK  Name = 11886000
REMARK  6 active torsions:
REMARK  status: ('A' for Active; 'I' for Inactive)
REMARK    1  A    between atoms: S_1  and  C_17
REMARK    2  A    between atoms: S_1  and  C_20
REMARK    3  A    between atoms: O_4  and  C_14
REMARK    4  A    between atoms: O_4  and  C_18
REMARK    5  A    between atoms: N_6  and  C_13
REMARK    6  A    between atoms: N_10  and  C_19
REMARK                            x       y       z     vdW  Elec       q    Type
REMARK                         _______ _______ _______ _____ _____    ______ ____
ROOT
ATOM      2  O   UNL     1     -17.820   2.191  23.729  0.00  0.00    -0.368 OA
ATOM      3  O   UNL     1     -17.231   4.699  25.438  0.00  0.00    -0.368 OA
ATOM     11  C   UNL     1     -16.756   4.275  24.140  0.00  0.00    +0.177 C 
ATOM     12  C   UNL     1     -16.595   2.769  24.204  0.00  0.00    +0.192 C 
ATOM     13  C   UNL     1     -17.840   4.498  23.105  0.00  0.00    +0.168 C 
ATOM     14  C   UNL     1     -16.394   2.518  25.680  0.00  0.00    +0.235 C 
ATOM     15  C   UNL     1     -18.670   3.222  23.208  0.00  0.00    +0.190 C 
ATOM     16  C   UNL     1     -17.296   3.558  26.303  0.00  0.00    +0.207 C 
ENDROOT
BRANCH  13   6
ATOM      6  N   UNL     1     -17.296   4.787  21.776  0.00  0.00    -0.212 N 
ATOM      7  N   UNL     1     -17.608   4.003  20.738  0.00  0.00    -0.043 NA
ATOM      8  N   UNL     1     -16.245   5.645  20.092  0.00  0.00    -0.101 NA
ATOM      9  N   UNL     1     -16.961   4.535  19.707  0.00  0.00    -0.022 NA
ATOM     17  C   UNL     1     -16.468   5.783  21.378  0.00  0.00    +0.214 A 
BRANCH  17   1
ATOM      1  S   UNL     1     -15.846   6.995  22.427  0.00  0.00    -0.049 S 
BRANCH   1  20
ATOM     20  C   UNL     1     -14.198   7.169  21.738  0.00  0.00    +0.016 A 
ATOM     24  C   UNL     1     -13.356   6.066  21.688  0.00  0.00    +0.015 A 
ATOM     25  C   UNL     1     -13.782   8.406  21.261  0.00  0.00    +0.015 A 
ATOM     30  C   UNL     1     -12.076   6.202  21.152  0.00  0.00    +0.001 A 
ATOM     31  C   UNL     1     -12.501   8.540  20.725  0.00  0.00    +0.001 A 
ATOM     34  C   UNL     1     -11.648   7.439  20.670  0.00  0.00    +0.000 A 
ENDBRANCH   1  20
ENDBRANCH  17   1
ENDBRANCH  13   6
BRANCH  14   4
ATOM      4  O   UNL     1     -16.735   1.210  26.080  0.00  0.00    -0.442 OA
BRANCH   4  18
ATOM      5  O   UNL     1     -17.892   0.528  27.931  0.00  0.00    -0.226 OA
ATOM     10  N   UNL     1     -15.706   1.351  28.081  0.00  0.00    -0.251 N 
ATOM     18  C   UNL     1     -16.870   0.986  27.434  0.00  0.00    +0.405 C 
ATOM     35  H   UNL     1     -14.982   1.707  27.468  0.00  0.00    +0.158 HD
BRANCH  10  19
ATOM     19  C   UNL     1     -15.422   1.284  29.465  0.00  0.00    +0.044 A 
ATOM     21  C   UNL     1     -15.411   2.433  30.260  0.00  0.00    +0.003 A 
ATOM     22  C   UNL     1     -15.154   0.029  29.995  0.00  0.00    +0.024 A 
ATOM     23  C   UNL     1     -15.119   2.306  31.639  0.00  0.00    -0.016 A 
ATOM     26  C   UNL     1     -15.681   3.706  29.730  0.00  0.00    +0.010 A 
ATOM     27  C   UNL     1     -14.868  -0.097  31.351  0.00  0.00    +0.002 A 
ATOM     28  C   UNL     1     -14.850   1.033  32.169  0.00  0.00    +0.008 A 
ATOM     29  C   UNL     1     -15.106   3.453  32.448  0.00  0.00    +0.008 A 
ATOM     32  C   UNL     1     -15.663   4.836  30.549  0.00  0.00    +0.001 A 
ATOM     33  C   UNL     1     -15.376   4.710  31.904  0.00  0.00    +0.001 A 
ENDBRANCH  10  19
ENDBRANCH   4  18
ENDBRANCH  14   4
TORSDOF 6
ENDMDL
MODEL 3
REMARK VINA RESULT:      -8.2     15.899     17.558
REMARK  Name = 11886000
REMARK  6 active torsions:
REMARK  status: ('A' for Active; 'I' for Inactive)
REMARK    1  A    between atoms: S_1  and  C_17
REMARK    2  A    between atoms: S_1  and  C_20
REMARK    3  A    between atoms: O_4  and  C_14
REMARK    4  A    between atoms: O_4  and  C_18
REMARK    5  A    between atoms: N_6  and  C_13
REMARK    6  A    between atoms: N_10  and  C_19
REMARK                            x       y       z     vdW  Elec       q    Type
REMARK                         _______ _______ _______ _____ _____    ______ ____
ROOT
ATOM      2  O   UNL     1     -12.994  -7.950  15.781  0.00  0.00    -0.368 OA
ATOM      3  O   UNL     1     -11.207  -5.613  14.833  0.00  0.00    -0.368 OA
ATOM     11  C   UNL     1     -12.236  -6.380  14.168  0.00  0.00    +0.177 C 
ATOM     12  C   UNL     1     -12.106  -7.807  14.662  0.00  0.00    +0.192 C 
ATOM     13  C   UNL     1     -13.600  -5.930  14.656  0.00  0.00    +0.168 C 
ATOM     14  C   UNL     1     -10.658  -7.882  15.084  0.00  0.00    +0.235 C 
ATOM     15  C   UNL     1     -13.799  -6.770  15.914  0.00  0.00    +0.190 C 
ATOM     16  C   UNL     1     -10.418  -6.497  15.638  0.00  0.00    +0.207 C 
ENDROOT
BRANCH  13   6
ATOM      6  N   UNL     1     -14.637  -6.076  13.633  0.00  0.00    -0.212 N 
ATOM      7  N   UNL     1     -15.199  -7.270  13.412  0.00  0.00    -0.043 NA
ATOM      8  N   UNL     1     -16.074  -5.735  12.053  0.00  0.00    -0.101 NA
ATOM      9  N   UNL     1     -16.080  -7.055  12.442  0.00  0.00    -0.022 NA
ATOM     17  C   UNL     1     -15.173  -5.147  12.805  0.00  0.00    +0.214 A 
BRANCH  17   1
ATOM      1  S   UNL     1     -14.710  -3.491  12.789  0.00  0.00    -0.049 S 
BRANCH   1  20
ATOM     20  C   UNL     1     -13.694  -3.479  11.310  0.00  0.00    +0.016 A 
ATOM     24  C   UNL     1     -14.284  -3.246  10.075  0.00  0.00    +0.015 A 
ATOM     25  C   UNL     1     -12.327  -3.703  11.416  0.00  0.00    +0.015 A 
ATOM     30  C   UNL     1     -13.495  -3.237   8.925  0.00  0.00    +0.001 A 
ATOM     31  C   UNL     1     -11.538  -3.693  10.265  0.00  0.00    +0.001 A 
ATOM     34  C   UNL     1     -12.121  -3.460   9.020  0.00  0.00    +0.000 A 
ENDBRANCH   1  20
ENDBRANCH  17   1
ENDBRANCH  13   6
BRANCH  14   4
ATOM      4  O   UNL     1     -10.401  -8.889  16.037  0.00  0.00    -0.442 OA
BRANCH   4  18
ATOM      5  O   UNL     1      -9.542 -10.831  15.189  0.00  0.00    -0.226 OA
ATOM     10  N   UNL     1      -8.181  -9.232  16.223  0.00  0.00    -0.251 N 
ATOM     18  C   UNL     1      -9.369  -9.762  15.761  0.00  0.00    +0.405 C 
ATOM     35  H   UNL     1      -8.272  -8.327  16.668  0.00  0.00    +0.158 HD
BRANCH  10  19
ATOM     19  C   UNL     1      -6.887  -9.799  16.145  0.00  0.00    +0.044 A 
ATOM     21  C   UNL     1      -6.265 -10.345  17.270  0.00  0.00    +0.003 A 
ATOM     22  C   UNL     1      -6.266  -9.785  14.902  0.00  0.00    +0.024 A 
ATOM     23  C   UNL     1      -4.969 -10.898  17.132  0.00  0.00    -0.016 A 
ATOM     26  C   UNL     1      -6.887 -10.362  18.529  0.00  0.00    +0.010 A 
ATOM     27  C   UNL     1      -4.993 -10.330  14.767  0.00  0.00    +0.002 A 
ATOM     28  C   UNL     1      -4.347 -10.883  15.873  0.00  0.00    +0.008 A 
ATOM     29  C   UNL     1      -4.335 -11.451  18.255  0.00  0.00    +0.008 A 
ATOM     32  C   UNL     1      -6.241 -10.915  19.635  0.00  0.00    +0.001 A 
ATOM     33  C   UNL     1      -4.968 -11.458  19.499  0.00  0.00    +0.001 A 
ENDBRANCH  10  19
ENDBRANCH   4  18
ENDBRANCH  14   4
TORSDOF 6
ENDMDL
MODEL 4
REMARK VINA RESULT:      -7.9     21.353     22.764
REMARK  Name = 11886000
REMARK  6 active torsions:
REMARK  status: ('A' for Active; 'I' for Inactive)
REMARK    1  A    between atoms: S_1  and  C_17
REMARK    2  A    between atoms: S_1  and  C_20
REMARK    3  A    between atoms: O_4  and  C_14
REMARK    4  A    between atoms: O_4  and  C_18
REMARK    5  A    between atoms: N_6  and  C_13
REMARK    6  A    between atoms: N_10  and  C_19
REMARK                            x       y       z     vdW  Elec       q    Type
REMARK                         _______ _______ _______ _____ _____    ______ ____
ROOT
ATOM      2  O   UNL     1      -2.371 -10.231  12.674  0.00  0.00    -0.368 OA
ATOM      3  O   UNL     1      -3.038 -13.011  11.497  0.00  0.00    -0.368 OA
ATOM     11  C   UNL     1      -3.818 -11.802  11.632  0.00  0.00    +0.177 C 
ATOM     12  C   UNL     1      -3.420 -11.171  12.952  0.00  0.00    +0.192 C 
ATOM     13  C   UNL     1      -3.383 -10.797  10.584  0.00  0.00    +0.168 C 
ATOM     14  C   UNL     1      -2.917 -12.352  13.747  0.00  0.00    +0.235 C 
ATOM     15  C   UNL     1      -2.203 -10.101  11.255  0.00  0.00    +0.190 C 
ATOM     16  C   UNL     1      -2.252 -13.191  12.682  0.00  0.00    +0.207 C 
ENDROOT
BRANCH  13   6
ATOM      6  N   UNL     1      -4.475  -9.916  10.164  0.00  0.00    -0.212 N 
ATOM      7  N   UNL     1      -4.372  -8.593  10.330  0.00  0.00    -0.043 NA
ATOM      8  N   UNL     1      -6.327  -9.109   9.392  0.00  0.00    -0.101 NA
ATOM      9  N   UNL     1      -5.510  -8.102   9.854  0.00  0.00    -0.022 NA
ATOM     17  C   UNL     1      -5.665 -10.224   9.593  0.00  0.00    +0.214 A 
BRANCH  17   1
ATOM      1  S   UNL     1      -6.167 -11.826   9.218  0.00  0.00    -0.049 S 
BRANCH   1  20
ATOM     20  C   UNL     1      -5.218 -12.092   7.719  0.00  0.00    +0.016 A 
ATOM     24  C   UNL     1      -5.455 -11.294   6.607  0.00  0.00    +0.015 A 
ATOM     25  C   UNL     1      -4.255 -13.093   7.685  0.00  0.00    +0.015 A 
ATOM     30  C   UNL     1      -4.718 -11.501   5.442  0.00  0.00    +0.001 A 
ATOM     31  C   UNL     1      -3.518 -13.299   6.519  0.00  0.00    +0.001 A 
ATOM     34  C   UNL     1      -3.749 -12.503   5.397  0.00  0.00    +0.000 A 
ENDBRANCH   1  20
ENDBRANCH  17   1
ENDBRANCH  13   6
BRANCH  14   4
ATOM      4  O   UNL     1      -2.025 -11.997  14.780  0.00  0.00    -0.442 OA
BRANCH   4  18
ATOM      5  O   UNL     1      -2.020 -10.279  16.289  0.00  0.00    -0.226 OA
ATOM     10  N   UNL     1      -3.709 -11.899  16.275  0.00  0.00    -0.251 N 
ATOM     18  C   UNL     1      -2.548 -11.289  15.842  0.00  0.00    +0.405 C 
ATOM     35  H   UNL     1      -3.963 -12.729  15.755  0.00  0.00    +0.158 HD
BRANCH  10  19
ATOM     19  C   UNL     1      -4.557 -11.501  17.335  0.00  0.00    +0.044 A 
ATOM     21  C   UNL     1      -5.745 -10.806  17.093  0.00  0.00    +0.003 A 
ATOM     22  C   UNL     1      -4.154 -11.830  18.623  0.00  0.00    +0.024 A 
ATOM     23  C   UNL     1      -6.553 -10.433  18.194  0.00  0.00    -0.016 A 
ATOM     26  C   UNL     1      -6.157 -10.470  15.793  0.00  0.00    +0.010 A 
ATOM     27  C   UNL     1      -4.950 -11.464  19.705  0.00  0.00    +0.002 A 
ATOM     28  C   UNL     1      -6.141 -10.770  19.493  0.00  0.00    +0.008 A 
ATOM     29  C   UNL     1      -7.749  -9.736  17.962  0.00  0.00    +0.008 A 
ATOM     32  C   UNL     1      -7.349  -9.776  15.582  0.00  0.00    +0.001 A 
ATOM     33  C   UNL     1      -8.143  -9.409  16.664  0.00  0.00    +0.001 A 
ENDBRANCH  10  19
ENDBRANCH   4  18
ENDBRANCH  14   4
TORSDOF 6
ENDMDL
MODEL 5
REMARK VINA RESULT:      -7.9     18.488     19.856
REMARK  Name = 11886000
REMARK  6 active torsions:
REMARK  status: ('A' for Active; 'I' for Inactive)
REMARK    1  A    between atoms: S_1  and  C_17
REMARK    2  A    between atoms: S_1  and  C_20
REMARK    3  A    between atoms: O_4  and  C_14
REMARK    4  A    between atoms: O_4  and  C_18
REMARK    5  A    between atoms: N_6  and  C_13
REMARK    6  A    between atoms: N_10  and  C_19
REMARK                            x       y       z     vdW  Elec       q    Type
REMARK                         _______ _______ _______ _____ _____    ______ ____
ROOT
ATOM      2  O   UNL     1      -5.724 -12.113  17.692  0.00  0.00    -0.368 OA
ATOM      3  O   UNL     1      -6.491  -9.370  16.490  0.00  0.00    -0.368 OA
ATOM     11  C   UNL     1      -5.214  -9.973  16.795  0.00  0.00    +0.177 C 
ATOM     12  C   UNL     1      -5.399 -10.767  18.073  0.00  0.00    +0.192 C 
ATOM     13  C   UNL     1      -4.880 -11.014  15.745  0.00  0.00    +0.168 C 
ATOM     14  C   UNL     1      -6.569 -10.073  18.729  0.00  0.00    +0.235 C 
ATOM     15  C   UNL     1      -5.584 -12.260  16.272  0.00  0.00    +0.190 C 
ATOM     16  C   UNL     1      -7.416  -9.686  17.539  0.00  0.00    +0.207 C 
ENDROOT
BRANCH  13   6
ATOM      6  N   UNL     1      -3.438 -11.151  15.530  0.00  0.00    -0.212 N 
ATOM      7  N   UNL     1      -2.575 -10.648  16.420  0.00  0.00    -0.043 NA
ATOM      8  N   UNL     1      -1.480 -11.623  14.741  0.00  0.00    -0.101 NA
ATOM      9  N   UNL     1      -1.376 -10.940  15.932  0.00  0.00    -0.022 NA
ATOM     17  C   UNL     1      -2.767 -11.743  14.513  0.00  0.00    +0.214 A 
BRANCH  17   1
ATOM      1  S   UNL     1      -3.528 -12.507  13.173  0.00  0.00    -0.049 S 
BRANCH   1  20
ATOM     20  C   UNL     1      -3.653 -11.105  12.061  0.00  0.00    +0.016 A 
ATOM     24  C   UNL     1      -2.502 -10.575  11.494  0.00  0.00    +0.015 A 
ATOM     25  C   UNL     1      -4.901 -10.564  11.777  0.00  0.00    +0.015 A 
ATOM     30  C   UNL     1      -2.599  -9.485  10.629  0.00  0.00    +0.001 A 
ATOM     31  C   UNL     1      -4.997  -9.474  10.911  0.00  0.00    +0.001 A 
ATOM     34  C   UNL     1      -3.847  -8.935  10.337  0.00  0.00    +0.000 A 
ENDBRANCH   1  20
ENDBRANCH  17   1
ENDBRANCH  13   6
BRANCH  14   4
ATOM      4  O   UNL     1      -7.271 -10.891  19.638  0.00  0.00    -0.442 OA
BRANCH   4  18
ATOM      5  O   UNL     1      -8.769 -12.311  18.653  0.00  0.00    -0.226 OA
ATOM     10  N   UNL     1      -9.457 -10.343  19.717  0.00  0.00    -0.251 N 
ATOM     18  C   UNL     1      -8.544 -11.280  19.274  0.00  0.00    +0.405 C 
ATOM     35  H   UNL     1      -9.046  -9.563  20.215  0.00  0.00    +0.158 HD
BRANCH  10  19
ATOM     19  C   UNL     1     -10.862 -10.355  19.558  0.00  0.00    +0.044 A 
ATOM     21  C   UNL     1     -11.483  -9.626  18.540  0.00  0.00    +0.003 A 
ATOM     22  C   UNL     1     -11.594 -11.119  20.458  0.00  0.00    +0.024 A 
ATOM     23  C   UNL     1     -12.894  -9.675  18.429  0.00  0.00    -0.016 A 
ATOM     26  C   UNL     1     -10.749  -8.851  17.627  0.00  0.00    +0.010 A 
ATOM     27  C   UNL     1     -12.980 -11.168  20.348  0.00  0.00    +0.002 A 
ATOM     28  C   UNL     1     -13.628 -10.451  19.341  0.00  0.00    +0.008 A 
ATOM     29  C   UNL     1     -13.528  -8.948  17.410  0.00  0.00    +0.008 A 
ATOM     32  C   UNL     1     -11.397  -8.134  16.620  0.00  0.00    +0.001 A 
ATOM     33  C   UNL     1     -12.783  -8.182  16.512  0.00  0.00    +0.001 A 
ENDBRANCH  10  19
ENDBRANCH   4  18
ENDBRANCH  14   4
TORSDOF 6
ENDMDL
MODEL 6
REMARK VINA RESULT:      -7.7      2.140      2.967
REMARK  Name = 11886000
REMARK  6 active torsions:
REMARK  status: ('A' for Active; 'I' for Inactive)
REMARK    1  A    between atoms: S_1  and  C_17
REMARK    2  A    between atoms: S_1  and  C_20
REMARK    3  A    between atoms: O_4  and  C_14
REMARK    4  A    between atoms: O_4  and  C_18
REMARK    5  A    between atoms: N_6  and  C_13
REMARK    6  A    between atoms: N_10  and  C_19
REMARK                            x       y       z     vdW  Elec       q    Type
REMARK                         _______ _______ _______ _____ _____    ______ ____
ROOT
ATOM      2  O   UNL     1     -18.215   3.428  23.523  0.00  0.00    -0.368 OA
ATOM      3  O   UNL     1     -17.017   6.122  24.453  0.00  0.00    -0.368 OA
ATOM     11  C   UNL     1     -16.765   5.296  23.294  0.00  0.00    +0.177 C 
ATOM     12  C   UNL     1     -16.864   3.855  23.753  0.00  0.00    +0.192 C 
ATOM     13  C   UNL     1     -17.899   5.458  22.300  0.00  0.00    +0.168 C 
ATOM     14  C   UNL     1     -16.552   3.954  25.228  0.00  0.00    +0.235 C 
ATOM     15  C   UNL     1     -18.923   4.439  22.792  0.00  0.00    +0.190 C 
ATOM     16  C   UNL     1     -17.186   5.275  25.597  0.00  0.00    +0.207 C 
ENDROOT
BRANCH  13   6
ATOM      6  N   UNL     1     -17.459   5.286  20.914  0.00  0.00    -0.212 N 
ATOM      7  N   UNL     1     -17.740   4.155  20.256  0.00  0.00    -0.043 NA
ATOM      8  N   UNL     1     -16.595   5.553  18.950  0.00  0.00    -0.101 NA
ATOM      9  N   UNL     1     -17.208   4.325  19.051  0.00  0.00    -0.022 NA
ATOM     17  C   UNL     1     -16.764   6.131  20.115  0.00  0.00    +0.214 A 
BRANCH  17   1
ATOM      1  S   UNL     1     -16.221   7.688  20.603  0.00  0.00    -0.049 S 
BRANCH   1  20
ATOM     20  C   UNL     1     -14.448   7.416  20.552  0.00  0.00    +0.016 A 
ATOM     24  C   UNL     1     -13.667   8.149  19.668  0.00  0.00    +0.015 A 
ATOM     25  C   UNL     1     -13.875   6.475  21.398  0.00  0.00    +0.015 A 
ATOM     30  C   UNL     1     -12.290   7.938  19.629  0.00  0.00    +0.001 A 
ATOM     31  C   UNL     1     -12.496   6.264  21.358  0.00  0.00    +0.001 A 
ATOM     34  C   UNL     1     -11.704   6.995  20.473  0.00  0.00    +0.000 A 
ENDBRANCH   1  20
ENDBRANCH  17   1
ENDBRANCH  13   6
BRANCH  14   4
ATOM      4  O   UNL     1     -17.071   2.884  25.986  0.00  0.00    -0.442 OA
BRANCH   4  18
ATOM      5  O   UNL     1     -18.327   3.247  27.862  0.00  0.00    -0.226 OA
ATOM     10  N   UNL     1     -15.992   3.105  27.953  0.00  0.00    -0.251 N 
ATOM     18  C   UNL     1     -17.229   3.097  27.340  0.00  0.00    +0.405 C 
ATOM     35  H   UNL     1     -15.213   2.959  27.323  0.00  0.00    +0.158 HD
BRANCH  10  19
ATOM     19  C   UNL     1     -15.703   3.290  29.325  0.00  0.00    +0.044 A 
ATOM     21  C   UNL     1     -15.421   2.206  30.160  0.00  0.00    +0.003 A 
ATOM     22  C   UNL     1     -15.715   4.594  29.803  0.00  0.00    +0.024 A 
ATOM     23  C   UNL     1     -15.139   2.452  31.525  0.00  0.00    -0.016 A 
ATOM     26  C   UNL     1     -15.407   0.885  29.683  0.00  0.00    +0.010 A 
ATOM     27  C   UNL     1     -15.438   4.836  31.145  0.00  0.00    +0.002 A 
ATOM     28  C   UNL     1     -15.152   3.772  32.002  0.00  0.00    +0.008 A 
ATOM     29  C   UNL     1     -14.853   1.370  32.373  0.00  0.00    +0.008 A 
ATOM     32  C   UNL     1     -15.121  -0.178  30.541  0.00  0.00    +0.001 A 
ATOM     33  C   UNL     1     -14.845   0.063  31.882  0.00  0.00    +0.001 A 
ENDBRANCH  10  19
ENDBRANCH   4  18
ENDBRANCH  14   4
TORSDOF 6
ENDMDL
MODEL 7
REMARK VINA RESULT:      -7.7     19.299     22.108
REMARK  Name = 11886000
REMARK  6 active torsions:
REMARK  status: ('A' for Active; 'I' for Inactive)
REMARK    1  A    between atoms: S_1  and  C_17
REMARK    2  A    between atoms: S_1  and  C_20
REMARK    3  A    between atoms: O_4  and  C_14
REMARK    4  A    between atoms: O_4  and  C_18
REMARK    5  A    between atoms: N_6  and  C_13
REMARK    6  A    between atoms: N_10  and  C_19
REMARK                            x       y       z     vdW  Elec       q    Type
REMARK                         _______ _______ _______ _____ _____    ______ ____
ROOT
ATOM      2  O   UNL     1      -4.615 -10.261  15.731  0.00  0.00    -0.368 OA
ATOM      3  O   UNL     1      -5.488 -13.184  15.234  0.00  0.00    -0.368 OA
ATOM     11  C   UNL     1      -5.310 -12.418  16.446  0.00  0.00    +0.177 C 
ATOM     12  C   UNL     1      -4.113 -11.515  16.220  0.00  0.00    +0.192 C 
ATOM     13  C   UNL     1      -6.477 -11.466  16.622  0.00  0.00    +0.168 C 
ATOM     14  C   UNL     1      -3.333 -12.256  15.160  0.00  0.00    +0.235 C 
ATOM     15  C   UNL     1      -6.047 -10.253  15.801  0.00  0.00    +0.190 C 
ATOM     16  C   UNL     1      -4.434 -12.858  14.320  0.00  0.00    +0.207 C 
ENDROOT
BRANCH  13   6
ATOM      6  N   UNL     1      -6.775 -11.197  18.030  0.00  0.00    -0.212 N 
ATOM      7  N   UNL     1      -5.787 -10.892  18.879  0.00  0.00    -0.043 NA
ATOM      8  N   UNL     1      -7.747 -10.905  19.939  0.00  0.00    -0.101 NA
ATOM      9  N   UNL     1      -6.389 -10.713  20.049  0.00  0.00    -0.022 NA
ATOM     17  C   UNL     1      -7.963 -11.203  18.680  0.00  0.00    +0.214 A 
BRANCH  17   1
ATOM      1  S   UNL     1      -9.470 -11.551  17.927  0.00  0.00    -0.049 S 
BRANCH   1  20
ATOM     20  C   UNL     1      -9.737  -9.999  17.065  0.00  0.00    +0.016 A 
ATOM     24  C   UNL     1      -9.770  -9.983  15.677  0.00  0.00    +0.015 A 
ATOM     25  C   UNL     1      -9.910  -8.830  17.796  0.00  0.00    +0.015 A 
ATOM     30  C   UNL     1      -9.978  -8.778  15.007  0.00  0.00    +0.001 A 
ATOM     31  C   UNL     1     -10.118  -7.625  17.124  0.00  0.00    +0.001 A 
ATOM     34  C   UNL     1     -10.152  -7.599  15.730  0.00  0.00    +0.000 A 
ENDBRANCH   1  20
ENDBRANCH  17   1
ENDBRANCH  13   6
BRANCH  14   4
ATOM      4  O   UNL     1      -2.480 -11.425  14.405  0.00  0.00    -0.442 OA
BRANCH   4  18
ATOM      5  O   UNL     1      -2.254 -12.080  12.225  0.00  0.00    -0.226 OA
ATOM     10  N   UNL     1      -3.611 -10.271  12.832  0.00  0.00    -0.251 N 
ATOM     18  C   UNL     1      -2.744 -11.322  13.054  0.00  0.00    +0.405 C 
ATOM     35  H   UNL     1      -3.891  -9.777  13.670  0.00  0.00    +0.158 HD
BRANCH  10  19
ATOM     19  C   UNL     1      -4.135  -9.822  11.597  0.00  0.00    +0.044 A 
ATOM     21  C   UNL     1      -5.512  -9.712  11.390  0.00  0.00    +0.003 A 
ATOM     22  C   UNL     1      -3.220  -9.500  10.603  0.00  0.00    +0.024 A 
ATOM     23  C   UNL     1      -5.979  -9.257  10.134  0.00  0.00    -0.016 A 
ATOM     26  C   UNL     1      -6.442 -10.036  12.391  0.00  0.00    +0.010 A 
ATOM     27  C   UNL     1      -3.679  -9.053   9.368  0.00  0.00    +0.002 A 
ATOM     28  C   UNL     1      -5.049  -8.932   9.133  0.00  0.00    +0.008 A 
ATOM     29  C   UNL     1      -7.360  -9.141   9.915  0.00  0.00    +0.008 A 
ATOM     32  C   UNL     1      -7.812  -9.915  12.156  0.00  0.00    +0.001 A 
ATOM     33  C   UNL     1      -8.271  -9.469  10.921  0.00  0.00    +0.001 A 
ENDBRANCH  10  19
ENDBRANCH   4  18
ENDBRANCH  14   4
TORSDOF 6
ENDMDL
MODEL 8
REMARK VINA RESULT:      -7.7     18.548     19.912
REMARK  Name = 11886000
REMARK  6 active torsions:
REMARK  status: ('A' for Active; 'I' for Inactive)
REMARK    1  A    between atoms: S_1  and  C_17
REMARK    2  A    between atoms: S_1  and  C_20
REMARK    3  A    between atoms: O_4  and  C_14
REMARK    4  A    between atoms: O_4  and  C_18
REMARK    5  A    between atoms: N_6  and  C_13
REMARK    6  A    between atoms: N_10  and  C_19
REMARK                            x       y       z     vdW  Elec       q    Type
REMARK                         _______ _______ _______ _____ _____    ______ ____
ROOT
ATOM      2  O   UNL     1      -6.088 -11.454  16.935  0.00  0.00    -0.368 OA
ATOM      3  O   UNL     1      -6.557 -10.076  14.208  0.00  0.00    -0.368 OA
ATOM     11  C   UNL     1      -5.427 -10.085  15.109  0.00  0.00    +0.177 C 
ATOM     12  C   UNL     1      -5.990 -10.084  16.516  0.00  0.00    +0.192 C 
ATOM     13  C   UNL     1      -4.696 -11.408  14.992  0.00  0.00    +0.168 C 
ATOM     14  C   UNL     1      -7.352  -9.457  16.329  0.00  0.00    +0.235 C 
ATOM     15  C   UNL     1      -5.465 -12.302  15.961  0.00  0.00    +0.190 C 
ATOM     16  C   UNL     1      -7.763  -9.993  14.978  0.00  0.00    +0.207 C 
ENDROOT
BRANCH  13   6
ATOM      6  N   UNL     1      -3.262 -11.282  15.259  0.00  0.00    -0.212 N 
ATOM      7  N   UNL     1      -2.835 -10.604  16.330  0.00  0.00    -0.043 NA
ATOM      8  N   UNL     1      -1.104 -11.403  15.175  0.00  0.00    -0.101 NA
ATOM      9  N   UNL     1      -1.511 -10.681  16.274  0.00  0.00    -0.022 NA
ATOM     17  C   UNL     1      -2.206 -11.766  14.561  0.00  0.00    +0.214 A 
BRANCH  17   1
ATOM      1  S   UNL     1      -2.348 -12.693  13.120  0.00  0.00    -0.049 S 
BRANCH   1  20
ATOM     20  C   UNL     1      -2.637 -11.371  11.942  0.00  0.00    +0.016 A 
ATOM     24  C   UNL     1      -1.761 -10.295  11.889  0.00  0.00    +0.015 A 
ATOM     25  C   UNL     1      -3.735 -11.438  11.092  0.00  0.00    +0.015 A 
ATOM     30  C   UNL     1      -1.985  -9.268  10.973  0.00  0.00    +0.001 A 
ATOM     31  C   UNL     1      -3.959 -10.410  10.176  0.00  0.00    +0.001 A 
ATOM     34  C   UNL     1      -3.084  -9.325  10.116  0.00  0.00    +0.000 A 
ENDBRANCH   1  20
ENDBRANCH  17   1
ENDBRANCH  13   6
BRANCH  14   4
ATOM      4  O   UNL     1      -8.273  -9.800  17.340  0.00  0.00    -0.442 OA
BRANCH   4  18
ATOM      5  O   UNL     1      -9.569  -7.917  17.384  0.00  0.00    -0.226 OA
ATOM     10  N   UNL     1     -10.512 -10.056  17.263  0.00  0.00    -0.251 N 
ATOM     18  C   UNL     1      -9.483  -9.138  17.334  0.00  0.00    +0.405 C 
ATOM     35  H   UNL     1     -10.207 -11.021  17.229  0.00  0.00    +0.158 HD
BRANCH  10  19
ATOM     19  C   UNL     1     -11.903  -9.803  17.233  0.00  0.00    +0.044 A 
ATOM     21  C   UNL     1     -12.656  -9.750  18.409  0.00  0.00    +0.003 A 
ATOM     22  C   UNL     1     -12.484  -9.613  15.986  0.00  0.00    +0.024 A 
ATOM     23  C   UNL     1     -14.045  -9.494  18.317  0.00  0.00    -0.016 A 
ATOM     26  C   UNL     1     -12.075  -9.941  19.673  0.00  0.00    +0.010 A 
ATOM     27  C   UNL     1     -13.849  -9.361  15.896  0.00  0.00    +0.002 A 
ATOM     28  C   UNL     1     -14.626  -9.302  17.054  0.00  0.00    +0.008 A 
ATOM     29  C   UNL     1     -14.812  -9.436  19.492  0.00  0.00    +0.008 A 
ATOM     32  C   UNL     1     -12.852  -9.881  20.830  0.00  0.00    +0.001 A 
ATOM     33  C   UNL     1     -14.218  -9.630  20.740  0.00  0.00    +0.001 A 
ENDBRANCH  10  19
ENDBRANCH   4  18
ENDBRANCH  14   4
TORSDOF 6
ENDMDL
MODEL 9
REMARK VINA RESULT:      -7.7     18.720     19.858
REMARK  Name = 11886000
REMARK  6 active torsions:
REMARK  status: ('A' for Active; 'I' for Inactive)
REMARK    1  A    between atoms: S_1  and  C_17
REMARK    2  A    between atoms: S_1  and  C_20
REMARK    3  A    between atoms: O_4  and  C_14
REMARK    4  A    between atoms: O_4  and  C_18
REMARK    5  A    between atoms: N_6  and  C_13
REMARK    6  A    between atoms: N_10  and  C_19
REMARK                            x       y       z     vdW  Elec       q    Type
REMARK                         _______ _______ _______ _____ _____    ______ ____
ROOT
ATOM      2  O   UNL     1      -5.169 -10.430  17.774  0.00  0.00    -0.368 OA
ATOM      3  O   UNL     1      -6.538 -11.998  15.489  0.00  0.00    -0.368 OA
ATOM     11  C   UNL     1      -5.482 -11.012  15.492  0.00  0.00    +0.177 C 
ATOM     12  C   UNL     1      -5.828 -10.004  16.571  0.00  0.00    +0.192 C 
ATOM     13  C   UNL     1      -4.192 -11.651  15.967  0.00  0.00    +0.168 C 
ATOM     14  C   UNL     1      -7.328 -10.135  16.679  0.00  0.00    +0.235 C 
ATOM     15  C   UNL     1      -4.296 -11.530  17.484  0.00  0.00    +0.190 C 
ATOM     16  C   UNL     1      -7.536 -11.612  16.443  0.00  0.00    +0.207 C 
ENDROOT
BRANCH  13   6
ATOM      6  N   UNL     1      -3.007 -11.033  15.369  0.00  0.00    -0.212 N 
ATOM      7  N   UNL     1      -2.185 -10.291  16.119  0.00  0.00    -0.043 NA
ATOM      8  N   UNL     1      -1.454 -10.374  14.015  0.00  0.00    -0.101 NA
ATOM      9  N   UNL     1      -1.234  -9.890  15.284  0.00  0.00    -0.022 NA
ATOM     17  C   UNL     1      -2.557 -11.080  14.091  0.00  0.00    +0.214 A 
BRANCH  17   1
ATOM      1  S   UNL     1      -3.344 -11.938  12.825  0.00  0.00    -0.049 S 
BRANCH   1  20
ATOM     20  C   UNL     1      -3.834 -10.558  11.789  0.00  0.00    +0.016 A 
ATOM     24  C   UNL     1      -2.992 -10.133  10.770  0.00  0.00    +0.015 A 
ATOM     25  C   UNL     1      -5.053  -9.929  12.016  0.00  0.00    +0.015 A 
ATOM     30  C   UNL     1      -3.374  -9.060   9.964  0.00  0.00    +0.001 A 
ATOM     31  C   UNL     1      -5.433  -8.857  11.209  0.00  0.00    +0.001 A 
ATOM     34  C   UNL     1      -4.594  -8.422  10.183  0.00  0.00    +0.000 A 
ENDBRANCH   1  20
ENDBRANCH  17   1
ENDBRANCH  13   6
BRANCH  14   4
ATOM      4  O   UNL     1      -7.841  -9.717  17.924  0.00  0.00    -0.442 OA
BRANCH   4  18
ATOM      5  O   UNL     1     -10.047  -9.590  17.333  0.00  0.00    -0.226 OA
ATOM     10  N   UNL     1      -9.372 -10.519  19.373  0.00  0.00    -0.251 N 
ATOM     18  C   UNL     1      -9.188  -9.917  18.144  0.00  0.00    +0.405 C 
ATOM     35  H   UNL     1      -8.514 -10.702  19.880  0.00  0.00    +0.158 HD
BRANCH  10  19
ATOM     19  C   UNL     1     -10.590 -10.897  19.983  0.00  0.00    +0.044 A 
ATOM     21  C   UNL     1     -10.794 -12.197  20.452  0.00  0.00    +0.003 A 
ATOM     22  C   UNL     1     -11.572  -9.921  20.092  0.00  0.00    +0.024 A 
ATOM     23  C   UNL     1     -12.034 -12.519  21.054  0.00  0.00    -0.016 A 
ATOM     26  C   UNL     1      -9.806 -13.190  20.345  0.00  0.00    +0.010 A 
ATOM     27  C   UNL     1     -12.791 -10.237  20.684  0.00  0.00    +0.002 A 
ATOM     28  C   UNL     1     -13.023 -11.527  21.162  0.00  0.00    +0.008 A 
ATOM     29  C   UNL     1     -12.250 -13.822  21.530  0.00  0.00    +0.008 A 
ATOM     32  C   UNL     1     -10.038 -14.480  20.823  0.00  0.00    +0.001 A 
ATOM     33  C   UNL     1     -11.257 -14.796  21.414  0.00  0.00    +0.001 A 
ENDBRANCH  10  19
ENDBRANCH   4  18
ENDBRANCH  14   4
TORSDOF 6
ENDMDL
MODEL 10
REMARK VINA RESULT:      -7.7     16.143     17.685
REMARK  Name = 11886000
REMARK  6 active torsions:
REMARK  status: ('A' for Active; 'I' for Inactive)
REMARK    1  A    between atoms: S_1  and  C_17
REMARK    2  A    between atoms: S_1  and  C_20
REMARK    3  A    between atoms: O_4  and  C_14
REMARK    4  A    between atoms: O_4  and  C_18
REMARK    5  A    between atoms: N_6  and  C_13
REMARK    6  A    between atoms: N_10  and  C_19
REMARK                            x       y       z     vdW  Elec       q    Type
REMARK                         _______ _______ _______ _____ _____    ______ ____
ROOT
ATOM      2  O   UNL     1     -11.218  -6.734  16.678  0.00  0.00    -0.368 OA
ATOM      3  O   UNL     1     -10.648  -8.545  14.238  0.00  0.00    -0.368 OA
ATOM     11  C   UNL     1     -11.865  -7.949  14.742  0.00  0.00    +0.177 C 
ATOM     12  C   UNL     1     -11.776  -7.987  16.255  0.00  0.00    +0.192 C 
ATOM     13  C   UNL     1     -11.888  -6.473  14.399  0.00  0.00    +0.168 C 
ATOM     14  C   UNL     1     -10.827  -9.135  16.504  0.00  0.00    +0.235 C 
ATOM     15  C   UNL     1     -11.114  -5.847  15.555  0.00  0.00    +0.190 C 
ATOM     16  C   UNL     1      -9.865  -9.007  15.347  0.00  0.00    +0.207 C 
ENDROOT
BRANCH  13   6
ATOM      6  N   UNL     1     -13.247  -5.963  14.205  0.00  0.00    -0.212 N 
ATOM      7  N   UNL     1     -14.285  -6.585  14.776  0.00  0.00    -0.043 NA
ATOM      8  N   UNL     1     -14.982  -4.820  13.606  0.00  0.00    -0.101 NA
ATOM      9  N   UNL     1     -15.347  -5.879  14.405  0.00  0.00    -0.022 NA
ATOM     17  C   UNL     1     -13.676  -4.892  13.496  0.00  0.00    +0.214 A 
BRANCH  17   1
ATOM      1  S   UNL     1     -12.637  -3.838  12.620  0.00  0.00    -0.049 S 
BRANCH   1  20
ATOM     20  C   UNL     1     -12.802  -4.551  10.982  0.00  0.00    +0.016 A 
ATOM     24  C   UNL     1     -13.631  -3.943  10.049  0.00  0.00    +0.015 A 
ATOM     25  C   UNL     1     -12.096  -5.705  10.663  0.00  0.00    +0.015 A 
ATOM     30  C   UNL     1     -13.758  -4.497   8.775  0.00  0.00    +0.001 A 
ATOM     31  C   UNL     1     -12.224  -6.259   9.388  0.00  0.00    +0.001 A 
ATOM     34  C   UNL     1     -13.055  -5.655   8.445  0.00  0.00    +0.000 A 
ENDBRANCH   1  20
ENDBRANCH  17   1
ENDBRANCH  13   6
BRANCH  14   4
ATOM      4  O   UNL     1     -10.172  -9.063  17.751  0.00  0.00    -0.442 OA
BRANCH   4  18
ATOM      5  O   UNL     1      -9.623 -11.236  18.207  0.00  0.00    -0.226 OA
ATOM     10  N   UNL     1      -8.002  -9.550  18.118  0.00  0.00    -0.251 N 
ATOM     18  C   UNL     1      -9.278 -10.072  18.046  0.00  0.00    +0.405 C 
ATOM     35  H   UNL     1      -7.948  -8.553  17.947  0.00  0.00    +0.158 HD
BRANCH  10  19
ATOM     19  C   UNL     1      -6.796 -10.236  18.396  0.00  0.00    +0.044 A 
ATOM     21  C   UNL     1      -5.832 -10.439  17.406  0.00  0.00    +0.003 A 
ATOM     22  C   UNL     1      -6.618 -10.700  19.693  0.00  0.00    +0.024 A 
ATOM     23  C   UNL     1      -4.645 -11.133  17.742  0.00  0.00    -0.016 A 
ATOM     26  C   UNL     1      -6.006  -9.973  16.092  0.00  0.00    +0.010 A 
ATOM     27  C   UNL     1      -5.451 -11.382  20.023  0.00  0.00    +0.002 A 
ATOM     28  C   UNL     1      -4.470 -11.598  19.055  0.00  0.00    +0.008 A 
ATOM     29  C   UNL     1      -3.668 -11.341  16.755  0.00  0.00    +0.008 A 
ATOM     32  C   UNL     1      -5.025 -10.190  15.124  0.00  0.00    +0.001 A 
ATOM     33  C   UNL     1      -3.858 -10.872  15.455  0.00  0.00    +0.001 A 
ENDBRANCH  10  19
ENDBRANCH   4  18
ENDBRANCH  14   4
TORSDOF 6
ENDMDL
