REMARK  Name = 26744820
REMARK  7 active torsions:
REMARK  status: ('A' for Active; 'I' for Inactive)
REMARK    1  A    between atoms: O_5  and  C_33
REMARK    2  A    between atoms: O_5  and  C_34
REMARK    3  A    between atoms: N_6  and  C_17
REMARK    4  A    between atoms: C_12  and  C_18
REMARK    5  A    between atoms: C_17  and  C_19
REMARK    6  A    between atoms: C_23  and  C_26
REMARK    7  A    between atoms: C_24  and  C_32
REMARK                            x       y       z     vdW  Elec       q    Type
REMARK                         _______ _______ _______ _____ _____    ______ ____
ROOT
ATOM      6  N   UNL     1       2.992   0.462   0.361  0.00  0.00    -0.281 NA
ATOM      7  N   UNL     1       5.690   2.246  -1.538  0.00  0.00    -0.347 N 
ATOM      8  N   UNL     1       4.142   3.828  -1.852  0.00  0.00    -0.240 NA
ATOM     12  C   UNL     1       2.280   1.731   0.740  0.00  0.00    +0.152 C 
ATOM     13  C   UNL     1       2.329   2.810  -0.399  0.00  0.00    +0.086 C 
ATOM     14  C   UNL     1       4.436   0.692   0.061  0.00  0.00    +0.140 C 
ATOM     15  C   UNL     1       4.603   1.874  -0.808  0.00  0.00    +0.053 A 
ATOM     16  C   UNL     1       3.673   2.860  -1.010  0.00  0.00    +0.065 A 
ATOM     20  C   UNL     1       5.364   3.431  -2.150  0.00  0.00    +0.197 A 
ATOM     35  H   UNL     1       6.570   1.753  -1.614  0.00  0.00    +0.167 HD
ENDROOT
BRANCH  12  18
ATOM      4  O   UNL     1       0.473   1.885   2.393  0.00  0.00    -0.336 OA
ATOM      9  N   UNL     1      -0.171   1.051   0.416  0.00  0.00    -0.190 NA
ATOM     10  N   UNL     1      -0.895   1.609   2.513  0.00  0.00    -0.056 NA
ATOM     18  C   UNL     1       0.819   1.528   1.128  0.00  0.00    +0.245 A 
ATOM     23  C   UNL     1      -1.201   1.121   1.308  0.00  0.00    +0.202 A 
BRANCH  23  26
ATOM     26  C   UNL     1      -2.527   0.696   0.961  0.00  0.00    +0.023 A 
ATOM     28  C   UNL     1      -2.788   0.195  -0.314  0.00  0.00    +0.015 A 
ATOM     29  C   UNL     1      -3.554   0.784   1.900  0.00  0.00    +0.015 A 
ATOM     30  C   UNL     1      -4.078  -0.217  -0.650  0.00  0.00    +0.046 A 
ATOM     31  C   UNL     1      -4.844   0.371   1.564  0.00  0.00    +0.046 A 
ATOM     33  C   UNL     1      -5.105  -0.129   0.289  0.00  0.00    +0.130 A 
BRANCH  33   5
ATOM      5  O   UNL     1      -6.364  -0.531  -0.039  0.00  0.00    -0.406 OA
BRANCH   5  34
ATOM      1  F   UNL     1      -8.350   0.131  -0.882  0.00  0.00    -0.133 F 
ATOM      2  F   UNL     1      -6.607   1.399  -1.241  0.00  0.00    -0.133 F 
ATOM      3  F   UNL     1      -6.811  -0.539  -2.282  0.00  0.00    -0.133 F 
ATOM     34  C   UNL     1      -7.019   0.119  -1.122  0.00  0.00    +0.575 C 
ENDBRANCH   5  34
ENDBRANCH  33   5
ENDBRANCH  23  26
ENDBRANCH  12  18
BRANCH   6  17
ATOM     17  C   UNL     1       2.901  -0.564   1.408  0.00  0.00    +0.120 C 
BRANCH  17  19
ATOM     19  C   UNL     1       3.064  -1.952   0.848  0.00  0.00    -0.032 A 
ATOM     21  C   UNL     1       2.013  -2.554   0.156  0.00  0.00    +0.023 A 
ATOM     22  C   UNL     1       4.269  -2.635   1.019  0.00  0.00    +0.005 A 
ATOM     24  C   UNL     1       2.167  -3.839  -0.365  0.00  0.00    +0.052 A 
ATOM     25  C   UNL     1       4.422  -3.920   0.498  0.00  0.00    +0.002 A 
ATOM     27  C   UNL     1       3.371  -4.522  -0.194  0.00  0.00    +0.019 A 
BRANCH  24  32
ATOM     11  N   UNL     1       0.215  -4.961  -1.644  0.00  0.00    -0.191 NA
ATOM     32  C   UNL     1       1.090  -4.458  -1.071  0.00  0.00    +0.099 C 
ENDBRANCH  24  32
ENDBRANCH  17  19
ENDBRANCH   6  17
TORSDOF 7
