MODEL 1
REMARK VINA RESULT:      -7.0      0.000      0.000
REMARK  Name = 38028312
REMARK  11 active torsions:
REMARK  status: ('A' for Active; 'I' for Inactive)
REMARK    1  A    between atoms: N_3  and  C_15
REMARK    2  A    between atoms: N_4  and  C_22
REMARK    3  A    between atoms: C_8  and  C_12
REMARK    4  A    between atoms: C_9  and  C_15
REMARK    5  A    between atoms: C_11  and  C_16
REMARK    6  A    between atoms: C_12  and  C_17
REMARK    7  A    between atoms: C_12  and  C_18
REMARK    8  A    between atoms: C_13  and  C_19
REMARK    9  A    between atoms: C_16  and  C_20
REMARK   10  A    between atoms: C_21  and  C_23
REMARK   11  A    between atoms: C_22  and  C_24
REMARK                            x       y       z     vdW  Elec       q    Type
REMARK                         _______ _______ _______ _____ _____    ______ ____
ROOT
ATOM      8  C   UNL     1      17.900   8.060  21.120  0.00  0.00    +0.000 C 
ATOM      9  C   UNL     1      17.456   7.033  20.047  0.00  0.00    +0.032 C 
ATOM     10  C   UNL     1      19.427   8.223  21.106  0.00  0.00    +0.012 C 
ATOM     11  C   UNL     1      20.157   6.892  21.372  0.00  0.00    +0.023 C 
ATOM     13  C   UNL     1      19.590   5.762  20.538  0.00  0.00    -0.073 C 
ATOM     14  C   UNL     1      18.387   5.849  19.942  0.00  0.00    -0.022 C 
ATOM     19  C   UNL     1      20.457   4.546  20.366  0.00  0.00    +0.039 C 
ENDROOT
BRANCH   8  12
ATOM     12  C   UNL     1      17.232   9.423  20.913  0.00  0.00    -0.013 C 
ATOM     17  C   UNL     1      18.270  10.538  20.962  0.00  0.00    +0.007 C 
ATOM     18  C   UNL     1      16.145   9.647  21.960  0.00  0.00    +0.007 C 
ENDBRANCH   8  12
BRANCH   9  15
ATOM     15  C   UNL     1      16.029   6.540  20.310  0.00  0.00    +0.112 C 
BRANCH  15   3
ATOM      2  O   UNL     1      13.226   7.030  20.690  0.00  0.00    -0.268 OA
ATOM      3  N   UNL     1      15.120   7.084  19.350  0.00  0.00    -0.309 N 
ATOM     21  C   UNL     1      13.766   7.290  19.619  0.00  0.00    +0.264 C 
ATOM     32  H   UNL     1      15.483   7.369  18.445  0.00  0.00    +0.149 HD
BRANCH  21  23
ATOM      5  N   UNL     1      11.632   8.004  18.750  0.00  0.00    -0.247 NA
ATOM      7  N   UNL     1      12.779   8.649  16.272  0.00  0.00    -0.259 NA
ATOM     23  C   UNL     1      12.948   7.838  18.507  0.00  0.00    +0.143 A 
ATOM     25  C   UNL     1      13.511   8.154  17.290  0.00  0.00    +0.143 A 
ATOM     27  C   UNL     1      10.900   8.499  17.732  0.00  0.00    +0.131 A 
ATOM     29  C   UNL     1      11.463   8.816  16.516  0.00  0.00    +0.130 A 
ENDBRANCH  21  23
ENDBRANCH  15   3
ENDBRANCH   9  15
BRANCH  11  16
ATOM     16  C   UNL     1      20.133   6.538  22.864  0.00  0.00    +0.103 C 
BRANCH  16  20
ATOM      1  O   UNL     1      21.628   5.489  24.451  0.00  0.00    -0.276 OA
ATOM      4  N   UNL     1      22.416   6.061  22.341  0.00  0.00    -0.310 N 
ATOM     20  C   UNL     1      21.452   5.967  23.334  0.00  0.00    +0.214 C 
ATOM     33  H   UNL     1      22.175   6.473  21.445  0.00  0.00    +0.149 HD
BRANCH   4  22
ATOM     22  C   UNL     1      23.774   5.594  22.514  0.00  0.00    +0.159 C 
BRANCH  22  24
ATOM      6  N   UNL     1      23.727   3.191  22.864  0.00  0.00    -0.258 NA
ATOM     24  C   UNL     1      23.957   4.198  21.993  0.00  0.00    +0.058 A 
ATOM     26  C   UNL     1      24.345   4.011  20.675  0.00  0.00    +0.025 A 
ATOM     28  C   UNL     1      24.506   2.706  20.224  0.00  0.00    +0.003 A 
ATOM     30  C   UNL     1      23.894   1.936  22.390  0.00  0.00    +0.111 A 
ATOM     31  C   UNL     1      24.277   1.642  21.091  0.00  0.00    +0.020 A 
ENDBRANCH  22  24
ENDBRANCH   4  22
ENDBRANCH  16  20
ENDBRANCH  11  16
TORSDOF 8
ENDMDL
MODEL 2
REMARK VINA RESULT:      -6.9     27.773     31.430
REMARK  Name = 38028312
REMARK  11 active torsions:
REMARK  status: ('A' for Active; 'I' for Inactive)
REMARK    1  A    between atoms: N_3  and  C_15
REMARK    2  A    between atoms: N_4  and  C_22
REMARK    3  A    between atoms: C_8  and  C_12
REMARK    4  A    between atoms: C_9  and  C_15
REMARK    5  A    between atoms: C_11  and  C_16
REMARK    6  A    between atoms: C_12  and  C_17
REMARK    7  A    between atoms: C_12  and  C_18
REMARK    8  A    between atoms: C_13  and  C_19
REMARK    9  A    between atoms: C_16  and  C_20
REMARK   10  A    between atoms: C_21  and  C_23
REMARK   11  A    between atoms: C_22  and  C_24
REMARK                            x       y       z     vdW  Elec       q    Type
REMARK                         _______ _______ _______ _____ _____    ______ ____
ROOT
ATOM      8  C   UNL     1      -3.034 -12.257  12.615  0.00  0.00    +0.000 C 
ATOM      9  C   UNL     1      -1.995 -11.111  12.513  0.00  0.00    +0.032 C 
ATOM     10  C   UNL     1      -3.573 -12.616  11.223  0.00  0.00    +0.012 C 
ATOM     11  C   UNL     1      -4.240 -11.413  10.529  0.00  0.00    +0.023 C 
ATOM     13  C   UNL     1      -3.387 -10.165  10.622  0.00  0.00    -0.073 C 
ATOM     14  C   UNL     1      -2.380 -10.053  11.506  0.00  0.00    -0.022 C 
ATOM     19  C   UNL     1      -3.689  -9.064   9.644  0.00  0.00    +0.039 C 
ENDROOT
BRANCH   8  12
ATOM     12  C   UNL     1      -2.441 -13.504  13.279  0.00  0.00    -0.013 C 
ATOM     17  C   UNL     1      -2.306 -14.634  12.264  0.00  0.00    +0.007 C 
ATOM     18  C   UNL     1      -3.301 -13.937  14.462  0.00  0.00    +0.007 C 
ENDBRANCH   8  12
BRANCH   9  15
ATOM     15  C   UNL     1      -1.760 -10.455  13.879  0.00  0.00    +0.112 C 
BRANCH  15   3
ATOM      2  O   UNL     1      -2.232 -10.993  16.659  0.00  0.00    -0.268 OA
ATOM      3  N   UNL     1      -2.994 -10.292  14.582  0.00  0.00    -0.309 N 
ATOM     21  C   UNL     1      -3.136 -10.579  15.940  0.00  0.00    +0.264 C 
ATOM     32  H   UNL     1      -3.793  -9.915  14.080  0.00  0.00    +0.149 HD
BRANCH  21  23
ATOM      5  N   UNL     1      -5.428  -9.865  15.698  0.00  0.00    -0.247 NA
ATOM      7  N   UNL     1      -5.992 -10.535  18.363  0.00  0.00    -0.259 NA
ATOM     23  C   UNL     1      -4.491 -10.383  16.518  0.00  0.00    +0.143 A 
ATOM     25  C   UNL     1      -4.768 -10.711  17.826  0.00  0.00    +0.143 A 
ATOM     27  C   UNL     1      -6.652  -9.689  16.234  0.00  0.00    +0.131 A 
ATOM     29  C   UNL     1      -6.929 -10.018  17.543  0.00  0.00    +0.130 A 
ENDBRANCH  21  23
ENDBRANCH  15   3
ENDBRANCH   9  15
BRANCH  11  16
ATOM     16  C   UNL     1      -5.644 -11.161  11.090  0.00  0.00    +0.103 C 
BRANCH  16  20
ATOM      1  O   UNL     1      -6.889 -12.194   9.290  0.00  0.00    -0.276 OA
ATOM      4  N   UNL     1      -7.426 -10.036   9.961  0.00  0.00    -0.310 N 
ATOM     20  C   UNL     1      -6.705 -11.219  10.014  0.00  0.00    +0.214 C 
ATOM     33  H   UNL     1      -7.200  -9.283  10.604  0.00  0.00    +0.149 HD
BRANCH   4  22
ATOM     22  C   UNL     1      -8.503  -9.809   9.024  0.00  0.00    +0.159 C 
BRANCH  22  24
ATOM      6  N   UNL     1      -9.967  -7.876   9.182  0.00  0.00    -0.258 NA
ATOM     24  C   UNL     1      -8.756  -8.345   8.805  0.00  0.00    +0.058 A 
ATOM     26  C   UNL     1      -7.763  -7.562   8.240  0.00  0.00    +0.025 A 
ATOM     28  C   UNL     1      -8.029  -6.210   8.050  0.00  0.00    +0.003 A 
ATOM     30  C   UNL     1     -10.190  -6.558   8.982  0.00  0.00    +0.111 A 
ATOM     31  C   UNL     1      -9.263  -5.690   8.427  0.00  0.00    +0.020 A 
ENDBRANCH  22  24
ENDBRANCH   4  22
ENDBRANCH  16  20
ENDBRANCH  11  16
TORSDOF 8
ENDMDL
MODEL 3
REMARK VINA RESULT:      -6.9     15.395     18.764
REMARK  Name = 38028312
REMARK  11 active torsions:
REMARK  status: ('A' for Active; 'I' for Inactive)
REMARK    1  A    between atoms: N_3  and  C_15
REMARK    2  A    between atoms: N_4  and  C_22
REMARK    3  A    between atoms: C_8  and  C_12
REMARK    4  A    between atoms: C_9  and  C_15
REMARK    5  A    between atoms: C_11  and  C_16
REMARK    6  A    between atoms: C_12  and  C_17
REMARK    7  A    between atoms: C_12  and  C_18
REMARK    8  A    between atoms: C_13  and  C_19
REMARK    9  A    between atoms: C_16  and  C_20
REMARK   10  A    between atoms: C_21  and  C_23
REMARK   11  A    between atoms: C_22  and  C_24
REMARK                            x       y       z     vdW  Elec       q    Type
REMARK                         _______ _______ _______ _____ _____    ______ ____
ROOT
ATOM      8  C   UNL     1       8.873   8.398   5.288  0.00  0.00    +0.000 C 
ATOM      9  C   UNL     1       8.822   7.835   6.731  0.00  0.00    +0.032 C 
ATOM     10  C   UNL     1       8.361   7.352   4.286  0.00  0.00    +0.012 C 
ATOM     11  C   UNL     1       9.184   6.051   4.332  0.00  0.00    +0.023 C 
ATOM     13  C   UNL     1       9.408   5.575   5.752  0.00  0.00    -0.073 C 
ATOM     14  C   UNL     1       9.228   6.383   6.812  0.00  0.00    -0.022 C 
ATOM     19  C   UNL     1       9.798   4.134   5.930  0.00  0.00    +0.039 C 
ENDROOT
BRANCH   8  12
ATOM     12  C   UNL     1       8.057   9.688   5.151  0.00  0.00    -0.013 C 
ATOM     17  C   UNL     1       7.037   9.557   4.026  0.00  0.00    +0.007 C 
ATOM     18  C   UNL     1       8.980  10.878   4.911  0.00  0.00    +0.007 C 
ENDBRANCH   8  12
BRANCH   9  15
ATOM     15  C   UNL     1       9.697   8.664   7.678  0.00  0.00    +0.112 C 
BRANCH  15   3
ATOM      2  O   UNL     1      11.607  10.792   7.420  0.00  0.00    -0.268 OA
ATOM      3  N   UNL     1      11.079   8.534   7.338  0.00  0.00    -0.309 N 
ATOM     21  C   UNL     1      11.941   9.625   7.234  0.00  0.00    +0.264 C 
ATOM     32  H   UNL     1      11.459   7.601   7.203  0.00  0.00    +0.149 HD
BRANCH  21  23
ATOM      5  N   UNL     1      13.671   8.022   6.727  0.00  0.00    -0.247 NA
ATOM      7  N   UNL     1      15.533  10.070   6.271  0.00  0.00    -0.259 NA
ATOM     23  C   UNL     1      13.343   9.325   6.845  0.00  0.00    +0.143 A 
ATOM     25  C   UNL     1      14.257  10.330   6.621  0.00  0.00    +0.143 A 
ATOM     27  C   UNL     1      14.946   7.762   6.376  0.00  0.00    +0.131 A 
ATOM     29  C   UNL     1      15.860   8.767   6.152  0.00  0.00    +0.130 A 
ENDBRANCH  21  23
ENDBRANCH  15   3
ENDBRANCH   9  15
BRANCH  11  16
ATOM     16  C   UNL     1      10.517   6.215   3.593  0.00  0.00    +0.103 C 
BRANCH  16  20
ATOM      1  O   UNL     1      10.069   5.173   1.455  0.00  0.00    -0.276 OA
ATOM      4  N   UNL     1      11.658   4.242   2.872  0.00  0.00    -0.310 N 
ATOM     20  C   UNL     1      10.699   5.176   2.510  0.00  0.00    +0.214 C 
ATOM     33  H   UNL     1      12.127   4.327   3.768  0.00  0.00    +0.149 HD
BRANCH   4  22
ATOM     22  C   UNL     1      12.036   3.130   2.028  0.00  0.00    +0.159 C 
BRANCH  22  24
ATOM      6  N   UNL     1      14.440   3.349   1.759  0.00  0.00    -0.258 NA
ATOM     24  C   UNL     1      13.227   3.455   1.173  0.00  0.00    +0.058 A 
ATOM     26  C   UNL     1      13.032   3.840  -0.144  0.00  0.00    +0.025 A 
ATOM     28  C   UNL     1      14.156   4.134  -0.908  0.00  0.00    +0.003 A 
ATOM     30  C   UNL     1      15.509   3.643   0.985  0.00  0.00    +0.111 A 
ATOM     31  C   UNL     1      15.422   4.035  -0.341  0.00  0.00    +0.020 A 
ENDBRANCH  22  24
ENDBRANCH   4  22
ENDBRANCH  16  20
ENDBRANCH  11  16
TORSDOF 8
ENDMDL
MODEL 4
REMARK VINA RESULT:      -6.8     27.840     30.932
REMARK  Name = 38028312
REMARK  11 active torsions:
REMARK  status: ('A' for Active; 'I' for Inactive)
REMARK    1  A    between atoms: N_3  and  C_15
REMARK    2  A    between atoms: N_4  and  C_22
REMARK    3  A    between atoms: C_8  and  C_12
REMARK    4  A    between atoms: C_9  and  C_15
REMARK    5  A    between atoms: C_11  and  C_16
REMARK    6  A    between atoms: C_12  and  C_17
REMARK    7  A    between atoms: C_12  and  C_18
REMARK    8  A    between atoms: C_13  and  C_19
REMARK    9  A    between atoms: C_16  and  C_20
REMARK   10  A    between atoms: C_21  and  C_23
REMARK   11  A    between atoms: C_22  and  C_24
REMARK                            x       y       z     vdW  Elec       q    Type
REMARK                         _______ _______ _______ _____ _____    ______ ____
ROOT
ATOM      8  C   UNL     1      -6.152 -10.489  15.660  0.00  0.00    +0.000 C 
ATOM      9  C   UNL     1      -6.831 -10.663  17.042  0.00  0.00    +0.032 C 
ATOM     10  C   UNL     1      -5.122 -11.604  15.424  0.00  0.00    +0.012 C 
ATOM     11  C   UNL     1      -4.027 -11.623  16.508  0.00  0.00    +0.023 C 
ATOM     13  C   UNL     1      -4.611 -11.525  17.902  0.00  0.00    -0.073 C 
ATOM     14  C   UNL     1      -5.871 -11.106  18.120  0.00  0.00    -0.022 C 
ATOM     19  C   UNL     1      -3.730 -11.963  19.038  0.00  0.00    +0.039 C 
ENDROOT
BRANCH   8  12
ATOM     12  C   UNL     1      -7.176 -10.481  14.520  0.00  0.00    -0.013 C 
ATOM     17  C   UNL     1      -8.076 -11.709  14.604  0.00  0.00    +0.007 C 
ATOM     18  C   UNL     1      -6.469 -10.419  13.170  0.00  0.00    +0.007 C 
ENDBRANCH   8  12
BRANCH   9  15
ATOM     15  C   UNL     1      -7.531  -9.371  17.480  0.00  0.00    +0.112 C 
BRANCH  15   3
ATOM      2  O   UNL     1      -9.915  -7.919  16.808  0.00  0.00    -0.268 OA
ATOM      3  N   UNL     1      -8.856  -9.645  17.943  0.00  0.00    -0.309 N 
ATOM     21  C   UNL     1      -9.963  -8.885  17.564  0.00  0.00    +0.264 C 
ATOM     32  H   UNL     1      -9.004 -10.451  18.543  0.00  0.00    +0.149 HD
BRANCH  21  23
ATOM      5  N   UNL     1     -11.233  -9.833  19.383  0.00  0.00    -0.247 NA
ATOM      7  N   UNL     1     -13.640  -9.453  17.994  0.00  0.00    -0.259 NA
ATOM     23  C   UNL     1     -11.268  -9.281  18.154  0.00  0.00    +0.143 A 
ATOM     25  C   UNL     1     -12.450  -9.095  17.471  0.00  0.00    +0.143 A 
ATOM     27  C   UNL     1     -12.423 -10.191  19.906  0.00  0.00    +0.131 A 
ATOM     29  C   UNL     1     -13.604 -10.004  19.224  0.00  0.00    +0.130 A 
ENDBRANCH  21  23
ENDBRANCH  15   3
ENDBRANCH   9  15
BRANCH  11  16
ATOM     16  C   UNL     1      -2.994 -10.516  16.268  0.00  0.00    +0.103 C 
BRANCH  16  20
ATOM      1  O   UNL     1      -1.079 -11.587  15.249  0.00  0.00    -0.276 OA
ATOM      4  N   UNL     1      -2.445 -10.219  13.960  0.00  0.00    -0.310 N 
ATOM     20  C   UNL     1      -2.055 -10.851  15.131  0.00  0.00    +0.214 C 
ATOM     33  H   UNL     1      -3.270  -9.628  13.961  0.00  0.00    +0.149 HD
BRANCH   4  22
ATOM     22  C   UNL     1      -1.729 -10.358  12.712  0.00  0.00    +0.159 C 
BRANCH  22  24
ATOM      6  N   UNL     1      -3.248 -11.722  11.397  0.00  0.00    -0.258 NA
ATOM     24  C   UNL     1      -2.661 -10.514  11.545  0.00  0.00    +0.058 A 
ATOM     26  C   UNL     1      -2.871  -9.439  10.696  0.00  0.00    +0.025 A 
ATOM     28  C   UNL     1      -3.740  -9.617   9.625  0.00  0.00    +0.003 A 
ATOM     30  C   UNL     1      -4.087 -11.858  10.345  0.00  0.00    +0.111 A 
ATOM     31  C   UNL     1      -4.365 -10.846   9.439  0.00  0.00    +0.020 A 
ENDBRANCH  22  24
ENDBRANCH   4  22
ENDBRANCH  16  20
ENDBRANCH  11  16
TORSDOF 8
ENDMDL
MODEL 5
REMARK VINA RESULT:      -6.7      3.510      5.620
REMARK  Name = 38028312
REMARK  11 active torsions:
REMARK  status: ('A' for Active; 'I' for Inactive)
REMARK    1  A    between atoms: N_3  and  C_15
REMARK    2  A    between atoms: N_4  and  C_22
REMARK    3  A    between atoms: C_8  and  C_12
REMARK    4  A    between atoms: C_9  and  C_15
REMARK    5  A    between atoms: C_11  and  C_16
REMARK    6  A    between atoms: C_12  and  C_17
REMARK    7  A    between atoms: C_12  and  C_18
REMARK    8  A    between atoms: C_13  and  C_19
REMARK    9  A    between atoms: C_16  and  C_20
REMARK   10  A    between atoms: C_21  and  C_23
REMARK   11  A    between atoms: C_22  and  C_24
REMARK                            x       y       z     vdW  Elec       q    Type
REMARK                         _______ _______ _______ _____ _____    ______ ____
ROOT
ATOM      8  C   UNL     1      13.670   9.588  19.288  0.00  0.00    +0.000 C 
ATOM      9  C   UNL     1      12.975   8.203  19.321  0.00  0.00    +0.032 C 
ATOM     10  C   UNL     1      15.186   9.423  19.102  0.00  0.00    +0.012 C 
ATOM     11  C   UNL     1      15.822   8.584  20.227  0.00  0.00    +0.023 C 
ATOM     13  C   UNL     1      15.033   7.321  20.504  0.00  0.00    -0.073 C 
ATOM     14  C   UNL     1      13.767   7.163  20.079  0.00  0.00    -0.022 C 
ATOM     19  C   UNL     1      15.749   6.223  21.240  0.00  0.00    +0.039 C 
ENDROOT
BRANCH   8  12
ATOM     12  C   UNL     1      13.107  10.480  18.177  0.00  0.00    -0.013 C 
ATOM     17  C   UNL     1      13.320   9.833  16.814  0.00  0.00    +0.007 C 
ATOM     18  C   UNL     1      13.750  11.862  18.228  0.00  0.00    +0.007 C 
ENDBRANCH   8  12
BRANCH   9  15
ATOM     15  C   UNL     1      11.566   8.306  19.914  0.00  0.00    +0.112 C 
BRANCH  15   3
ATOM      2  O   UNL     1      10.840   8.343  22.692  0.00  0.00    -0.268 OA
ATOM      3  N   UNL     1      11.451   9.459  20.751  0.00  0.00    -0.309 N 
ATOM     21  C   UNL     1      11.091   9.387  22.097  0.00  0.00    +0.264 C 
ATOM     32  H   UNL     1      11.679  10.368  20.358  0.00  0.00    +0.149 HD
BRANCH  21  23
ATOM      5  N   UNL     1      11.017  11.799  22.071  0.00  0.00    -0.247 NA
ATOM      7  N   UNL     1      10.786  11.892  24.865  0.00  0.00    -0.259 NA
ATOM     23  C   UNL     1      10.989  10.680  22.823  0.00  0.00    +0.143 A 
ATOM     25  C   UNL     1      10.876  10.726  24.194  0.00  0.00    +0.143 A 
ATOM     27  C   UNL     1      10.927  12.965  22.741  0.00  0.00    +0.131 A 
ATOM     29  C   UNL     1      10.813  13.010  24.113  0.00  0.00    +0.130 A 
ENDBRANCH  21  23
ENDBRANCH  15   3
ENDBRANCH   9  15
BRANCH  11  16
ATOM     16  C   UNL     1      15.994   9.414  21.504  0.00  0.00    +0.103 C 
BRANCH  16  20
ATOM      1  O   UNL     1      17.835  10.983  21.551  0.00  0.00    -0.276 OA
ATOM      4  N   UNL     1      18.209   8.762  22.122  0.00  0.00    -0.310 N 
ATOM     20  C   UNL     1      17.430   9.836  21.719  0.00  0.00    +0.214 C 
ATOM     33  H   UNL     1      17.783   7.848  22.235  0.00  0.00    +0.149 HD
BRANCH   4  22
ATOM     22  C   UNL     1      19.624   8.873  22.399  0.00  0.00    +0.159 C 
BRANCH  22  24
ATOM      6  N   UNL     1      20.588   7.308  20.811  0.00  0.00    -0.258 NA
ATOM     24  C   UNL     1      20.354   7.593  22.111  0.00  0.00    +0.058 A 
ATOM     26  C   UNL     1      20.743   6.782  23.166  0.00  0.00    +0.025 A 
ATOM     28  C   UNL     1      21.418   5.604  22.865  0.00  0.00    +0.003 A 
ATOM     30  C   UNL     1      21.245   6.155  20.557  0.00  0.00    +0.111 A 
ATOM     31  C   UNL     1      21.678   5.277  21.538  0.00  0.00    +0.020 A 
ENDBRANCH  22  24
ENDBRANCH   4  22
ENDBRANCH  16  20
ENDBRANCH  11  16
TORSDOF 8
ENDMDL
MODEL 6
REMARK VINA RESULT:      -6.7     27.640     30.521
REMARK  Name = 38028312
REMARK  11 active torsions:
REMARK  status: ('A' for Active; 'I' for Inactive)
REMARK    1  A    between atoms: N_3  and  C_15
REMARK    2  A    between atoms: N_4  and  C_22
REMARK    3  A    between atoms: C_8  and  C_12
REMARK    4  A    between atoms: C_9  and  C_15
REMARK    5  A    between atoms: C_11  and  C_16
REMARK    6  A    between atoms: C_12  and  C_17
REMARK    7  A    between atoms: C_12  and  C_18
REMARK    8  A    between atoms: C_13  and  C_19
REMARK    9  A    between atoms: C_16  and  C_20
REMARK   10  A    between atoms: C_21  and  C_23
REMARK   11  A    between atoms: C_22  and  C_24
REMARK                            x       y       z     vdW  Elec       q    Type
REMARK                         _______ _______ _______ _____ _____    ______ ____
ROOT
ATOM      8  C   UNL     1      -5.737 -10.552  15.179  0.00  0.00    +0.000 C 
ATOM      9  C   UNL     1      -6.606 -10.547  16.463  0.00  0.00    +0.032 C 
ATOM     10  C   UNL     1      -4.792 -11.762  15.176  0.00  0.00    +0.012 C 
ATOM     11  C   UNL     1      -3.855 -11.773  16.399  0.00  0.00    +0.023 C 
ATOM     13  C   UNL     1      -4.607 -11.505  17.686  0.00  0.00    -0.073 C 
ATOM     14  C   UNL     1      -5.841 -10.969  17.694  0.00  0.00    -0.022 C 
ATOM     19  C   UNL     1      -3.927 -11.910  18.965  0.00  0.00    +0.039 C 
ENDROOT
BRANCH   8  12
ATOM     12  C   UNL     1      -6.597 -10.563  13.911  0.00  0.00    -0.013 C 
ATOM     17  C   UNL     1      -6.654 -11.966  13.318  0.00  0.00    +0.007 C 
ATOM     18  C   UNL     1      -6.055  -9.566  12.892  0.00  0.00    +0.007 C 
ENDBRANCH   8  12
BRANCH   9  15
ATOM     15  C   UNL     1      -7.235  -9.170  16.698  0.00  0.00    +0.112 C 
BRANCH  15   3
ATOM      2  O   UNL     1      -9.633  -7.756  17.401  0.00  0.00    -0.268 OA
ATOM      3  N   UNL     1      -8.395  -8.995  15.880  0.00  0.00    -0.309 N 
ATOM     21  C   UNL     1      -9.522  -8.290  16.302  0.00  0.00    +0.264 C 
ATOM     32  H   UNL     1      -8.381  -9.368  14.935  0.00  0.00    +0.149 HD
BRANCH  21  23
ATOM      5  N   UNL     1     -10.745  -9.222  14.443  0.00  0.00    -0.247 NA
ATOM      7  N   UNL     1     -12.590  -7.110  14.507  0.00  0.00    -0.259 NA
ATOM     23  C   UNL     1     -10.655  -8.222  15.342  0.00  0.00    +0.143 A 
ATOM     25  C   UNL     1     -11.560  -7.184  15.374  0.00  0.00    +0.143 A 
ATOM     27  C   UNL     1     -11.775  -9.147  13.576  0.00  0.00    +0.131 A 
ATOM     29  C   UNL     1     -12.681  -8.110  13.608  0.00  0.00    +0.130 A 
ENDBRANCH  21  23
ENDBRANCH  15   3
ENDBRANCH   9  15
BRANCH  11  16
ATOM     16  C   UNL     1      -2.703 -10.778  16.220  0.00  0.00    +0.103 C 
BRANCH  16  20
ATOM      1  O   UNL     1      -1.144 -12.002  14.831  0.00  0.00    -0.276 OA
ATOM      4  N   UNL     1      -2.159 -10.086  13.997  0.00  0.00    -0.310 N 
ATOM     20  C   UNL     1      -1.908 -11.050  14.962  0.00  0.00    +0.214 C 
ATOM     33  H   UNL     1      -2.810  -9.333  14.198  0.00  0.00    +0.149 HD
BRANCH   4  22
ATOM     22  C   UNL     1      -1.534 -10.092  12.694  0.00  0.00    +0.159 C 
BRANCH  22  24
ATOM      6  N   UNL     1      -3.009 -11.660  11.569  0.00  0.00    -0.258 NA
ATOM     24  C   UNL     1      -2.518 -10.402  11.602  0.00  0.00    +0.058 A 
ATOM     26  C   UNL     1      -2.867  -9.408  10.702  0.00  0.00    +0.025 A 
ATOM     28  C   UNL     1      -3.780  -9.727   9.703  0.00  0.00    +0.003 A 
ATOM     30  C   UNL     1      -3.894 -11.934  10.584  0.00  0.00    +0.111 A 
ATOM     31  C   UNL     1      -4.309 -11.011   9.636  0.00  0.00    +0.020 A 
ENDBRANCH  22  24
ENDBRANCH   4  22
ENDBRANCH  16  20
ENDBRANCH  11  16
TORSDOF 8
ENDMDL
MODEL 7
REMARK VINA RESULT:      -6.6     27.671     30.840
REMARK  Name = 38028312
REMARK  11 active torsions:
REMARK  status: ('A' for Active; 'I' for Inactive)
REMARK    1  A    between atoms: N_3  and  C_15
REMARK    2  A    between atoms: N_4  and  C_22
REMARK    3  A    between atoms: C_8  and  C_12
REMARK    4  A    between atoms: C_9  and  C_15
REMARK    5  A    between atoms: C_11  and  C_16
REMARK    6  A    between atoms: C_12  and  C_17
REMARK    7  A    between atoms: C_12  and  C_18
REMARK    8  A    between atoms: C_13  and  C_19
REMARK    9  A    between atoms: C_16  and  C_20
REMARK   10  A    between atoms: C_21  and  C_23
REMARK   11  A    between atoms: C_22  and  C_24
REMARK                            x       y       z     vdW  Elec       q    Type
REMARK                         _______ _______ _______ _____ _____    ______ ____
ROOT
ATOM      8  C   UNL     1      -5.386 -10.512  10.516  0.00  0.00    +0.000 C 
ATOM      9  C   UNL     1      -4.743  -9.574   9.462  0.00  0.00    +0.032 C 
ATOM     10  C   UNL     1      -4.916 -10.132  11.928  0.00  0.00    +0.012 C 
ATOM     11  C   UNL     1      -3.384 -10.211  12.073  0.00  0.00    +0.023 C 
ATOM     13  C   UNL     1      -2.673  -9.535  10.919  0.00  0.00    -0.073 C 
ATOM     14  C   UNL     1      -3.301  -9.246   9.765  0.00  0.00    -0.022 C 
ATOM     19  C   UNL     1      -1.235  -9.155  11.139  0.00  0.00    +0.039 C 
ENDROOT
BRANCH   8  12
ATOM     12  C   UNL     1      -6.916 -10.475  10.452  0.00  0.00    -0.013 C 
ATOM     17  C   UNL     1      -7.417  -9.036  10.507  0.00  0.00    +0.007 C 
ATOM     18  C   UNL     1      -7.516 -11.302  11.585  0.00  0.00    +0.007 C 
ENDBRANCH   8  12
BRANCH   9  15
ATOM     15  C   UNL     1      -4.847 -10.172   8.055  0.00  0.00    +0.112 C 
BRANCH  15   3
ATOM      2  O   UNL     1      -7.279 -11.083   6.830  0.00  0.00    -0.268 OA
ATOM      3  N   UNL     1      -5.734  -9.401   7.240  0.00  0.00    -0.309 N 
ATOM     21  C   UNL     1      -6.900  -9.925   6.682  0.00  0.00    +0.264 C 
ATOM     32  H   UNL     1      -5.525  -8.417   7.093  0.00  0.00    +0.149 HD
BRANCH  21  23
ATOM      5  N   UNL     1      -8.461  -8.096   6.486  0.00  0.00    -0.247 NA
ATOM      7  N   UNL     1      -8.390  -8.243   3.686  0.00  0.00    -0.259 NA
ATOM     23  C   UNL     1      -7.701  -9.001   5.838  0.00  0.00    +0.143 A 
ATOM     25  C   UNL     1      -7.666  -9.074   4.463  0.00  0.00    +0.143 A 
ATOM     27  C   UNL     1      -9.185  -7.266   5.709  0.00  0.00    +0.131 A 
ATOM     29  C   UNL     1      -9.150  -7.338   4.334  0.00  0.00    +0.130 A 
ENDBRANCH  21  23
ENDBRANCH  15   3
ENDBRANCH   9  15
BRANCH  11  16
ATOM     16  C   UNL     1      -2.919 -11.663  12.229  0.00  0.00    +0.103 C 
BRANCH  16  20
ATOM      1  O   UNL     1      -2.365 -13.152  14.054  0.00  0.00    -0.276 OA
ATOM      4  N   UNL     1      -2.698 -10.892  14.480  0.00  0.00    -0.310 N 
ATOM     20  C   UNL     1      -2.626 -12.015  13.669  0.00  0.00    +0.214 C 
ATOM     33  H   UNL     1      -2.921  -9.991  14.070  0.00  0.00    +0.149 HD
BRANCH   4  22
ATOM     22  C   UNL     1      -2.465 -10.932  15.907  0.00  0.00    +0.159 C 
BRANCH  22  24
ATOM      6  N   UNL     1      -3.754 -11.380  17.916  0.00  0.00    -0.258 NA
ATOM     24  C   UNL     1      -3.743 -10.819  16.687  0.00  0.00    +0.058 A 
ATOM     26  C   UNL     1      -4.825 -10.161  16.124  0.00  0.00    +0.025 A 
ATOM     28  C   UNL     1      -5.994 -10.074  16.873  0.00  0.00    +0.003 A 
ATOM     30  C   UNL     1      -4.907 -11.275  18.614  0.00  0.00    +0.111 A 
ATOM     31  C   UNL     1      -6.044 -10.638  18.143  0.00  0.00    +0.020 A 
ENDBRANCH  22  24
ENDBRANCH   4  22
ENDBRANCH  16  20
ENDBRANCH  11  16
TORSDOF 8
ENDMDL
MODEL 8
REMARK VINA RESULT:      -6.6     27.741     31.331
REMARK  Name = 38028312
REMARK  11 active torsions:
REMARK  status: ('A' for Active; 'I' for Inactive)
REMARK    1  A    between atoms: N_3  and  C_15
REMARK    2  A    between atoms: N_4  and  C_22
REMARK    3  A    between atoms: C_8  and  C_12
REMARK    4  A    between atoms: C_9  and  C_15
REMARK    5  A    between atoms: C_11  and  C_16
REMARK    6  A    between atoms: C_12  and  C_17
REMARK    7  A    between atoms: C_12  and  C_18
REMARK    8  A    between atoms: C_13  and  C_19
REMARK    9  A    between atoms: C_16  and  C_20
REMARK   10  A    between atoms: C_21  and  C_23
REMARK   11  A    between atoms: C_22  and  C_24
REMARK                            x       y       z     vdW  Elec       q    Type
REMARK                         _______ _______ _______ _____ _____    ______ ____
ROOT
ATOM      8  C   UNL     1      -3.009 -12.296  12.968  0.00  0.00    +0.000 C 
ATOM      9  C   UNL     1      -1.928 -11.186  12.924  0.00  0.00    +0.032 C 
ATOM     10  C   UNL     1      -3.449 -12.672  11.545  0.00  0.00    +0.012 C 
ATOM     11  C   UNL     1      -4.018 -11.466  10.774  0.00  0.00    +0.023 C 
ATOM     13  C   UNL     1      -3.135 -10.243  10.908  0.00  0.00    -0.073 C 
ATOM     14  C   UNL     1      -2.196 -10.142  11.867  0.00  0.00    -0.022 C 
ATOM     19  C   UNL     1      -3.321  -9.157   9.885  0.00  0.00    +0.039 C 
ENDROOT
BRANCH   8  12
ATOM     12  C   UNL     1      -2.512 -13.545  13.703  0.00  0.00    -0.013 C 
ATOM     17  C   UNL     1      -2.124 -14.631  12.706  0.00  0.00    +0.007 C 
ATOM     18  C   UNL     1      -3.576 -14.052  14.671  0.00  0.00    +0.007 C 
ENDBRANCH   8  12
BRANCH   9  15
ATOM     15  C   UNL     1      -1.780 -10.505  14.290  0.00  0.00    +0.112 C 
BRANCH  15   3
ATOM      2  O   UNL     1      -2.490 -11.041  17.019  0.00  0.00    -0.268 OA
ATOM      3  N   UNL     1      -3.058 -10.299  14.895  0.00  0.00    -0.309 N 
ATOM     21  C   UNL     1      -3.319 -10.587  16.235  0.00  0.00    +0.264 C 
ATOM     32  H   UNL     1      -3.799  -9.888  14.335  0.00  0.00    +0.149 HD
BRANCH  21  23
ATOM      5  N   UNL     1      -5.547  -9.758  15.827  0.00  0.00    -0.247 NA
ATOM      7  N   UNL     1      -6.361 -10.471  18.415  0.00  0.00    -0.259 NA
ATOM     23  C   UNL     1      -4.706 -10.342  16.705  0.00  0.00    +0.143 A 
ATOM     25  C   UNL     1      -5.106 -10.691  17.976  0.00  0.00    +0.143 A 
ATOM     27  C   UNL     1      -6.803  -9.538  16.267  0.00  0.00    +0.131 A 
ATOM     29  C   UNL     1      -7.202  -9.888  17.537  0.00  0.00    +0.130 A 
ENDBRANCH  21  23
ENDBRANCH  15   3
ENDBRANCH   9  15
BRANCH  11  16
ATOM     16  C   UNL     1      -5.453 -11.156  11.216  0.00  0.00    +0.103 C 
BRANCH  16  20
ATOM      1  O   UNL     1      -7.380 -12.337  10.352  0.00  0.00    -0.276 OA
ATOM      4  N   UNL     1      -6.222 -10.871   8.971  0.00  0.00    -0.310 N 
ATOM     20  C   UNL     1      -6.467 -11.538  10.162  0.00  0.00    +0.214 C 
ATOM     33  H   UNL     1      -5.440 -10.226   8.909  0.00  0.00    +0.149 HD
BRANCH   4  22
ATOM     22  C   UNL     1      -7.034 -11.045   7.787  0.00  0.00    +0.159 C 
BRANCH  22  24
ATOM      6  N   UNL     1      -6.835 -11.372   5.389  0.00  0.00    -0.258 NA
ATOM     24  C   UNL     1      -6.205 -11.393   6.585  0.00  0.00    +0.058 A 
ATOM     26  C   UNL     1      -4.867 -11.712   6.752  0.00  0.00    +0.025 A 
ATOM     28  C   UNL     1      -4.127 -12.029   5.618  0.00  0.00    +0.003 A 
ATOM     30  C   UNL     1      -6.084 -11.686   4.309  0.00  0.00    +0.111 A 
ATOM     31  C   UNL     1      -4.740 -12.018   4.369  0.00  0.00    +0.020 A 
ENDBRANCH  22  24
ENDBRANCH   4  22
ENDBRANCH  16  20
ENDBRANCH  11  16
TORSDOF 8
ENDMDL
MODEL 9
REMARK VINA RESULT:      -6.6     15.374     18.739
REMARK  Name = 38028312
REMARK  11 active torsions:
REMARK  status: ('A' for Active; 'I' for Inactive)
REMARK    1  A    between atoms: N_3  and  C_15
REMARK    2  A    between atoms: N_4  and  C_22
REMARK    3  A    between atoms: C_8  and  C_12
REMARK    4  A    between atoms: C_9  and  C_15
REMARK    5  A    between atoms: C_11  and  C_16
REMARK    6  A    between atoms: C_12  and  C_17
REMARK    7  A    between atoms: C_12  and  C_18
REMARK    8  A    between atoms: C_13  and  C_19
REMARK    9  A    between atoms: C_16  and  C_20
REMARK   10  A    between atoms: C_21  and  C_23
REMARK   11  A    between atoms: C_22  and  C_24
REMARK                            x       y       z     vdW  Elec       q    Type
REMARK                         _______ _______ _______ _____ _____    ______ ____
ROOT
ATOM      8  C   UNL     1      12.582   8.025   4.827  0.00  0.00    +0.000 C 
ATOM      9  C   UNL     1      11.549   9.172   4.964  0.00  0.00    +0.032 C 
ATOM     10  C   UNL     1      12.668   7.552   3.368  0.00  0.00    +0.012 C 
ATOM     11  C   UNL     1      11.310   7.052   2.838  0.00  0.00    +0.023 C 
ATOM     13  C   UNL     1      10.186   8.010   3.174  0.00  0.00    -0.073 C 
ATOM     14  C   UNL     1      10.316   8.960   4.118  0.00  0.00    -0.022 C 
ATOM     19  C   UNL     1       8.924   7.883   2.367  0.00  0.00    +0.039 C 
ENDROOT
BRANCH   8  12
ATOM     12  C   UNL     1      13.971   8.450   5.315  0.00  0.00    -0.013 C 
ATOM     17  C   UNL     1      14.862   8.818   4.134  0.00  0.00    +0.007 C 
ATOM     18  C   UNL     1      14.605   7.340   6.147  0.00  0.00    +0.007 C 
ENDBRANCH   8  12
BRANCH   9  15
ATOM     15  C   UNL     1      11.137   9.372   6.427  0.00  0.00    +0.112 C 
BRANCH  15   3
ATOM      2  O   UNL     1       8.590   8.280   7.179  0.00  0.00    -0.268 OA
ATOM      3  N   UNL     1      10.902   8.114   7.064  0.00  0.00    -0.309 N 
ATOM     21  C   UNL     1       9.626   7.658   7.396  0.00  0.00    +0.264 C 
ATOM     32  H   UNL     1      11.696   7.508   7.249  0.00  0.00    +0.149 HD
BRANCH  21  23
ATOM      5  N   UNL     1       8.883   6.304   9.249  0.00  0.00    -0.247 NA
ATOM      7  N   UNL     1      10.086   4.019   8.153  0.00  0.00    -0.259 NA
ATOM     23  C   UNL     1       9.552   6.341   8.079  0.00  0.00    +0.143 A 
ATOM     25  C   UNL     1      10.144   5.219   7.542  0.00  0.00    +0.143 A 
ATOM     27  C   UNL     1       8.825   5.104   9.861  0.00  0.00    +0.131 A 
ATOM     29  C   UNL     1       9.416   3.982   9.323  0.00  0.00    +0.130 A 
ENDBRANCH  21  23
ENDBRANCH  15   3
ENDBRANCH   9  15
BRANCH  11  16
ATOM     16  C   UNL     1      11.001   5.643   3.355  0.00  0.00    +0.103 C 
BRANCH  16  20
ATOM      1  O   UNL     1      10.332   4.273   1.475  0.00  0.00    -0.276 OA
ATOM      4  N   UNL     1      12.469   4.042   2.356  0.00  0.00    -0.310 N 
ATOM     20  C   UNL     1      11.197   4.590   2.287  0.00  0.00    +0.214 C 
ATOM     33  H   UNL     1      13.119   4.370   3.064  0.00  0.00    +0.149 HD
BRANCH   4  22
ATOM     22  C   UNL     1      12.934   3.009   1.457  0.00  0.00    +0.159 C 
BRANCH  22  24
ATOM      6  N   UNL     1      15.181   3.724   0.875  0.00  0.00    -0.258 NA
ATOM     24  C   UNL     1      13.911   3.541   0.449  0.00  0.00    +0.058 A 
ATOM     26  C   UNL     1      13.477   3.814  -0.838  0.00  0.00    +0.025 A 
ATOM     28  C   UNL     1      14.408   4.306  -1.748  0.00  0.00    +0.003 A 
ATOM     30  C   UNL     1      16.057   4.203  -0.037  0.00  0.00    +0.111 A 
ATOM     31  C   UNL     1      15.725   4.506  -1.348  0.00  0.00    +0.020 A 
ENDBRANCH  22  24
ENDBRANCH   4  22
ENDBRANCH  16  20
ENDBRANCH  11  16
TORSDOF 8
ENDMDL
MODEL 10
REMARK VINA RESULT:      -6.5      5.181      8.925
REMARK  Name = 38028312
REMARK  11 active torsions:
REMARK  status: ('A' for Active; 'I' for Inactive)
REMARK    1  A    between atoms: N_3  and  C_15
REMARK    2  A    between atoms: N_4  and  C_22
REMARK    3  A    between atoms: C_8  and  C_12
REMARK    4  A    between atoms: C_9  and  C_15
REMARK    5  A    between atoms: C_11  and  C_16
REMARK    6  A    between atoms: C_12  and  C_17
REMARK    7  A    between atoms: C_12  and  C_18
REMARK    8  A    between atoms: C_13  and  C_19
REMARK    9  A    between atoms: C_16  and  C_20
REMARK   10  A    between atoms: C_21  and  C_23
REMARK   11  A    between atoms: C_22  and  C_24
REMARK                            x       y       z     vdW  Elec       q    Type
REMARK                         _______ _______ _______ _____ _____    ______ ____
ROOT
ATOM      8  C   UNL     1      11.908  12.483  22.596  0.00  0.00    +0.000 C 
ATOM      9  C   UNL     1      10.810  11.934  23.542  0.00  0.00    +0.032 C 
ATOM     10  C   UNL     1      11.865  11.755  21.245  0.00  0.00    +0.012 C 
ATOM     11  C   UNL     1      12.066  10.235  21.396  0.00  0.00    +0.023 C 
ATOM     13  C   UNL     1      11.206   9.659  22.502  0.00  0.00    -0.073 C 
ATOM     14  C   UNL     1      10.642  10.436  23.445  0.00  0.00    -0.022 C 
ATOM     19  C   UNL     1      10.971   8.175  22.475  0.00  0.00    +0.039 C 
ENDROOT
BRANCH   8  12
ATOM     12  C   UNL     1      11.765  13.992  22.376  0.00  0.00    -0.013 C 
ATOM     17  C   UNL     1      10.464  14.303  21.643  0.00  0.00    +0.007 C 
ATOM     18  C   UNL     1      12.964  14.533  21.603  0.00  0.00    +0.007 C 
ENDBRANCH   8  12
BRANCH   9  15
ATOM     15  C   UNL     1      11.089  12.323  24.998  0.00  0.00    +0.112 C 
BRANCH  15   3
ATOM      2  O   UNL     1      12.808  13.966  26.606  0.00  0.00    -0.268 OA
ATOM      3  N   UNL     1      12.449  12.052  25.344  0.00  0.00    -0.309 N 
ATOM     21  C   UNL     1      13.216  12.909  26.134  0.00  0.00    +0.264 C 
ATOM     32  H   UNL     1      12.864  11.179  25.032  0.00  0.00    +0.149 HD
BRANCH  21  23
ATOM      5  N   UNL     1      14.859  11.804  27.512  0.00  0.00    -0.247 NA
ATOM      7  N   UNL     1      16.909  12.450  25.710  0.00  0.00    -0.259 NA
ATOM     23  C   UNL     1      14.622  12.497  26.381  0.00  0.00    +0.143 A 
ATOM     25  C   UNL     1      15.629  12.815  25.496  0.00  0.00    +0.143 A 
ATOM     27  C   UNL     1      16.138  11.438  27.727  0.00  0.00    +0.131 A 
ATOM     29  C   UNL     1      17.145  11.756  26.841  0.00  0.00    +0.130 A 
ENDBRANCH  21  23
ENDBRANCH  15   3
ENDBRANCH   9  15
BRANCH  11  16
ATOM     16  C   UNL     1      13.544   9.893  21.617  0.00  0.00    +0.103 C 
BRANCH  16  20
ATOM      1  O   UNL     1      14.505   9.672  19.408  0.00  0.00    -0.276 OA
ATOM      4  N   UNL     1      14.192   7.777  20.715  0.00  0.00    -0.310 N 
ATOM     20  C   UNL     1      14.134   9.137  20.449  0.00  0.00    +0.214 C 
ATOM     33  H   UNL     1      13.860   7.426  21.608  0.00  0.00    +0.149 HD
BRANCH   4  22
ATOM     22  C   UNL     1      14.710   6.809  19.774  0.00  0.00    +0.159 C 
BRANCH  22  24
ATOM      6  N   UNL     1      16.688   6.947  21.176  0.00  0.00    -0.258 NA
ATOM     24  C   UNL     1      16.168   6.532  20.000  0.00  0.00    +0.058 A 
ATOM     26  C   UNL     1      16.895   5.879  19.017  0.00  0.00    +0.025 A 
ATOM     28  C   UNL     1      18.243   5.637  19.258  0.00  0.00    +0.003 A 
ATOM     30  C   UNL     1      18.001   6.695  21.375  0.00  0.00    +0.111 A 
ATOM     31  C   UNL     1      18.814   6.049  20.457  0.00  0.00    +0.020 A 
ENDBRANCH  22  24
ENDBRANCH   4  22
ENDBRANCH  16  20
ENDBRANCH  11  16
TORSDOF 8
ENDMDL
