REMARK  Name = 28961532
REMARK  7 active torsions:
REMARK  status: ('A' for Active; 'I' for Inactive)
REMARK    1  A    between atoms: O_4  and  C_11
REMARK    2  A    between atoms: O_5  and  C_18
REMARK    3  A    between atoms: N_7  and  C_9
REMARK    4  A    between atoms: N_8  and  C_17
REMARK    5  A    between atoms: C_10  and  C_17
REMARK    6  A    between atoms: C_12  and  C_18
REMARK    7  A    between atoms: C_19  and  C_20
REMARK                            x       y       z     vdW  Elec       q    Type
REMARK                         _______ _______ _______ _____ _____    ______ ____
ROOT
ATOM      3  O   UNL     1      -1.296   1.665   0.637  0.00  0.00    -0.365 OA
ATOM      9  C   UNL     1      -3.052   0.058   0.602  0.00  0.00    +0.118 C 
ATOM     10  C   UNL     1      -1.532   0.246   0.503  0.00  0.00    +0.155 C 
ATOM     11  C   UNL     1      -3.594   1.400   0.135  0.00  0.00    +0.165 C 
ATOM     12  C   UNL     1      -2.561   2.346   0.738  0.00  0.00    +0.174 C 
ENDROOT
BRANCH   9   7
ATOM      7  N   UNL     1      -3.602  -1.104  -0.079  0.00  0.00    -0.295 NA
ATOM     13  C   UNL     1      -5.053  -1.204   0.071  0.00  0.00    +0.085 C 
ATOM     14  C   UNL     1      -3.078  -2.363   0.452  0.00  0.00    +0.085 C 
ATOM     15  C   UNL     1      -5.343  -2.635  -0.358  0.00  0.00    +0.017 C 
ATOM     16  C   UNL     1      -4.046  -3.397  -0.104  0.00  0.00    +0.017 C 
ENDBRANCH   9   7
BRANCH  11   4
ATOM      4  O   UNL     1      -3.588   1.500  -1.283  0.00  0.00    -0.388 OA
ATOM     26  H   UNL     1      -4.041   2.326  -1.522  0.00  0.00    +0.210 HD
ENDBRANCH  11   4
BRANCH  10  17
ATOM     17  C   UNL     1      -0.871  -0.202  -0.796  0.00  0.00    +0.137 C 
BRANCH  17   8
ATOM      6  O   UNL     1       1.143  -2.025   0.134  0.00  0.00    -0.270 OA
ATOM      8  N   UNL     1       0.542   0.029  -0.762  0.00  0.00    -0.309 N 
ATOM     19  C   UNL     1       1.452  -0.915  -0.292  0.00  0.00    +0.244 C 
ATOM     27  H   UNL     1       0.857   0.954  -1.034  0.00  0.00    +0.149 HD
BRANCH  19  20
ATOM      1 CL   UNL     1       6.206  -1.406   1.735  0.00  0.00    -0.081 Cl
ATOM      2  F   UNL     1       6.853   0.622  -0.328  0.00  0.00    -0.204 F 
ATOM     20  C   UNL     1       2.881  -0.511  -0.298  0.00  0.00    +0.038 A 
ATOM     21  C   UNL     1       3.771  -1.080   0.614  0.00  0.00    +0.036 A 
ATOM     22  C   UNL     1       3.334   0.437  -1.215  0.00  0.00    +0.016 A 
ATOM     23  C   UNL     1       5.113  -0.700   0.608  0.00  0.00    +0.077 A 
ATOM     24  C   UNL     1       4.676   0.817  -1.221  0.00  0.00    +0.040 A 
ATOM     25  C   UNL     1       5.566   0.248  -0.309  0.00  0.00    +0.142 A 
ENDBRANCH  19  20
ENDBRANCH  17   8
ENDBRANCH  10  17
BRANCH  12  18
ATOM     18  C   UNL     1      -2.453   3.705   0.072  0.00  0.00    +0.190 C 
BRANCH  18   5
ATOM      5  O   UNL     1      -1.466   4.469   0.747  0.00  0.00    -0.392 OA
ATOM     28  H   UNL     1      -1.421   5.333   0.303  0.00  0.00    +0.210 HD
ENDBRANCH  18   5
ENDBRANCH  12  18
TORSDOF 7
