REMARK  Name = 56773974
REMARK  12 active torsions:
REMARK  status: ('A' for Active; 'I' for Inactive)
REMARK    1  A    between atoms: O_2  and  C_20
REMARK    2  A    between atoms: N_3  and  C_7
REMARK    3  A    between atoms: N_3  and  C_12
REMARK    4  A    between atoms: N_3  and  C_13
REMARK    5  A    between atoms: C_5  and  C_10
REMARK    6  A    between atoms: C_5  and  C_11
REMARK    7  A    between atoms: C_6  and  C_9
REMARK    8  A    between atoms: C_9  and  C_14
REMARK    9  A    between atoms: C_12  and  C_15
REMARK   10  A    between atoms: C_13  and  C_16
REMARK   11  A    between atoms: C_18  and  C_19
REMARK   12  A    between atoms: C_19  and  C_20
REMARK                            x       y       z     vdW  Elec       q    Type
REMARK                         _______ _______ _______ _____ _____    ______ ____
ROOT
ATOM      5  C   UNL     1      -1.943   1.426   0.267  0.00  0.00    -0.016 C 
ATOM      6  C   UNL     1      -0.440   1.159   0.490  0.00  0.00    +0.004 C 
ATOM      7  C   UNL     1      -2.180  -0.059   0.612  0.00  0.00    +0.063 C 
ATOM      8  C   UNL     1      -0.731  -0.318   0.150  0.00  0.00    +0.024 C 
ATOM     10  C   UNL     1      -2.346   1.751  -1.161  0.00  0.00    +0.013 C 
ATOM     11  C   UNL     1      -2.523   2.463   1.204  0.00  0.00    +0.013 C 
ENDROOT
BRANCH   7   3
ATOM      3  N   UNL     1      -3.106  -0.688  -0.345  0.00  0.00    -0.299 NA
BRANCH   3  12
ATOM     12  C   UNL     1      -4.481  -0.445   0.088  0.00  0.00    +0.081 C 
ATOM     15  C   UNL     1      -5.478  -1.076  -0.869  0.00  0.00    +0.020 C 
ENDBRANCH   3  12
BRANCH   3  13
ATOM     13  C   UNL     1      -2.832  -2.123  -0.406  0.00  0.00    +0.081 C 
ATOM     16  C   UNL     1      -3.016  -2.776   0.953  0.00  0.00    +0.020 C 
ENDBRANCH   3  13
ENDBRANCH   7   3
BRANCH   6   9
ATOM      9  C   UNL     1       0.528   1.841  -0.449  0.00  0.00    +0.063 C 
BRANCH   9  14
ATOM      1  O   UNL     1       3.917   1.027   0.487  0.00  0.00    -0.359 OA
ATOM      4  N   UNL     1       2.760   1.789   0.596  0.00  0.00    -0.083 NA
ATOM     14  C   UNL     1       1.912   1.259  -0.291  0.00  0.00    +0.084 A 
ATOM     17  C   UNL     1       2.474   0.171  -0.982  0.00  0.00    +0.071 A 
ATOM     18  C   UNL     1       3.734   0.067  -0.456  0.00  0.00    +0.140 A 
BRANCH  18  19
ATOM     19  C   UNL     1       4.867  -0.834  -0.701  0.00  0.00    +0.105 C 
BRANCH  19  20
ATOM     20  C   UNL     1       5.035  -1.926   0.373  0.00  0.00    +0.163 C 
BRANCH  20   2
ATOM      2  O   UNL     1       3.849  -2.707   0.439  0.00  0.00    -0.395 OA
ATOM     21  H   UNL     1       3.991  -3.385   1.122  0.00  0.00    +0.209 HD
ENDBRANCH  20   2
ENDBRANCH  19  20
ENDBRANCH  18  19
ENDBRANCH   9  14
ENDBRANCH   6   9
TORSDOF 8
