REMARK  Name = 11941672
REMARK  7 active torsions:
REMARK  status: ('A' for Active; 'I' for Inactive)
REMARK    1  A    between atoms: O_4  and  C_18
REMARK    2  A    between atoms: O_4  and  C_23
REMARK    3  A    between atoms: N_5  and  C_13
REMARK    4  A    between atoms: N_6  and  C_12
REMARK    5  A    between atoms: C_16  and  C_18
REMARK    6  A    between atoms: C_19  and  C_22
REMARK    7  A    between atoms: C_26  and  C_29
REMARK                            x       y       z     vdW  Elec       q    Type
REMARK                         _______ _______ _______ _____ _____    ______ ____
ROOT
ATOM      6  N   UNL     1       0.124  -2.615  -0.319  0.00  0.00    -0.306 N 
ATOM      7  N   UNL     1       1.989  -1.268   0.143  0.00  0.00    -0.214 NA
ATOM      8  N   UNL     1       1.531  -3.239   1.452  0.00  0.00    -0.223 NA
ATOM     17  C   UNL     1       1.248  -2.366   0.449  0.00  0.00    +0.216 A 
ATOM     19  C   UNL     1       3.078  -1.056   0.911  0.00  0.00    +0.076 A 
ATOM     20  C   UNL     1       2.634  -2.967   2.180  0.00  0.00    +0.116 A 
ATOM     21  C   UNL     1       3.453  -1.880   1.953  0.00  0.00    +0.048 A 
ATOM     30  H   UNL     1      -0.450  -3.406  -0.050  0.00  0.00    +0.149 HD
ENDROOT
BRANCH   6  12
ATOM      1  O   UNL     1      -2.588  -2.293  -1.776  0.00  0.00    -0.370 OA
ATOM      2  O   UNL     1      -1.127   0.464  -1.831  0.00  0.00    -0.370 OA
ATOM     10  C   UNL     1      -1.136  -0.627  -0.895  0.00  0.00    +0.171 C 
ATOM     11  C   UNL     1      -2.546  -1.183  -0.864  0.00  0.00    +0.171 C 
ATOM     12  C   UNL     1      -0.298  -1.771  -1.415  0.00  0.00    +0.130 C 
ATOM     13  C   UNL     1      -3.400  -0.047  -1.380  0.00  0.00    +0.130 C 
ATOM     14  C   UNL     1      -1.274  -2.518  -2.307  0.00  0.00    +0.185 C 
ATOM     15  C   UNL     1      -2.457   0.662  -2.335  0.00  0.00    +0.185 C 
BRANCH  13   5
ATOM      3  O   UNL     1      -5.881  -0.150   0.115  0.00  0.00    -0.273 OA
ATOM      5  N   UNL     1      -3.812   0.826  -0.307  0.00  0.00    -0.306 N 
ATOM     16  C   UNL     1      -5.026   0.698   0.353  0.00  0.00    +0.239 C 
ATOM     31  H   UNL     1      -3.155   1.534   0.010  0.00  0.00    +0.149 HD
BRANCH  16  18
ATOM     18  C   UNL     1      -5.191   1.746   1.432  0.00  0.00    +0.255 C 
BRANCH  18   4
ATOM      4  O   UNL     1      -6.426   1.587   2.097  0.00  0.00    -0.374 OA
ATOM     23  C   UNL     1      -6.609   2.562   3.120  0.00  0.00    +0.194 C 
ENDBRANCH  18   4
ENDBRANCH  16  18
ENDBRANCH  13   5
ENDBRANCH   6  12
BRANCH  19  22
ATOM     22  C   UNL     1       3.849   0.115   0.571  0.00  0.00    +0.002 A 
ATOM     24  C   UNL     1       3.222   1.232   0.013  0.00  0.00    +0.029 A 
ATOM     25  C   UNL     1       5.227   0.137   0.800  0.00  0.00    +0.010 A 
ATOM     26  C   UNL     1       3.969   2.363  -0.314  0.00  0.00    +0.052 A 
ATOM     27  C   UNL     1       5.974   1.268   0.472  0.00  0.00    +0.002 A 
ATOM     28  C   UNL     1       5.344   2.382  -0.085  0.00  0.00    +0.019 A 
BRANCH  26  29
ATOM      9  N   UNL     1       2.802   4.433  -1.347  0.00  0.00    -0.191 NA
ATOM     29  C   UNL     1       3.325   3.505  -0.884  0.00  0.00    +0.099 C 
ENDBRANCH  26  29
ENDBRANCH  19  22
TORSDOF 6
