MODEL 1
REMARK VINA RESULT:      -6.8      0.000      0.000
REMARK  Name = 38028829
REMARK  9 active torsions:
REMARK  status: ('A' for Active; 'I' for Inactive)
REMARK    1  A    between atoms: N_3  and  C_12
REMARK    2  A    between atoms: C_5  and  C_9
REMARK    3  A    between atoms: C_6  and  C_12
REMARK    4  A    between atoms: C_8  and  C_13
REMARK    5  A    between atoms: C_9  and  C_14
REMARK    6  A    between atoms: C_9  and  C_15
REMARK    7  A    between atoms: C_10  and  C_17
REMARK    8  A    between atoms: C_13  and  C_18
REMARK    9  A    between atoms: C_16  and  C_21
REMARK                            x       y       z     vdW  Elec       q    Type
REMARK                         _______ _______ _______ _____ _____    ______ ____
ROOT
ATOM      5  C   UNL     1      12.893  10.327  20.736  0.00  0.00    +0.000 C 
ATOM      6  C   UNL     1      12.947   9.740  22.169  0.00  0.00    +0.032 C 
ATOM      7  C   UNL     1      11.646   9.821  19.996  0.00  0.00    +0.012 C 
ATOM      8  C   UNL     1      11.611   8.284  19.897  0.00  0.00    +0.023 C 
ATOM     10  C   UNL     1      11.923   7.626  21.225  0.00  0.00    -0.073 C 
ATOM     11  C   UNL     1      12.509   8.296  22.234  0.00  0.00    -0.022 C 
ATOM     17  C   UNL     1      11.505   6.190  21.384  0.00  0.00    +0.039 C 
ENDROOT
BRANCH   5   9
ATOM      9  C   UNL     1      12.904  11.860  20.749  0.00  0.00    -0.013 C 
ATOM     14  C   UNL     1      13.093  12.402  19.336  0.00  0.00    +0.007 C 
ATOM     15  C   UNL     1      11.615  12.394  21.365  0.00  0.00    +0.007 C 
ENDBRANCH   5   9
BRANCH   6  12
ATOM     12  C   UNL     1      14.352   9.874  22.770  0.00  0.00    +0.112 C 
BRANCH  12   3
ATOM      2  O   UNL     1      16.425  10.893  21.013  0.00  0.00    -0.276 OA
ATOM      3  N   UNL     1      15.300   9.116  22.015  0.00  0.00    -0.315 N 
ATOM     21  C   UNL     1      16.267   9.689  21.192  0.00  0.00    +0.216 C 
ATOM     29  H   UNL     1      15.325   8.114  22.170  0.00  0.00    +0.149 HD
BRANCH  21  16
ATOM     16  C   UNL     1      17.148   8.670  20.537  0.00  0.00    +0.075 C 
ATOM     19  C   UNL     1      18.239   8.221  21.510  0.00  0.00    +0.013 C 
ATOM     20  C   UNL     1      16.293   7.489  20.070  0.00  0.00    +0.013 C 
ATOM     22  C   UNL     1      19.096   7.106  20.916  0.00  0.00    +0.001 C 
ATOM     23  C   UNL     1      17.152   6.373  19.481  0.00  0.00    +0.001 C 
ATOM     24  C   UNL     1      18.242   5.930  20.452  0.00  0.00    +0.000 C 
ENDBRANCH  21  16
ENDBRANCH  12   3
ENDBRANCH   6  12
BRANCH   8  13
ATOM     13  C   UNL     1      12.555   7.782  18.799  0.00  0.00    +0.103 C 
BRANCH  13  18
ATOM      1  O   UNL     1      11.002   7.868  16.996  0.00  0.00    -0.276 OA
ATOM      4  N   UNL     1      12.923   9.136  16.796  0.00  0.00    -0.301 N 
ATOM     18  C   UNL     1      12.078   8.260  17.452  0.00  0.00    +0.216 C 
ATOM     25  C   UNL     1      12.610   9.684  15.485  0.00  0.00    +0.108 C 
ATOM     26  C   UNL     1      14.204   9.640  17.280  0.00  0.00    +0.108 C 
ATOM     27  C   UNL     1      13.609  10.815  15.295  0.00  0.00    +0.020 C 
ATOM     28  C   UNL     1      14.825  10.325  16.071  0.00  0.00    +0.020 C 
ENDBRANCH  13  18
ENDBRANCH   8  13
TORSDOF 6
ENDMDL
MODEL 2
REMARK VINA RESULT:      -6.3      2.104      5.751
REMARK  Name = 38028829
REMARK  9 active torsions:
REMARK  status: ('A' for Active; 'I' for Inactive)
REMARK    1  A    between atoms: N_3  and  C_12
REMARK    2  A    between atoms: C_5  and  C_9
REMARK    3  A    between atoms: C_6  and  C_12
REMARK    4  A    between atoms: C_8  and  C_13
REMARK    5  A    between atoms: C_9  and  C_14
REMARK    6  A    between atoms: C_9  and  C_15
REMARK    7  A    between atoms: C_10  and  C_17
REMARK    8  A    between atoms: C_13  and  C_18
REMARK    9  A    between atoms: C_16  and  C_21
REMARK                            x       y       z     vdW  Elec       q    Type
REMARK                         _______ _______ _______ _____ _____    ______ ____
ROOT
ATOM      5  C   UNL     1      14.861   8.377  20.625  0.00  0.00    +0.000 C 
ATOM      6  C   UNL     1      14.352   7.015  20.091  0.00  0.00    +0.032 C 
ATOM      7  C   UNL     1      14.282   8.656  22.020  0.00  0.00    +0.012 C 
ATOM      8  C   UNL     1      12.741   8.675  22.019  0.00  0.00    +0.023 C 
ATOM     10  C   UNL     1      12.163   7.491  21.271  0.00  0.00    -0.073 C 
ATOM     11  C   UNL     1      12.902   6.753  20.423  0.00  0.00    -0.022 C 
ATOM     17  C   UNL     1      10.727   7.147  21.554  0.00  0.00    +0.039 C 
ENDROOT
BRANCH   5   9
ATOM      9  C   UNL     1      16.391   8.433  20.677  0.00  0.00    -0.013 C 
ATOM     14  C   UNL     1      16.852   9.598  21.546  0.00  0.00    +0.007 C 
ATOM     15  C   UNL     1      16.953   7.114  21.199  0.00  0.00    +0.007 C 
ENDBRANCH   5   9
BRANCH   6  12
ATOM     12  C   UNL     1      14.557   6.903  18.576  0.00  0.00    +0.112 C 
BRANCH  12   3
ATOM      2  O   UNL     1      12.277   7.909  17.087  0.00  0.00    -0.276 OA
ATOM      3  N   UNL     1      14.424   8.181  17.950  0.00  0.00    -0.315 N 
ATOM     21  C   UNL     1      13.289   8.585  17.252  0.00  0.00    +0.216 C 
ATOM     29  H   UNL     1      15.162   8.858  18.112  0.00  0.00    +0.149 HD
BRANCH  21  16
ATOM     16  C   UNL     1      13.403   9.980  16.718  0.00  0.00    +0.075 C 
ATOM     19  C   UNL     1      13.827  10.933  17.836  0.00  0.00    +0.013 C 
ATOM     20  C   UNL     1      14.402   9.997  15.558  0.00  0.00    +0.013 C 
ATOM     22  C   UNL     1      14.056  12.348  17.310  0.00  0.00    +0.001 C 
ATOM     23  C   UNL     1      14.633  11.412  15.037  0.00  0.00    +0.001 C 
ATOM     24  C   UNL     1      15.052  12.363  16.155  0.00  0.00    +0.000 C 
ENDBRANCH  21  16
ENDBRANCH  12   3
ENDBRANCH   6  12
BRANCH   8  13
ATOM     13  C   UNL     1      12.207   9.996  21.453  0.00  0.00    +0.103 C 
BRANCH  13  18
ATOM      1  O   UNL     1      11.036  10.159  23.521  0.00  0.00    -0.276 OA
ATOM      4  N   UNL     1      11.291  12.101  22.296  0.00  0.00    -0.301 N 
ATOM     18  C   UNL     1      11.459  10.748  22.524  0.00  0.00    +0.216 C 
ATOM     25  C   UNL     1      10.585  12.965  23.230  0.00  0.00    +0.108 C 
ATOM     26  C   UNL     1      11.768  12.858  21.143  0.00  0.00    +0.108 C 
ATOM     27  C   UNL     1      10.914  14.376  22.768  0.00  0.00    +0.020 C 
ATOM     28  C   UNL     1      11.078  14.209  21.263  0.00  0.00    +0.020 C 
ENDBRANCH  13  18
ENDBRANCH   8  13
TORSDOF 6
ENDMDL
MODEL 3
REMARK VINA RESULT:      -6.2      2.217      5.982
REMARK  Name = 38028829
REMARK  9 active torsions:
REMARK  status: ('A' for Active; 'I' for Inactive)
REMARK    1  A    between atoms: N_3  and  C_12
REMARK    2  A    between atoms: C_5  and  C_9
REMARK    3  A    between atoms: C_6  and  C_12
REMARK    4  A    between atoms: C_8  and  C_13
REMARK    5  A    between atoms: C_9  and  C_14
REMARK    6  A    between atoms: C_9  and  C_15
REMARK    7  A    between atoms: C_10  and  C_17
REMARK    8  A    between atoms: C_13  and  C_18
REMARK    9  A    between atoms: C_16  and  C_21
REMARK                            x       y       z     vdW  Elec       q    Type
REMARK                         _______ _______ _______ _____ _____    ______ ____
ROOT
ATOM      5  C   UNL     1      14.992   9.591  20.387  0.00  0.00    +0.000 C 
ATOM      6  C   UNL     1      15.839  10.827  19.990  0.00  0.00    +0.032 C 
ATOM      7  C   UNL     1      14.766   8.683  19.169  0.00  0.00    +0.012 C 
ATOM      8  C   UNL     1      14.051   9.418  18.019  0.00  0.00    +0.023 C 
ATOM     10  C   UNL     1      14.667  10.774  17.746  0.00  0.00    -0.073 C 
ATOM     11  C   UNL     1      15.475  11.383  18.633  0.00  0.00    -0.022 C 
ATOM     17  C   UNL     1      14.371  11.397  16.409  0.00  0.00    +0.039 C 
ENDROOT
BRANCH   5   9
ATOM      9  C   UNL     1      15.649   8.791  21.516  0.00  0.00    -0.013 C 
ATOM     14  C   UNL     1      14.683   7.742  22.056  0.00  0.00    +0.007 C 
ATOM     15  C   UNL     1      16.938   8.139  21.025  0.00  0.00    +0.007 C 
ENDBRANCH   5   9
BRANCH   6  12
ATOM     12  C   UNL     1      15.726  11.937  21.043  0.00  0.00    +0.112 C 
BRANCH  12   3
ATOM      2  O   UNL     1      15.049  11.739  23.858  0.00  0.00    -0.276 OA
ATOM      3  N   UNL     1      14.421  11.952  21.625  0.00  0.00    -0.315 N 
ATOM     21  C   UNL     1      14.184  11.852  22.994  0.00  0.00    +0.216 C 
ATOM     29  H   UNL     1      13.638  12.146  21.008  0.00  0.00    +0.149 HD
BRANCH  21  16
ATOM     16  C   UNL     1      12.727  11.920  23.337  0.00  0.00    +0.075 C 
ATOM     19  C   UNL     1      12.556  12.098  24.846  0.00  0.00    +0.013 C 
ATOM     20  C   UNL     1      12.079  13.068  22.559  0.00  0.00    +0.013 C 
ATOM     22  C   UNL     1      11.088  12.276  25.225  0.00  0.00    +0.001 C 
ATOM     23  C   UNL     1      10.613  13.248  22.944  0.00  0.00    +0.001 C 
ATOM     24  C   UNL     1      10.443  13.421  24.450  0.00  0.00    +0.000 C 
ENDBRANCH  21  16
ENDBRANCH  12   3
ENDBRANCH   6  12
BRANCH   8  13
ATOM     13  C   UNL     1      12.548   9.543  18.296  0.00  0.00    +0.103 C 
BRANCH  13  18
ATOM      1  O   UNL     1      12.086   7.208  18.361  0.00  0.00    -0.276 OA
ATOM      4  N   UNL     1      11.534   8.446  20.232  0.00  0.00    -0.301 N 
ATOM     18  C   UNL     1      12.040   8.287  18.956  0.00  0.00    +0.216 C 
ATOM     25  C   UNL     1      11.000   7.332  21.001  0.00  0.00    +0.108 C 
ATOM     26  C   UNL     1      11.455   9.690  20.991  0.00  0.00    +0.108 C 
ATOM     27  C   UNL     1      10.868   7.873  22.416  0.00  0.00    +0.020 C 
ATOM     28  C   UNL     1      10.576   9.351  22.187  0.00  0.00    +0.020 C 
ENDBRANCH  13  18
ENDBRANCH   8  13
TORSDOF 6
ENDMDL
MODEL 4
REMARK VINA RESULT:      -6.2      1.571      2.468
REMARK  Name = 38028829
REMARK  9 active torsions:
REMARK  status: ('A' for Active; 'I' for Inactive)
REMARK    1  A    between atoms: N_3  and  C_12
REMARK    2  A    between atoms: C_5  and  C_9
REMARK    3  A    between atoms: C_6  and  C_12
REMARK    4  A    between atoms: C_8  and  C_13
REMARK    5  A    between atoms: C_9  and  C_14
REMARK    6  A    between atoms: C_9  and  C_15
REMARK    7  A    between atoms: C_10  and  C_17
REMARK    8  A    between atoms: C_13  and  C_18
REMARK    9  A    between atoms: C_16  and  C_21
REMARK                            x       y       z     vdW  Elec       q    Type
REMARK                         _______ _______ _______ _____ _____    ______ ____
ROOT
ATOM      5  C   UNL     1      14.586  11.630  20.603  0.00  0.00    +0.000 C 
ATOM      6  C   UNL     1      14.524  11.892  22.129  0.00  0.00    +0.032 C 
ATOM      7  C   UNL     1      13.175  11.651  19.997  0.00  0.00    +0.012 C 
ATOM      8  C   UNL     1      12.250  10.598  20.637  0.00  0.00    +0.023 C 
ATOM     10  C   UNL     1      12.338  10.615  22.149  0.00  0.00    -0.073 C 
ATOM     11  C   UNL     1      13.355  11.209  22.798  0.00  0.00    -0.022 C 
ATOM     17  C   UNL     1      11.205   9.972  22.900  0.00  0.00    +0.039 C 
ENDROOT
BRANCH   5   9
ATOM      9  C   UNL     1      15.475  12.652  19.886  0.00  0.00    -0.013 C 
ATOM     14  C   UNL     1      15.862  12.142  18.502  0.00  0.00    +0.007 C 
ATOM     15  C   UNL     1      14.762  13.997  19.787  0.00  0.00    +0.007 C 
ENDBRANCH   5   9
BRANCH   6  12
ATOM     12  C   UNL     1      15.826  11.466  22.817  0.00  0.00    +0.112 C 
BRANCH  12   3
ATOM      2  O   UNL     1      18.046  10.584  21.169  0.00  0.00    -0.276 OA
ATOM      3  N   UNL     1      16.169  10.123  22.468  0.00  0.00    -0.315 N 
ATOM     21  C   UNL     1      17.257   9.787  21.668  0.00  0.00    +0.216 C 
ATOM     29  H   UNL     1      15.642   9.378  22.912  0.00  0.00    +0.149 HD
BRANCH  21  16
ATOM     16  C   UNL     1      17.403   8.308  21.479  0.00  0.00    +0.075 C 
ATOM     19  C   UNL     1      16.540   7.845  20.304  0.00  0.00    +0.013 C 
ATOM     20  C   UNL     1      18.879   7.970  21.257  0.00  0.00    +0.013 C 
ATOM     22  C   UNL     1      16.740   6.360  20.013  0.00  0.00    +0.001 C 
ATOM     23  C   UNL     1      19.077   6.486  20.961  0.00  0.00    +0.001 C 
ATOM     24  C   UNL     1      18.212   6.025  19.792  0.00  0.00    +0.000 C 
ENDBRANCH  21  16
ENDBRANCH  12   3
ENDBRANCH   6  12
BRANCH   8  13
ATOM     13  C   UNL     1      12.545   9.198  20.085  0.00  0.00    +0.103 C 
BRANCH  13  18
ATOM      1  O   UNL     1      10.406   8.240  19.662  0.00  0.00    -0.276 OA
ATOM      4  N   UNL     1      11.623   8.956  17.833  0.00  0.00    -0.301 N 
ATOM     18  C   UNL     1      11.421   8.753  19.185  0.00  0.00    +0.216 C 
ATOM     25  C   UNL     1      10.636   8.575  16.834  0.00  0.00    +0.108 C 
ATOM     26  C   UNL     1      12.796   9.557  17.207  0.00  0.00    +0.108 C 
ATOM     27  C   UNL     1      11.103   9.257  15.557  0.00  0.00    +0.020 C 
ATOM     28  C   UNL     1      12.617   9.280  15.720  0.00  0.00    +0.020 C 
ENDBRANCH  13  18
ENDBRANCH   8  13
TORSDOF 6
ENDMDL
MODEL 5
REMARK VINA RESULT:      -6.1     26.006     28.796
REMARK  Name = 38028829
REMARK  9 active torsions:
REMARK  status: ('A' for Active; 'I' for Inactive)
REMARK    1  A    between atoms: N_3  and  C_12
REMARK    2  A    between atoms: C_5  and  C_9
REMARK    3  A    between atoms: C_6  and  C_12
REMARK    4  A    between atoms: C_8  and  C_13
REMARK    5  A    between atoms: C_9  and  C_14
REMARK    6  A    between atoms: C_9  and  C_15
REMARK    7  A    between atoms: C_10  and  C_17
REMARK    8  A    between atoms: C_13  and  C_18
REMARK    9  A    between atoms: C_16  and  C_21
REMARK                            x       y       z     vdW  Elec       q    Type
REMARK                         _______ _______ _______ _____ _____    ______ ____
ROOT
ATOM      5  C   UNL     1      -3.117 -12.155  12.732  0.00  0.00    +0.000 C 
ATOM      6  C   UNL     1      -2.008 -11.100  12.492  0.00  0.00    +0.032 C 
ATOM      7  C   UNL     1      -3.758 -12.572  11.400  0.00  0.00    +0.012 C 
ATOM      8  C   UNL     1      -4.375 -11.375  10.650  0.00  0.00    +0.023 C 
ATOM     10  C   UNL     1      -3.431 -10.191  10.606  0.00  0.00    -0.073 C 
ATOM     11  C   UNL     1      -2.371 -10.092  11.428  0.00  0.00    -0.022 C 
ATOM     17  C   UNL     1      -3.708  -9.143   9.563  0.00  0.00    +0.039 C 
ENDROOT
BRANCH   5   9
ATOM      9  C   UNL     1      -2.578 -13.392  13.459  0.00  0.00    -0.013 C 
ATOM     14  C   UNL     1      -3.553 -13.838  14.543  0.00  0.00    +0.007 C 
ATOM     15  C   UNL     1      -2.320 -14.520  12.465  0.00  0.00    +0.007 C 
ENDBRANCH   5   9
BRANCH   6  12
ATOM     12  C   UNL     1      -1.651 -10.366  13.790  0.00  0.00    +0.112 C 
BRANCH  12   3
ATOM      2  O   UNL     1      -1.802 -10.889  16.641  0.00  0.00    -0.276 OA
ATOM      3  N   UNL     1      -2.797 -10.246  14.636  0.00  0.00    -0.315 N 
ATOM     21  C   UNL     1      -2.782 -10.518  16.001  0.00  0.00    +0.216 C 
ATOM     29  H   UNL     1      -3.637  -9.846  14.228  0.00  0.00    +0.149 HD
BRANCH  21  16
ATOM     16  C   UNL     1      -4.111 -10.287  16.654  0.00  0.00    +0.075 C 
ATOM     19  C   UNL     1      -5.220 -10.320  15.602  0.00  0.00    +0.013 C 
ATOM     20  C   UNL     1      -4.332 -11.346  17.736  0.00  0.00    +0.013 C 
ATOM     22  C   UNL     1      -6.601 -10.192  16.240  0.00  0.00    +0.001 C 
ATOM     23  C   UNL     1      -5.715 -11.220  18.369  0.00  0.00    +0.001 C 
ATOM     24  C   UNL     1      -6.821 -11.249  17.318  0.00  0.00    +0.000 C 
ENDBRANCH  21  16
ENDBRANCH  12   3
ENDBRANCH   6  12
BRANCH   8  13
ATOM     13  C   UNL     1      -5.725 -10.980  11.260  0.00  0.00    +0.103 C 
BRANCH  13  18
ATOM      1  O   UNL     1      -7.050 -12.510  10.005  0.00  0.00    -0.276 OA
ATOM      4  N   UNL     1      -7.574 -10.267   9.828  0.00  0.00    -0.301 N 
ATOM     18  C   UNL     1      -6.840 -11.334  10.310  0.00  0.00    +0.216 C 
ATOM     25  C   UNL     1      -8.680 -10.440   8.898  0.00  0.00    +0.108 C 
ATOM     26  C   UNL     1      -7.380  -8.857  10.151  0.00  0.00    +0.108 C 
ATOM     27  C   UNL     1      -9.389  -9.095   8.891  0.00  0.00    +0.020 C 
ATOM     28  C   UNL     1      -8.253  -8.113   9.149  0.00  0.00    +0.020 C 
ENDBRANCH  13  18
ENDBRANCH   8  13
TORSDOF 6
ENDMDL
MODEL 6
REMARK VINA RESULT:      -6.0      2.177      4.877
REMARK  Name = 38028829
REMARK  9 active torsions:
REMARK  status: ('A' for Active; 'I' for Inactive)
REMARK    1  A    between atoms: N_3  and  C_12
REMARK    2  A    between atoms: C_5  and  C_9
REMARK    3  A    between atoms: C_6  and  C_12
REMARK    4  A    between atoms: C_8  and  C_13
REMARK    5  A    between atoms: C_9  and  C_14
REMARK    6  A    between atoms: C_9  and  C_15
REMARK    7  A    between atoms: C_10  and  C_17
REMARK    8  A    between atoms: C_13  and  C_18
REMARK    9  A    between atoms: C_16  and  C_21
REMARK                            x       y       z     vdW  Elec       q    Type
REMARK                         _______ _______ _______ _____ _____    ______ ____
ROOT
ATOM      5  C   UNL     1      13.014   9.116  20.585  0.00  0.00    +0.000 C 
ATOM      6  C   UNL     1      12.882   8.114  19.410  0.00  0.00    +0.032 C 
ATOM      7  C   UNL     1      12.819  10.555  20.086  0.00  0.00    +0.012 C 
ATOM      8  C   UNL     1      13.839  10.939  18.998  0.00  0.00    +0.023 C 
ATOM     10  C   UNL     1      13.961   9.866  17.936  0.00  0.00    -0.073 C 
ATOM     11  C   UNL     1      13.515   8.612  18.133  0.00  0.00    -0.022 C 
ATOM     17  C   UNL     1      14.566  10.278  16.622  0.00  0.00    +0.039 C 
ENDROOT
BRANCH   5   9
ATOM      9  C   UNL     1      12.015   8.813  21.706  0.00  0.00    -0.013 C 
ATOM     14  C   UNL     1      11.794  10.051  22.569  0.00  0.00    +0.007 C 
ATOM     15  C   UNL     1      10.695   8.319  21.122  0.00  0.00    +0.007 C 
ENDBRANCH   5   9
BRANCH   6  12
ATOM     12  C   UNL     1      13.477   6.749  19.776  0.00  0.00    +0.112 C 
BRANCH  12   3
ATOM      2  O   UNL     1      16.103   5.984  18.805  0.00  0.00    -0.276 OA
ATOM      3  N   UNL     1      14.729   6.905  20.446  0.00  0.00    -0.315 N 
ATOM     21  C   UNL     1      15.950   6.509  19.905  0.00  0.00    +0.216 C 
ATOM     29  H   UNL     1      14.729   7.422  21.320  0.00  0.00    +0.149 HD
BRANCH  21  16
ATOM     16  C   UNL     1      17.109   6.810  20.805  0.00  0.00    +0.075 C 
ATOM     19  C   UNL     1      18.394   6.233  20.210  0.00  0.00    +0.013 C 
ATOM     20  C   UNL     1      17.213   8.324  21.004  0.00  0.00    +0.013 C 
ATOM     22  C   UNL     1      19.615   6.608  21.046  0.00  0.00    +0.001 C 
ATOM     23  C   UNL     1      18.437   8.697  21.835  0.00  0.00    +0.001 C 
ATOM     24  C   UNL     1      19.718   8.118  21.243  0.00  0.00    +0.000 C 
ENDBRANCH  21  16
ENDBRANCH  12   3
ENDBRANCH   6  12
BRANCH   8  13
ATOM     13  C   UNL     1      15.206  11.260  19.613  0.00  0.00    +0.103 C 
BRANCH  13  18
ATOM      1  O   UNL     1      14.995  13.632  19.590  0.00  0.00    -0.276 OA
ATOM      4  N   UNL     1      15.345  12.623  21.639  0.00  0.00    -0.301 N 
ATOM     18  C   UNL     1      15.169  12.617  20.268  0.00  0.00    +0.216 C 
ATOM     25  C   UNL     1      15.342  13.852  22.418  0.00  0.00    +0.108 C 
ATOM     26  C   UNL     1      15.551  11.461  22.497  0.00  0.00    +0.108 C 
ATOM     27  C   UNL     1      15.238  13.388  23.862  0.00  0.00    +0.020 C 
ATOM     28  C   UNL     1      15.962  12.049  23.840  0.00  0.00    +0.020 C 
ENDBRANCH  13  18
ENDBRANCH   8  13
TORSDOF 6
ENDMDL
MODEL 7
REMARK VINA RESULT:      -6.0     24.991     27.066
REMARK  Name = 38028829
REMARK  9 active torsions:
REMARK  status: ('A' for Active; 'I' for Inactive)
REMARK    1  A    between atoms: N_3  and  C_12
REMARK    2  A    between atoms: C_5  and  C_9
REMARK    3  A    between atoms: C_6  and  C_12
REMARK    4  A    between atoms: C_8  and  C_13
REMARK    5  A    between atoms: C_9  and  C_14
REMARK    6  A    between atoms: C_9  and  C_15
REMARK    7  A    between atoms: C_10  and  C_17
REMARK    8  A    between atoms: C_13  and  C_18
REMARK    9  A    between atoms: C_16  and  C_21
REMARK                            x       y       z     vdW  Elec       q    Type
REMARK                         _______ _______ _______ _____ _____    ______ ____
ROOT
ATOM      5  C   UNL     1     -12.900   8.210  20.472  0.00  0.00    +0.000 C 
ATOM      6  C   UNL     1     -12.276   9.396  21.250  0.00  0.00    +0.032 C 
ATOM      7  C   UNL     1     -11.905   7.664  19.437  0.00  0.00    +0.012 C 
ATOM      8  C   UNL     1     -11.470   8.740  18.423  0.00  0.00    +0.023 C 
ATOM     10  C   UNL     1     -11.093  10.039  19.106  0.00  0.00    -0.073 C 
ATOM     11  C   UNL     1     -11.451  10.309  20.374  0.00  0.00    -0.022 C 
ATOM     17  C   UNL     1     -10.255  11.003  18.312  0.00  0.00    +0.039 C 
ENDROOT
BRANCH   5   9
ATOM      9  C   UNL     1     -13.342   7.083  21.412  0.00  0.00    -0.013 C 
ATOM     14  C   UNL     1     -14.709   6.550  20.996  0.00  0.00    +0.007 C 
ATOM     15  C   UNL     1     -12.306   5.964  21.422  0.00  0.00    +0.007 C 
ENDBRANCH   5   9
BRANCH   6  12
ATOM     12  C   UNL     1     -13.354  10.216  21.968  0.00  0.00    +0.112 C 
BRANCH  12   3
ATOM      2  O   UNL     1     -11.603  11.844  23.613  0.00  0.00    -0.276 OA
ATOM      3  N   UNL     1     -13.183  10.147  23.385  0.00  0.00    -0.315 N 
ATOM     21  C   UNL     1     -12.317  10.971  24.100  0.00  0.00    +0.216 C 
ATOM     29  H   UNL     1     -13.802   9.529  23.900  0.00  0.00    +0.149 HD
BRANCH  21  16
ATOM     16  C   UNL     1     -12.349  10.707  25.574  0.00  0.00    +0.075 C 
ATOM     19  C   UNL     1     -10.934  10.433  26.085  0.00  0.00    +0.013 C 
ATOM     20  C   UNL     1     -12.982  11.903  26.288  0.00  0.00    +0.013 C 
ATOM     22  C   UNL     1     -10.910  10.261  27.601  0.00  0.00    +0.001 C 
ATOM     23  C   UNL     1     -12.952  11.732  27.804  0.00  0.00    +0.001 C 
ATOM     24  C   UNL     1     -11.540  11.455  28.312  0.00  0.00    +0.000 C 
ENDBRANCH  21  16
ENDBRANCH  12   3
ENDBRANCH   6  12
BRANCH   8  13
ATOM     13  C   UNL     1     -12.556   8.971  17.365  0.00  0.00    +0.103 C 
BRANCH  13  18
ATOM      1  O   UNL     1     -10.832   8.729  15.740  0.00  0.00    -0.276 OA
ATOM      4  N   UNL     1     -12.973   8.139  15.104  0.00  0.00    -0.301 N 
ATOM     18  C   UNL     1     -12.030   8.604  16.001  0.00  0.00    +0.216 C 
ATOM     25  C   UNL     1     -12.628   7.750  13.745  0.00  0.00    +0.108 C 
ATOM     26  C   UNL     1     -14.401   7.965  15.350  0.00  0.00    +0.108 C 
ATOM     27  C   UNL     1     -13.857   7.015  13.234  0.00  0.00    +0.020 C 
ATOM     28  C   UNL     1     -14.996   7.706  13.973  0.00  0.00    +0.020 C 
ENDBRANCH  13  18
ENDBRANCH   8  13
TORSDOF 6
ENDMDL
MODEL 8
REMARK VINA RESULT:      -6.0     25.470     28.815
REMARK  Name = 38028829
REMARK  9 active torsions:
REMARK  status: ('A' for Active; 'I' for Inactive)
REMARK    1  A    between atoms: N_3  and  C_12
REMARK    2  A    between atoms: C_5  and  C_9
REMARK    3  A    between atoms: C_6  and  C_12
REMARK    4  A    between atoms: C_8  and  C_13
REMARK    5  A    between atoms: C_9  and  C_14
REMARK    6  A    between atoms: C_9  and  C_15
REMARK    7  A    between atoms: C_10  and  C_17
REMARK    8  A    between atoms: C_13  and  C_18
REMARK    9  A    between atoms: C_16  and  C_21
REMARK                            x       y       z     vdW  Elec       q    Type
REMARK                         _______ _______ _______ _____ _____    ______ ____
ROOT
ATOM      5  C   UNL     1      -4.990 -12.262  16.396  0.00  0.00    +0.000 C 
ATOM      6  C   UNL     1      -4.154 -11.730  17.587  0.00  0.00    +0.032 C 
ATOM      7  C   UNL     1      -4.068 -12.747  15.268  0.00  0.00    +0.012 C 
ATOM      8  C   UNL     1      -3.139 -11.631  14.754  0.00  0.00    +0.023 C 
ATOM     10  C   UNL     1      -2.479 -10.878  15.890  0.00  0.00    -0.073 C 
ATOM     11  C   UNL     1      -2.939 -10.945  17.153  0.00  0.00    -0.022 C 
ATOM     17  C   UNL     1      -1.249 -10.082  15.552  0.00  0.00    +0.039 C 
ENDROOT
BRANCH   5   9
ATOM      9  C   UNL     1      -5.931 -13.394  16.822  0.00  0.00    -0.013 C 
ATOM     14  C   UNL     1      -7.169 -13.420  15.933  0.00  0.00    +0.007 C 
ATOM     15  C   UNL     1      -5.203 -14.734  16.774  0.00  0.00    +0.007 C 
ENDBRANCH   5   9
BRANCH   6  12
ATOM     12  C   UNL     1      -5.010 -10.868  18.523  0.00  0.00    +0.112 C 
BRANCH  12   3
ATOM      2  O   UNL     1      -7.621 -10.866  19.790  0.00  0.00    -0.276 OA
ATOM      3  N   UNL     1      -6.268 -10.558  17.920  0.00  0.00    -0.315 N 
ATOM     21  C   UNL     1      -7.480 -10.582  18.604  0.00  0.00    +0.216 C 
ATOM     29  H   UNL     1      -6.253 -10.210  16.967  0.00  0.00    +0.149 HD
BRANCH  21  16
ATOM     16  C   UNL     1      -8.641 -10.192  17.741  0.00  0.00    +0.075 C 
ATOM     19  C   UNL     1      -9.901 -10.049  18.596  0.00  0.00    +0.013 C 
ATOM     20  C   UNL     1      -8.310  -8.891  17.008  0.00  0.00    +0.013 C 
ATOM     22  C   UNL     1     -11.084  -9.551  17.771  0.00  0.00    +0.001 C 
ATOM     23  C   UNL     1      -9.496  -8.392  16.187  0.00  0.00    +0.001 C 
ATOM     24  C   UNL     1     -10.753  -8.253  17.040  0.00  0.00    +0.000 C 
ENDBRANCH  21  16
ENDBRANCH  12   3
ENDBRANCH   6  12
BRANCH   8  13
ATOM     13  C   UNL     1      -3.892 -10.672  13.824  0.00  0.00    +0.103 C 
BRANCH  13  18
ATOM      1  O   UNL     1      -2.055 -11.067  12.361  0.00  0.00    -0.276 OA
ATOM      4  N   UNL     1      -3.837  -9.862  11.517  0.00  0.00    -0.301 N 
ATOM     18  C   UNL     1      -3.169 -10.560  12.506  0.00  0.00    +0.216 C 
ATOM     25  C   UNL     1      -3.271  -9.659  10.192  0.00  0.00    +0.108 C 
ATOM     26  C   UNL     1      -5.153  -9.242  11.624  0.00  0.00    +0.108 C 
ATOM     27  C   UNL     1      -4.434  -9.152   9.354  0.00  0.00    +0.020 C 
ATOM     28  C   UNL     1      -5.274  -8.388  10.369  0.00  0.00    +0.020 C 
ENDBRANCH  13  18
ENDBRANCH   8  13
TORSDOF 6
ENDMDL
MODEL 9
REMARK VINA RESULT:      -5.8     12.926     16.551
REMARK  Name = 38028829
REMARK  9 active torsions:
REMARK  status: ('A' for Active; 'I' for Inactive)
REMARK    1  A    between atoms: N_3  and  C_12
REMARK    2  A    between atoms: C_5  and  C_9
REMARK    3  A    between atoms: C_6  and  C_12
REMARK    4  A    between atoms: C_8  and  C_13
REMARK    5  A    between atoms: C_9  and  C_14
REMARK    6  A    between atoms: C_9  and  C_15
REMARK    7  A    between atoms: C_10  and  C_17
REMARK    8  A    between atoms: C_13  and  C_18
REMARK    9  A    between atoms: C_16  and  C_21
REMARK                            x       y       z     vdW  Elec       q    Type
REMARK                         _______ _______ _______ _____ _____    ______ ____
ROOT
ATOM      5  C   UNL     1      17.968  -3.308  23.791  0.00  0.00    +0.000 C 
ATOM      6  C   UNL     1      18.990  -4.270  23.136  0.00  0.00    +0.032 C 
ATOM      7  C   UNL     1      18.695  -2.202  24.571  0.00  0.00    +0.012 C 
ATOM      8  C   UNL     1      19.607  -2.771  25.674  0.00  0.00    +0.023 C 
ATOM     10  C   UNL     1      20.462  -3.914  25.166  0.00  0.00    -0.073 C 
ATOM     11  C   UNL     1      20.178  -4.563  24.022  0.00  0.00    -0.022 C 
ATOM     17  C   UNL     1      21.677  -4.265  25.978  0.00  0.00    +0.039 C 
ENDROOT
BRANCH   5   9
ATOM      9  C   UNL     1      17.031  -2.681  22.753  0.00  0.00    -0.013 C 
ATOM     14  C   UNL     1      15.575  -2.927  23.134  0.00  0.00    +0.007 C 
ATOM     15  C   UNL     1      17.310  -1.187  22.619  0.00  0.00    +0.007 C 
ENDBRANCH   5   9
BRANCH   6  12
ATOM     12  C   UNL     1      18.325  -5.587  22.722  0.00  0.00    +0.112 C 
BRANCH  12   3
ATOM      2  O   UNL     1      18.739  -7.722  24.644  0.00  0.00    -0.276 OA
ATOM      3  N   UNL     1      17.417  -6.036  23.730  0.00  0.00    -0.315 N 
ATOM     21  C   UNL     1      17.697  -7.073  24.616  0.00  0.00    +0.216 C 
ATOM     29  H   UNL     1      16.565  -5.499  23.862  0.00  0.00    +0.149 HD
BRANCH  21  16
ATOM     16  C   UNL     1      16.583  -7.323  25.587  0.00  0.00    +0.075 C 
ATOM     19  C   UNL     1      16.606  -8.783  26.041  0.00  0.00    +0.013 C 
ATOM     20  C   UNL     1      16.722  -6.365  26.772  0.00  0.00    +0.013 C 
ATOM     22  C   UNL     1      15.551  -9.054  27.109  0.00  0.00    +0.001 C 
ATOM     23  C   UNL     1      15.669  -6.641  27.842  0.00  0.00    +0.001 C 
ATOM     24  C   UNL     1      15.690  -8.099  28.291  0.00  0.00    +0.000 C 
ENDBRANCH  21  16
ENDBRANCH  12   3
ENDBRANCH   6  12
BRANCH   8  13
ATOM     13  C   UNL     1      18.790  -3.199  26.899  0.00  0.00    +0.103 C 
BRANCH  13  18
ATOM      1  O   UNL     1      20.199  -1.701  28.100  0.00  0.00    -0.276 OA
ATOM      4  N   UNL     1      18.201  -2.297  29.095  0.00  0.00    -0.301 N 
ATOM     18  C   UNL     1      19.137  -2.327  28.079  0.00  0.00    +0.216 C 
ATOM     25  C   UNL     1      18.390  -1.510  30.304  0.00  0.00    +0.108 C 
ATOM     26  C   UNL     1      16.928  -3.010  29.129  0.00  0.00    +0.108 C 
ATOM     27  C   UNL     1      17.025  -1.504  30.973  0.00  0.00    +0.020 C 
ATOM     28  C   UNL     1      16.441  -2.850  30.563  0.00  0.00    +0.020 C 
ENDBRANCH  13  18
ENDBRANCH   8  13
TORSDOF 6
ENDMDL
MODEL 10
REMARK VINA RESULT:      -5.7     12.860     15.148
REMARK  Name = 38028829
REMARK  9 active torsions:
REMARK  status: ('A' for Active; 'I' for Inactive)
REMARK    1  A    between atoms: N_3  and  C_12
REMARK    2  A    between atoms: C_5  and  C_9
REMARK    3  A    between atoms: C_6  and  C_12
REMARK    4  A    between atoms: C_8  and  C_13
REMARK    5  A    between atoms: C_9  and  C_14
REMARK    6  A    between atoms: C_9  and  C_15
REMARK    7  A    between atoms: C_10  and  C_17
REMARK    8  A    between atoms: C_13  and  C_18
REMARK    9  A    between atoms: C_16  and  C_21
REMARK                            x       y       z     vdW  Elec       q    Type
REMARK                         _______ _______ _______ _____ _____    ______ ____
ROOT
ATOM      5  C   UNL     1       9.048   8.376   4.915  0.00  0.00    +0.000 C 
ATOM      6  C   UNL     1       8.762   9.225   6.179  0.00  0.00    +0.032 C 
ATOM      7  C   UNL     1       8.443   6.972   5.065  0.00  0.00    +0.012 C 
ATOM      8  C   UNL     1       9.000   6.225   6.293  0.00  0.00    +0.023 C 
ATOM     10  C   UNL     1       9.000   7.098   7.531  0.00  0.00    -0.073 C 
ATOM     11  C   UNL     1       8.879   8.436   7.461  0.00  0.00    -0.022 C 
ATOM     17  C   UNL     1       9.096   6.394   8.856  0.00  0.00    +0.039 C 
ENDROOT
BRANCH   5   9
ATOM      9  C   UNL     1       8.505   9.042   3.647  0.00  0.00    -0.013 C 
ATOM     14  C   UNL     1       8.701   8.130   2.441  0.00  0.00    +0.007 C 
ATOM     15  C   UNL     1       7.031   9.397   3.823  0.00  0.00    +0.007 C 
ENDBRANCH   5   9
BRANCH   6  12
ATOM     12  C   UNL     1       9.687  10.447   6.246  0.00  0.00    +0.112 C 
BRANCH  12   3
ATOM      2  O   UNL     1      11.998   9.998   7.943  0.00  0.00    -0.276 OA
ATOM      3  N   UNL     1      11.012  10.103   5.835  0.00  0.00    -0.315 N 
ATOM     21  C   UNL     1      12.068   9.904   6.720  0.00  0.00    +0.216 C 
ATOM     29  H   UNL     1      11.156   9.900   4.851  0.00  0.00    +0.149 HD
BRANCH  21  16
ATOM     16  C   UNL     1      13.342   9.529   6.028  0.00  0.00    +0.075 C 
ATOM     19  C   UNL     1      14.509  10.322   6.619  0.00  0.00    +0.013 C 
ATOM     20  C   UNL     1      13.564   8.021   6.161  0.00  0.00    +0.013 C 
ATOM     22  C   UNL     1      15.842   9.893   6.011  0.00  0.00    +0.001 C 
ATOM     23  C   UNL     1      14.900   7.595   5.557  0.00  0.00    +0.001 C 
ATOM     24  C   UNL     1      16.063   8.389   6.145  0.00  0.00    +0.000 C 
ENDBRANCH  21  16
ENDBRANCH  12   3
ENDBRANCH   6  12
BRANCH   8  13
ATOM     13  C   UNL     1      10.402   5.671   6.012  0.00  0.00    +0.103 C 
BRANCH  13  18
ATOM      1  O   UNL     1       9.721   3.571   5.119  0.00  0.00    -0.276 OA
ATOM      4  N   UNL     1      10.994   4.935   3.756  0.00  0.00    -0.301 N 
ATOM     18  C   UNL     1      10.333   4.624   4.929  0.00  0.00    +0.216 C 
ATOM     25  C   UNL     1      11.028   4.028   2.619  0.00  0.00    +0.108 C 
ATOM     26  C   UNL     1      11.731   6.161   3.468  0.00  0.00    +0.108 C 
ATOM     27  C   UNL     1      11.557   4.874   1.471  0.00  0.00    +0.020 C 
ATOM     28  C   UNL     1      12.477   5.862   2.175  0.00  0.00    +0.020 C 
ENDBRANCH  13  18
ENDBRANCH   8  13
TORSDOF 6
ENDMDL
