REMARK  Name = 11911715
REMARK  9 active torsions:
REMARK  status: ('A' for Active; 'I' for Inactive)
REMARK    1  A    between atoms: O_4  and  C_27
REMARK    2  A    between atoms: O_4  and  C_33
REMARK    3  A    between atoms: N_5  and  C_12
REMARK    4  A    between atoms: N_6  and  C_13
REMARK    5  A    between atoms: N_9  and  C_32
REMARK    6  A    between atoms: N_9  and  C_34
REMARK    7  A    between atoms: N_9  and  C_35
REMARK    8  A    between atoms: C_17  and  C_18
REMARK    9  A    between atoms: C_19  and  C_24
REMARK                            x       y       z     vdW  Elec       q    Type
REMARK                         _______ _______ _______ _____ _____    ______ ____
ROOT
ATOM      1  O   UNL     1      -1.201   4.102   0.997  0.00  0.00    -0.370 OA
ATOM      2  O   UNL     1      -0.369   1.236   1.909  0.00  0.00    -0.370 OA
ATOM     10  C   UNL     1      -0.248   1.948   0.665  0.00  0.00    +0.171 C 
ATOM     11  C   UNL     1      -1.500   2.786   0.503  0.00  0.00    +0.171 C 
ATOM     12  C   UNL     1       0.868   2.962   0.749  0.00  0.00    +0.130 C 
ATOM     13  C   UNL     1      -2.515   2.108   1.395  0.00  0.00    +0.130 C 
ATOM     14  C   UNL     1       0.182   4.161   1.377  0.00  0.00    +0.185 C 
ATOM     15  C   UNL     1      -1.645   1.530   2.496  0.00  0.00    +0.185 C 
ENDROOT
BRANCH  12   5
ATOM      5  N   UNL     1       1.336   3.293  -0.580  0.00  0.00    -0.306 N 
ATOM      7  N   UNL     1       2.806   1.465  -0.637  0.00  0.00    -0.214 NA
ATOM      8  N   UNL     1       2.638   2.977  -2.506  0.00  0.00    -0.223 NA
ATOM     16  C   UNL     1       2.288   2.556  -1.261  0.00  0.00    +0.216 A 
ATOM     19  C   UNL     1       3.732   0.770  -1.330  0.00  0.00    +0.076 A 
ATOM     22  C   UNL     1       3.569   2.235  -3.142  0.00  0.00    +0.116 A 
ATOM     23  C   UNL     1       4.156   1.111  -2.598  0.00  0.00    +0.048 A 
ATOM     36  H   UNL     1       0.919   4.074  -1.075  0.00  0.00    +0.149 HD
BRANCH  19  24
ATOM     24  C   UNL     1       4.267  -0.385  -0.649  0.00  0.00    +0.001 A 
ATOM     28  C   UNL     1       3.479  -1.086   0.266  0.00  0.00    +0.012 A 
ATOM     29  C   UNL     1       5.574  -0.807  -0.906  0.00  0.00    +0.012 A 
ATOM     30  C   UNL     1       3.996  -2.204   0.923  0.00  0.00    +0.024 A 
ATOM     31  C   UNL     1       6.090  -1.924  -0.249  0.00  0.00    +0.024 A 
ATOM     32  C   UNL     1       5.301  -2.622   0.665  0.00  0.00    +0.029 A 
BRANCH  32   9
ATOM      9  N   UNL     1       5.824  -3.752   1.329  0.00  0.00    -0.336 N 
ATOM     34  C   UNL     1       5.376  -4.089   2.666  0.00  0.00    +0.129 C 
ATOM     35  C   UNL     1       6.825  -4.581   0.690  0.00  0.00    +0.129 C 
ENDBRANCH  32   9
ENDBRANCH  19  24
ENDBRANCH  12   5
BRANCH  13   6
ATOM      3  O   UNL     1      -5.139   1.103   1.990  0.00  0.00    -0.270 OA
ATOM      6  N   UNL     1      -3.221   1.068   0.686  0.00  0.00    -0.304 N 
ATOM     17  C   UNL     1      -4.492   0.648   1.050  0.00  0.00    +0.244 C 
ATOM     37  H   UNL     1      -2.703   0.568  -0.029  0.00  0.00    +0.149 HD
BRANCH  17  18
ATOM     18  C   UNL     1      -5.072  -0.451   0.235  0.00  0.00    +0.037 A 
ATOM     20  C   UNL     1      -6.006  -1.286   0.813  0.00  0.00    +0.016 A 
ATOM     21  C   UNL     1      -4.660  -0.600  -1.073  0.00  0.00    +0.016 A 
ATOM     25  C   UNL     1      -6.551  -2.318   0.049  0.00  0.00    +0.046 A 
ATOM     26  C   UNL     1      -5.205  -1.632  -1.837  0.00  0.00    +0.046 A 
ATOM     27  C   UNL     1      -6.151  -2.490  -1.276  0.00  0.00    +0.120 A 
BRANCH  27   4
ATOM      4  O   UNL     1      -6.684  -3.496  -2.023  0.00  0.00    -0.495 OA
ATOM     33  C   UNL     1      -7.647  -4.336  -1.388  0.00  0.00    +0.277 C 
ENDBRANCH  27   4
ENDBRANCH  17  18
ENDBRANCH  13   6
TORSDOF 6
