MODEL 1
REMARK VINA RESULT:      -6.0      0.000      0.000
REMARK  Name = 45360415
REMARK  8 active torsions:
REMARK  status: ('A' for Active; 'I' for Inactive)
REMARK    1  A    between atoms: O_1  and  C_20
REMARK    2  A    between atoms: O_1  and  C_21
REMARK    3  A    between atoms: N_3  and  C_12
REMARK    4  A    between atoms: N_3  and  C_14
REMARK    5  A    between atoms: C_5  and  C_11
REMARK    6  A    between atoms: C_6  and  C_12
REMARK    7  A    between atoms: C_11  and  C_13
REMARK    8  A    between atoms: C_14  and  C_15
REMARK                            x       y       z     vdW  Elec       q    Type
REMARK                         _______ _______ _______ _____ _____    ______ ____
ROOT
ATOM      3  N   UNL     1      15.511   8.785  21.754  0.00  0.00    -0.311 NA
ATOM     22  H   UNL     1      16.170   8.924  22.520  0.00  0.00    +0.122 HD
ENDROOT
BRANCH   3  12
ATOM     12  C   UNL     1      14.764   7.558  21.975  0.00  0.00    +0.100 C 
BRANCH  12   6
ATOM      2  N   UNL     1      12.535   6.735  21.167  0.00  0.00    -0.298 NA
ATOM      4  C   UNL     1      11.793   9.058  20.261  0.00  0.00    -0.004 C 
ATOM      5  C   UNL     1      12.234   8.129  19.106  0.00  0.00    +0.006 C 
ATOM      6  C   UNL     1      13.258   7.818  21.889  0.00  0.00    +0.071 C 
ATOM      7  C   UNL     1      12.948   9.199  21.269  0.00  0.00    +0.024 C 
ATOM      8  C   UNL     1      12.797   6.824  19.710  0.00  0.00    +0.088 C 
ATOM      9  C   UNL     1      10.636   8.347  20.988  0.00  0.00    +0.019 C 
ATOM     10  C   UNL     1      11.082   6.929  21.388  0.00  0.00    +0.085 C 
BRANCH   5  11
ATOM     11  C   UNL     1      13.230   8.784  18.152  0.00  0.00    +0.002 C 
ATOM     13  C   UNL     1      14.190   7.766  17.569  0.00  0.00    +0.004 C 
ENDBRANCH   5  11
ENDBRANCH  12   6
ENDBRANCH   3  12
BRANCH   3  14
ATOM     14  C   UNL     1      16.233   8.738  20.489  0.00  0.00    +0.116 C 
BRANCH  14  15
ATOM     15  C   UNL     1      17.368   7.749  20.528  0.00  0.00    -0.033 A 
ATOM     16  C   UNL     1      18.457   7.967  21.371  0.00  0.00    +0.008 A 
ATOM     17  C   UNL     1      17.329   6.613  19.719  0.00  0.00    +0.008 A 
ATOM     18  C   UNL     1      19.507   7.050  21.407  0.00  0.00    +0.046 A 
ATOM     19  C   UNL     1      18.380   5.695  19.755  0.00  0.00    +0.046 A 
ATOM     20  C   UNL     1      19.468   5.914  20.598  0.00  0.00    +0.120 A 
BRANCH  20   1
ATOM      1  O   UNL     1      20.493   5.019  20.633  0.00  0.00    -0.495 OA
ATOM     21  C   UNL     1      21.362   5.073  21.763  0.00  0.00    +0.277 C 
ENDBRANCH  20   1
ENDBRANCH  14  15
ENDBRANCH   3  14
TORSDOF 6
ENDMDL
MODEL 2
REMARK VINA RESULT:      -5.9      1.183      2.708
REMARK  Name = 45360415
REMARK  8 active torsions:
REMARK  status: ('A' for Active; 'I' for Inactive)
REMARK    1  A    between atoms: O_1  and  C_20
REMARK    2  A    between atoms: O_1  and  C_21
REMARK    3  A    between atoms: N_3  and  C_12
REMARK    4  A    between atoms: N_3  and  C_14
REMARK    5  A    between atoms: C_5  and  C_11
REMARK    6  A    between atoms: C_6  and  C_12
REMARK    7  A    between atoms: C_11  and  C_13
REMARK    8  A    between atoms: C_14  and  C_15
REMARK                            x       y       z     vdW  Elec       q    Type
REMARK                         _______ _______ _______ _____ _____    ______ ____
ROOT
ATOM      3  N   UNL     1      15.873   8.213  22.201  0.00  0.00    -0.311 NA
ATOM     22  H   UNL     1      15.781   7.238  21.917  0.00  0.00    +0.122 HD
ENDROOT
BRANCH   3  12
ATOM     12  C   UNL     1      14.700   8.955  21.770  0.00  0.00    +0.100 C 
BRANCH  12   6
ATOM      2  N   UNL     1      13.271   9.422  19.762  0.00  0.00    -0.298 NA
ATOM      4  C   UNL     1      12.350   6.993  19.617  0.00  0.00    -0.004 C 
ATOM      5  C   UNL     1      11.299   7.946  20.231  0.00  0.00    +0.006 C 
ATOM      6  C   UNL     1      14.229   8.475  20.396  0.00  0.00    +0.071 C 
ATOM      7  C   UNL     1      13.640   7.048  20.457  0.00  0.00    +0.024 C 
ATOM      8  C   UNL     1      11.947   9.335  20.425  0.00  0.00    +0.088 C 
ATOM      9  C   UNL     1      12.691   7.543  18.220  0.00  0.00    +0.019 C 
ATOM     10  C   UNL     1      13.104   9.022  18.343  0.00  0.00    +0.085 C 
BRANCH   5  11
ATOM     11  C   UNL     1      10.694   7.420  21.530  0.00  0.00    +0.002 C 
ATOM     13  C   UNL     1      10.801   8.443  22.644  0.00  0.00    +0.004 C 
ENDBRANCH   5  11
ENDBRANCH  12   6
ENDBRANCH   3  12
BRANCH   3  14
ATOM     14  C   UNL     1      17.089   8.777  21.629  0.00  0.00    +0.116 C 
BRANCH  14  15
ATOM     15  C   UNL     1      18.083   7.708  21.260  0.00  0.00    -0.033 A 
ATOM     16  C   UNL     1      17.731   6.708  20.354  0.00  0.00    +0.008 A 
ATOM     17  C   UNL     1      19.358   7.717  21.827  0.00  0.00    +0.008 A 
ATOM     18  C   UNL     1      18.653   5.719  20.013  0.00  0.00    +0.046 A 
ATOM     19  C   UNL     1      20.280   6.727  21.487  0.00  0.00    +0.046 A 
ATOM     20  C   UNL     1      19.927   5.729  20.580  0.00  0.00    +0.120 A 
BRANCH  20   1
ATOM      1  O   UNL     1      20.827   4.762  20.248  0.00  0.00    -0.495 OA
ATOM     21  C   UNL     1      21.507   4.113  21.320  0.00  0.00    +0.277 C 
ENDBRANCH  20   1
ENDBRANCH  14  15
ENDBRANCH   3  14
TORSDOF 6
ENDMDL
MODEL 3
REMARK VINA RESULT:      -5.7     15.228     17.816
REMARK  Name = 45360415
REMARK  8 active torsions:
REMARK  status: ('A' for Active; 'I' for Inactive)
REMARK    1  A    between atoms: O_1  and  C_20
REMARK    2  A    between atoms: O_1  and  C_21
REMARK    3  A    between atoms: N_3  and  C_12
REMARK    4  A    between atoms: N_3  and  C_14
REMARK    5  A    between atoms: C_5  and  C_11
REMARK    6  A    between atoms: C_6  and  C_12
REMARK    7  A    between atoms: C_11  and  C_13
REMARK    8  A    between atoms: C_14  and  C_15
REMARK                            x       y       z     vdW  Elec       q    Type
REMARK                         _______ _______ _______ _____ _____    ______ ____
ROOT
ATOM      3  N   UNL     1      11.289   4.972   3.678  0.00  0.00    -0.311 NA
ATOM     22  H   UNL     1      12.217   4.691   3.991  0.00  0.00    +0.122 HD
ENDROOT
BRANCH   3  12
ATOM     12  C   UNL     1      10.333   4.773   4.754  0.00  0.00    +0.100 C 
BRANCH  12   6
ATOM      2  N   UNL     1      11.171   6.566   6.297  0.00  0.00    -0.298 NA
ATOM      4  C   UNL     1       8.959   6.691   7.660  0.00  0.00    -0.004 C 
ATOM      5  C   UNL     1      10.045   5.913   8.439  0.00  0.00    +0.006 C 
ATOM      6  C   UNL     1      10.031   6.096   5.463  0.00  0.00    +0.071 C 
ATOM      7  C   UNL     1       8.731   6.019   6.294  0.00  0.00    +0.024 C 
ATOM      8  C   UNL     1      11.281   5.746   7.527  0.00  0.00    +0.088 C 
ATOM      9  C   UNL     1       9.526   8.098   7.388  0.00  0.00    +0.019 C 
ATOM     10  C   UNL     1      10.897   7.967   6.698  0.00  0.00    +0.085 C 
BRANCH   5  11
ATOM     11  C   UNL     1       9.555   4.570   8.976  0.00  0.00    +0.002 C 
ATOM     13  C   UNL     1       8.821   4.735  10.292  0.00  0.00    +0.004 C 
ENDBRANCH   5  11
ENDBRANCH  12   6
ENDBRANCH   3  12
BRANCH   3  14
ATOM     14  C   UNL     1      10.916   4.201   2.498  0.00  0.00    +0.116 C 
BRANCH  14  15
ATOM     15  C   UNL     1      12.017   4.180   1.471  0.00  0.00    -0.033 A 
ATOM     16  C   UNL     1      13.240   3.580   1.770  0.00  0.00    +0.008 A 
ATOM     17  C   UNL     1      11.814   4.762   0.220  0.00  0.00    +0.008 A 
ATOM     18  C   UNL     1      14.259   3.561   0.819  0.00  0.00    +0.046 A 
ATOM     19  C   UNL     1      12.833   4.743  -0.732  0.00  0.00    +0.046 A 
ATOM     20  C   UNL     1      14.056   4.143  -0.432  0.00  0.00    +0.120 A 
BRANCH  20   1
ATOM      1  O   UNL     1      15.051   4.124  -1.361  0.00  0.00    -0.495 OA
ATOM     21  C   UNL     1      14.724   4.584  -2.671  0.00  0.00    +0.277 C 
ENDBRANCH  20   1
ENDBRANCH  14  15
ENDBRANCH   3  14
TORSDOF 6
ENDMDL
MODEL 4
REMARK VINA RESULT:      -5.6     26.337     28.040
REMARK  Name = 45360415
REMARK  8 active torsions:
REMARK  status: ('A' for Active; 'I' for Inactive)
REMARK    1  A    between atoms: O_1  and  C_20
REMARK    2  A    between atoms: O_1  and  C_21
REMARK    3  A    between atoms: N_3  and  C_12
REMARK    4  A    between atoms: N_3  and  C_14
REMARK    5  A    between atoms: C_5  and  C_11
REMARK    6  A    between atoms: C_6  and  C_12
REMARK    7  A    between atoms: C_11  and  C_13
REMARK    8  A    between atoms: C_14  and  C_15
REMARK                            x       y       z     vdW  Elec       q    Type
REMARK                         _______ _______ _______ _____ _____    ______ ____
ROOT
ATOM      3  N   UNL     1      -3.018 -10.288  15.600  0.00  0.00    -0.311 NA
ATOM     22  H   UNL     1      -2.216  -9.753  15.929  0.00  0.00    +0.122 HD
ENDROOT
BRANCH   3  12
ATOM     12  C   UNL     1      -3.600 -11.023  16.711  0.00  0.00    +0.100 C 
BRANCH  12   6
ATOM      2  N   UNL     1      -5.790 -11.284  17.908  0.00  0.00    -0.298 NA
ATOM      4  C   UNL     1      -7.127  -9.898  16.158  0.00  0.00    -0.004 C 
ATOM      5  C   UNL     1      -7.376 -11.413  15.971  0.00  0.00    +0.006 C 
ATOM      6  C   UNL     1      -4.880 -10.341  17.201  0.00  0.00    +0.071 C 
ATOM      7  C   UNL     1      -5.618  -9.613  16.055  0.00  0.00    +0.024 C 
ATOM      8  C   UNL     1      -6.451 -12.188  16.936  0.00  0.00    +0.088 C 
ATOM      9  C   UNL     1      -7.560  -9.549  17.595  0.00  0.00    +0.019 C 
ATOM     10  C   UNL     1      -6.841 -10.484  18.584  0.00  0.00    +0.085 C 
BRANCH   5  11
ATOM     11  C   UNL     1      -7.201 -11.878  14.527  0.00  0.00    +0.002 C 
ATOM     13  C   UNL     1      -6.164 -12.980  14.423  0.00  0.00    +0.004 C 
ENDBRANCH   5  11
ENDBRANCH  12   6
ENDBRANCH   3  12
BRANCH   3  14
ATOM     14  C   UNL     1      -2.602 -11.193  14.535  0.00  0.00    +0.116 C 
BRANCH  14  15
ATOM     15  C   UNL     1      -2.864 -10.611  13.171  0.00  0.00    -0.033 A 
ATOM     16  C   UNL     1      -1.797 -10.271  12.340  0.00  0.00    +0.008 A 
ATOM     17  C   UNL     1      -4.175 -10.412  12.740  0.00  0.00    +0.008 A 
ATOM     18  C   UNL     1      -2.041  -9.733  11.077  0.00  0.00    +0.046 A 
ATOM     19  C   UNL     1      -4.420  -9.873  11.476  0.00  0.00    +0.046 A 
ATOM     20  C   UNL     1      -3.352  -9.534  10.645  0.00  0.00    +0.120 A 
BRANCH  20   1
ATOM      1  O   UNL     1      -3.590  -9.008   9.412  0.00  0.00    -0.495 OA
ATOM     21  C   UNL     1      -4.807  -9.386   8.770  0.00  0.00    +0.277 C 
ENDBRANCH  20   1
ENDBRANCH  14  15
ENDBRANCH   3  14
TORSDOF 6
ENDMDL
MODEL 5
REMARK VINA RESULT:      -5.5     26.561     28.366
REMARK  Name = 45360415
REMARK  8 active torsions:
REMARK  status: ('A' for Active; 'I' for Inactive)
REMARK    1  A    between atoms: O_1  and  C_20
REMARK    2  A    between atoms: O_1  and  C_21
REMARK    3  A    between atoms: N_3  and  C_12
REMARK    4  A    between atoms: N_3  and  C_14
REMARK    5  A    between atoms: C_5  and  C_11
REMARK    6  A    between atoms: C_6  and  C_12
REMARK    7  A    between atoms: C_11  and  C_13
REMARK    8  A    between atoms: C_14  and  C_15
REMARK                            x       y       z     vdW  Elec       q    Type
REMARK                         _______ _______ _______ _____ _____    ______ ____
ROOT
ATOM      3  N   UNL     1     -10.890   9.963  20.026  0.00  0.00    -0.311 NA
ATOM     22  H   UNL     1     -10.092  10.044  20.655  0.00  0.00    +0.122 HD
ENDROOT
BRANCH   3  12
ATOM     12  C   UNL     1     -10.859  11.049  19.061  0.00  0.00    +0.100 C 
BRANCH  12   6
ATOM      2  N   UNL     1     -11.586  10.999  16.660  0.00  0.00    -0.298 NA
ATOM      4  C   UNL     1     -11.262   8.429  16.419  0.00  0.00    -0.004 C 
ATOM      5  C   UNL     1     -12.760   8.786  16.566  0.00  0.00    +0.006 C 
ATOM      6  C   UNL     1     -10.587  10.516  17.652  0.00  0.00    +0.071 C 
ATOM      7  C   UNL     1     -10.487   8.974  17.632  0.00  0.00    +0.024 C 
ATOM      8  C   UNL     1     -12.880  10.300  16.849  0.00  0.00    +0.088 C 
ATOM      9  C   UNL     1     -10.746   9.176  15.174  0.00  0.00    +0.019 C 
ATOM     10  C   UNL     1     -11.079  10.673  15.305  0.00  0.00    +0.085 C 
BRANCH   5  11
ATOM     11  C   UNL     1     -13.475   7.956  17.629  0.00  0.00    +0.002 C 
ATOM     13  C   UNL     1     -14.774   8.609  18.060  0.00  0.00    +0.004 C 
ENDBRANCH   5  11
ENDBRANCH  12   6
ENDBRANCH   3  12
BRANCH   3  14
ATOM     14  C   UNL     1     -12.127   9.983  20.798  0.00  0.00    +0.116 C 
BRANCH  14  15
ATOM     15  C   UNL     1     -12.616   8.593  21.110  0.00  0.00    -0.033 A 
ATOM     16  C   UNL     1     -13.864   8.408  21.702  0.00  0.00    +0.008 A 
ATOM     17  C   UNL     1     -11.818   7.490  20.805  0.00  0.00    +0.008 A 
ATOM     18  C   UNL     1     -14.316   7.121  21.990  0.00  0.00    +0.046 A 
ATOM     19  C   UNL     1     -12.270   6.202  21.093  0.00  0.00    +0.046 A 
ATOM     20  C   UNL     1     -13.519   6.018  21.686  0.00  0.00    +0.120 A 
BRANCH  20   1
ATOM      1  O   UNL     1     -13.960   4.761  21.967  0.00  0.00    -0.495 OA
ATOM     21  C   UNL     1     -15.094   4.649  22.824  0.00  0.00    +0.277 C 
ENDBRANCH  20   1
ENDBRANCH  14  15
ENDBRANCH   3  14
TORSDOF 6
ENDMDL
MODEL 6
REMARK VINA RESULT:      -5.4     26.605     28.429
REMARK  Name = 45360415
REMARK  8 active torsions:
REMARK  status: ('A' for Active; 'I' for Inactive)
REMARK    1  A    between atoms: O_1  and  C_20
REMARK    2  A    between atoms: O_1  and  C_21
REMARK    3  A    between atoms: N_3  and  C_12
REMARK    4  A    between atoms: N_3  and  C_14
REMARK    5  A    between atoms: C_5  and  C_11
REMARK    6  A    between atoms: C_6  and  C_12
REMARK    7  A    between atoms: C_11  and  C_13
REMARK    8  A    between atoms: C_14  and  C_15
REMARK                            x       y       z     vdW  Elec       q    Type
REMARK                         _______ _______ _______ _____ _____    ______ ____
ROOT
ATOM      3  N   UNL     1      -3.270 -10.158  15.570  0.00  0.00    -0.311 NA
ATOM     22  H   UNL     1      -4.248 -10.082  15.293  0.00  0.00    +0.122 HD
ENDROOT
BRANCH   3  12
ATOM     12  C   UNL     1      -2.486 -10.644  14.447  0.00  0.00    +0.100 C 
BRANCH  12   6
ATOM      2  N   UNL     1      -2.536 -12.143  12.436  0.00  0.00    -0.298 NA
ATOM      4  C   UNL     1      -4.975 -11.510  11.789  0.00  0.00    -0.004 C 
ATOM      5  C   UNL     1      -3.957 -10.792  10.873  0.00  0.00    +0.006 C 
ATOM      6  C   UNL     1      -3.277 -11.676  13.639  0.00  0.00    +0.071 C 
ATOM      7  C   UNL     1      -4.680 -11.153  13.257  0.00  0.00    +0.024 C 
ATOM      8  C   UNL     1      -2.532 -11.090  11.392  0.00  0.00    +0.088 C 
ATOM      9  C   UNL     1      -4.731 -13.023  11.630  0.00  0.00    +0.019 C 
ATOM     10  C   UNL     1      -3.245 -13.328  11.894  0.00  0.00    +0.085 C 
BRANCH   5  11
ATOM     11  C   UNL     1      -4.210  -9.292  10.750  0.00  0.00    +0.002 C 
ATOM     13  C   UNL     1      -4.163  -8.839   9.304  0.00  0.00    +0.004 C 
ENDBRANCH   5  11
ENDBRANCH  12   6
ENDBRANCH   3  12
BRANCH   3  14
ATOM     14  C   UNL     1      -3.153 -11.051  16.716  0.00  0.00    +0.116 C 
BRANCH  14  15
ATOM     15  C   UNL     1      -4.381 -11.010  17.586  0.00  0.00    -0.033 A 
ATOM     16  C   UNL     1      -5.518 -10.324  17.159  0.00  0.00    +0.008 A 
ATOM     17  C   UNL     1      -4.382 -11.660  18.820  0.00  0.00    +0.008 A 
ATOM     18  C   UNL     1      -6.655 -10.287  17.965  0.00  0.00    +0.046 A 
ATOM     19  C   UNL     1      -5.520 -11.624  19.627  0.00  0.00    +0.046 A 
ATOM     20  C   UNL     1      -6.656 -10.937  19.199  0.00  0.00    +0.120 A 
BRANCH  20   1
ATOM      1  O   UNL     1      -7.766 -10.901  19.986  0.00  0.00    -0.495 OA
ATOM     21  C   UNL     1      -9.029 -11.005  19.330  0.00  0.00    +0.277 C 
ENDBRANCH  20   1
ENDBRANCH  14  15
ENDBRANCH   3  14
TORSDOF 6
ENDMDL
MODEL 7
REMARK VINA RESULT:      -5.4      1.649      2.166
REMARK  Name = 45360415
REMARK  8 active torsions:
REMARK  status: ('A' for Active; 'I' for Inactive)
REMARK    1  A    between atoms: O_1  and  C_20
REMARK    2  A    between atoms: O_1  and  C_21
REMARK    3  A    between atoms: N_3  and  C_12
REMARK    4  A    between atoms: N_3  and  C_14
REMARK    5  A    between atoms: C_5  and  C_11
REMARK    6  A    between atoms: C_6  and  C_12
REMARK    7  A    between atoms: C_11  and  C_13
REMARK    8  A    between atoms: C_14  and  C_15
REMARK                            x       y       z     vdW  Elec       q    Type
REMARK                         _______ _______ _______ _____ _____    ______ ____
ROOT
ATOM      3  N   UNL     1      16.437   7.061  19.989  0.00  0.00    -0.311 NA
ATOM     22  H   UNL     1      16.486   7.038  21.007  0.00  0.00    +0.122 HD
ENDROOT
BRANCH   3  12
ATOM     12  C   UNL     1      15.130   6.596  19.557  0.00  0.00    +0.100 C 
BRANCH  12   6
ATOM      2  N   UNL     1      12.666   7.041  19.705  0.00  0.00    -0.298 NA
ATOM      4  C   UNL     1      12.916   9.607  19.355  0.00  0.00    -0.004 C 
ATOM      5  C   UNL     1      12.423   8.918  18.061  0.00  0.00    +0.006 C 
ATOM      6  C   UNL     1      14.022   7.483  20.129  0.00  0.00    +0.071 C 
ATOM      7  C   UNL     1      14.249   8.974  19.793  0.00  0.00    +0.024 C 
ATOM      8  C   UNL     1      12.432   7.389  18.282  0.00  0.00    +0.088 C 
ATOM      9  C   UNL     1      11.879   9.292  20.451  0.00  0.00    +0.019 C 
ATOM     10  C   UNL     1      11.669   7.769  20.528  0.00  0.00    +0.085 C 
BRANCH   5  11
ATOM     11  C   UNL     1      13.228   9.313  16.825  0.00  0.00    +0.002 C 
ATOM     13  C   UNL     1      12.332   9.484  15.613  0.00  0.00    +0.004 C 
ENDBRANCH   5  11
ENDBRANCH  12   6
ENDBRANCH   3  12
BRANCH   3  14
ATOM     14  C   UNL     1      17.499   6.235  19.428  0.00  0.00    +0.116 C 
BRANCH  14  15
ATOM     15  C   UNL     1      18.658   6.091  20.378  0.00  0.00    -0.033 A 
ATOM     16  C   UNL     1      18.692   6.835  21.557  0.00  0.00    +0.008 A 
ATOM     17  C   UNL     1      19.699   5.212  20.078  0.00  0.00    +0.008 A 
ATOM     18  C   UNL     1      19.766   6.701  22.437  0.00  0.00    +0.046 A 
ATOM     19  C   UNL     1      20.774   5.077  20.958  0.00  0.00    +0.046 A 
ATOM     20  C   UNL     1      20.807   5.822  22.137  0.00  0.00    +0.120 A 
BRANCH  20   1
ATOM      1  O   UNL     1      21.855   5.690  22.995  0.00  0.00    -0.495 OA
ATOM     21  C   UNL     1      22.156   6.809  23.827  0.00  0.00    +0.277 C 
ENDBRANCH  20   1
ENDBRANCH  14  15
ENDBRANCH   3  14
TORSDOF 6
ENDMDL
MODEL 8
REMARK VINA RESULT:      -5.4     16.392     19.369
REMARK  Name = 45360415
REMARK  8 active torsions:
REMARK  status: ('A' for Active; 'I' for Inactive)
REMARK    1  A    between atoms: O_1  and  C_20
REMARK    2  A    between atoms: O_1  and  C_21
REMARK    3  A    between atoms: N_3  and  C_12
REMARK    4  A    between atoms: N_3  and  C_14
REMARK    5  A    between atoms: C_5  and  C_11
REMARK    6  A    between atoms: C_6  and  C_12
REMARK    7  A    between atoms: C_11  and  C_13
REMARK    8  A    between atoms: C_14  and  C_15
REMARK                            x       y       z     vdW  Elec       q    Type
REMARK                         _______ _______ _______ _____ _____    ______ ____
ROOT
ATOM      3  N   UNL     1      10.875   7.232   2.200  0.00  0.00    -0.311 NA
ATOM     22  H   UNL     1      10.951   8.198   1.883  0.00  0.00    +0.122 HD
ENDROOT
BRANCH   3  12
ATOM     12  C   UNL     1      11.286   6.338   1.130  0.00  0.00    +0.100 C 
BRANCH  12   6
ATOM      2  N   UNL     1      13.672   5.697   0.693  0.00  0.00    -0.298 NA
ATOM      4  C   UNL     1      13.250   3.153   1.029  0.00  0.00    -0.004 C 
ATOM      5  C   UNL     1      13.367   3.500  -0.474  0.00  0.00    +0.006 C 
ATOM      6  C   UNL     1      12.484   5.489   1.564  0.00  0.00    +0.071 C 
ATOM      7  C   UNL     1      12.122   3.990   1.658  0.00  0.00    +0.024 C 
ATOM      8  C   UNL     1      13.472   5.034  -0.618  0.00  0.00    +0.088 C 
ATOM      9  C   UNL     1      14.569   3.591   1.693  0.00  0.00    +0.019 C 
ATOM     10  C   UNL     1      14.841   5.068   1.354  0.00  0.00    +0.085 C 
BRANCH   5  11
ATOM     11  C   UNL     1      12.226   2.931  -1.314  0.00  0.00    +0.002 C 
ATOM     13  C   UNL     1      12.562   2.957  -2.792  0.00  0.00    +0.004 C 
ENDBRANCH   5  11
ENDBRANCH  12   6
ENDBRANCH   3  12
BRANCH   3  14
ATOM     14  C   UNL     1       9.504   6.958   2.612  0.00  0.00    +0.116 C 
BRANCH  14  15
ATOM     15  C   UNL     1       9.421   6.588   4.070  0.00  0.00    -0.033 A 
ATOM     16  C   UNL     1       8.530   7.255   4.910  0.00  0.00    +0.008 A 
ATOM     17  C   UNL     1      10.236   5.577   4.578  0.00  0.00    +0.008 A 
ATOM     18  C   UNL     1       8.453   6.911   6.259  0.00  0.00    +0.046 A 
ATOM     19  C   UNL     1      10.160   5.233   5.928  0.00  0.00    +0.046 A 
ATOM     20  C   UNL     1       9.269   5.900   6.768  0.00  0.00    +0.120 A 
BRANCH  20   1
ATOM      1  O   UNL     1       9.194   5.564   8.085  0.00  0.00    -0.495 OA
ATOM     21  C   UNL     1       9.758   4.311   8.468  0.00  0.00    +0.277 C 
ENDBRANCH  20   1
ENDBRANCH  14  15
ENDBRANCH   3  14
TORSDOF 6
ENDMDL
MODEL 9
REMARK VINA RESULT:      -5.3     26.645     29.606
REMARK  Name = 45360415
REMARK  8 active torsions:
REMARK  status: ('A' for Active; 'I' for Inactive)
REMARK    1  A    between atoms: O_1  and  C_20
REMARK    2  A    between atoms: O_1  and  C_21
REMARK    3  A    between atoms: N_3  and  C_12
REMARK    4  A    between atoms: N_3  and  C_14
REMARK    5  A    between atoms: C_5  and  C_11
REMARK    6  A    between atoms: C_6  and  C_12
REMARK    7  A    between atoms: C_11  and  C_13
REMARK    8  A    between atoms: C_14  and  C_15
REMARK                            x       y       z     vdW  Elec       q    Type
REMARK                         _______ _______ _______ _____ _____    ______ ____
ROOT
ATOM      3  N   UNL     1      -7.846 -10.649  19.637  0.00  0.00    -0.311 NA
ATOM     22  H   UNL     1      -8.336 -10.194  20.406  0.00  0.00    +0.122 HD
ENDROOT
BRANCH   3  12
ATOM     12  C   UNL     1      -8.538 -11.876  19.280  0.00  0.00    +0.100 C 
BRANCH  12   6
ATOM      2  N   UNL     1     -10.780 -11.965  18.156  0.00  0.00    -0.298 NA
ATOM      4  C   UNL     1     -11.616  -9.747  19.227  0.00  0.00    -0.004 C 
ATOM      5  C   UNL     1     -11.205  -9.527  17.753  0.00  0.00    +0.006 C 
ATOM      6  C   UNL     1     -10.052 -11.708  19.428  0.00  0.00    +0.071 C 
ATOM      7  C   UNL     1     -10.422 -10.324  20.008  0.00  0.00    +0.024 C 
ATOM      8  C   UNL     1     -10.585 -10.836  17.214  0.00  0.00    +0.088 C 
ATOM      9  C   UNL     1     -12.723 -10.818  19.227  0.00  0.00    +0.019 C 
ATOM     10  C   UNL     1     -12.227 -12.061  18.467  0.00  0.00    +0.085 C 
BRANCH   5  11
ATOM     11  C   UNL     1     -10.267  -8.338  17.559  0.00  0.00    +0.002 C 
ATOM     13  C   UNL     1      -9.030  -8.731  16.775  0.00  0.00    +0.004 C 
ENDBRANCH   5  11
ENDBRANCH  12   6
ENDBRANCH   3  12
BRANCH   3  14
ATOM     14  C   UNL     1      -6.467 -10.920  20.026  0.00  0.00    +0.116 C 
BRANCH  14  15
ATOM     15  C   UNL     1      -5.535 -10.887  18.843  0.00  0.00    -0.033 A 
ATOM     16  C   UNL     1      -4.367 -11.648  18.854  0.00  0.00    +0.008 A 
ATOM     17  C   UNL     1      -5.842 -10.095  17.737  0.00  0.00    +0.008 A 
ATOM     18  C   UNL     1      -3.504 -11.618  17.758  0.00  0.00    +0.046 A 
ATOM     19  C   UNL     1      -4.979 -10.064  16.641  0.00  0.00    +0.046 A 
ATOM     20  C   UNL     1      -3.811 -10.825  16.652  0.00  0.00    +0.120 A 
BRANCH  20   1
ATOM      1  O   UNL     1      -2.969 -10.795  15.583  0.00  0.00    -0.495 OA
ATOM     21  C   UNL     1      -1.589 -10.551  15.850  0.00  0.00    +0.277 C 
ENDBRANCH  20   1
ENDBRANCH  14  15
ENDBRANCH   3  14
TORSDOF 6
ENDMDL
MODEL 10
REMARK VINA RESULT:      -5.2     26.293     29.567
REMARK  Name = 45360415
REMARK  8 active torsions:
REMARK  status: ('A' for Active; 'I' for Inactive)
REMARK    1  A    between atoms: O_1  and  C_20
REMARK    2  A    between atoms: O_1  and  C_21
REMARK    3  A    between atoms: N_3  and  C_12
REMARK    4  A    between atoms: N_3  and  C_14
REMARK    5  A    between atoms: C_5  and  C_11
REMARK    6  A    between atoms: C_6  and  C_12
REMARK    7  A    between atoms: C_11  and  C_13
REMARK    8  A    between atoms: C_14  and  C_15
REMARK                            x       y       z     vdW  Elec       q    Type
REMARK                         _______ _______ _______ _____ _____    ______ ____
ROOT
ATOM      3  N   UNL     1     -14.895   9.488  18.547  0.00  0.00    -0.311 NA
ATOM     22  H   UNL     1     -15.219  10.423  18.303  0.00  0.00    +0.122 HD
ENDROOT
BRANCH   3  12
ATOM     12  C   UNL     1     -14.051   8.973  17.482  0.00  0.00    +0.100 C 
BRANCH  12   6
ATOM      2  N   UNL     1     -11.628   8.322  17.445  0.00  0.00    -0.298 NA
ATOM      4  C   UNL     1     -11.066   9.561  19.662  0.00  0.00    -0.004 C 
ATOM      5  C   UNL     1     -11.177   8.036  19.894  0.00  0.00    +0.006 C 
ATOM      6  C   UNL     1     -12.601   9.425  17.673  0.00  0.00    +0.071 C 
ATOM      7  C   UNL     1     -12.382  10.081  19.055  0.00  0.00    +0.024 C 
ATOM      8  C   UNL     1     -11.651   7.372  18.583  0.00  0.00    +0.088 C 
ATOM      9  C   UNL     1      -9.961   9.774  18.609  0.00  0.00    +0.019 C 
ATOM     10  C   UNL     1     -10.272   8.918  17.368  0.00  0.00    +0.085 C 
BRANCH   5  11
ATOM     11  C   UNL     1     -12.078   7.669  21.070  0.00  0.00    +0.002 C 
ATOM     13  C   UNL     1     -12.222   6.167  21.209  0.00  0.00    +0.004 C 
ENDBRANCH   5  11
ENDBRANCH  12   6
ENDBRANCH   3  12
BRANCH   3  14
ATOM     14  C   UNL     1     -16.042   8.616  18.774  0.00  0.00    +0.116 C 
BRANCH  14  15
ATOM     15  C   UNL     1     -15.908   7.837  20.056  0.00  0.00    -0.033 A 
ATOM     16  C   UNL     1     -16.024   6.448  20.045  0.00  0.00    +0.008 A 
ATOM     17  C   UNL     1     -15.669   8.508  21.256  0.00  0.00    +0.008 A 
ATOM     18  C   UNL     1     -15.900   5.728  21.233  0.00  0.00    +0.046 A 
ATOM     19  C   UNL     1     -15.545   7.787  22.445  0.00  0.00    +0.046 A 
ATOM     20  C   UNL     1     -15.661   6.398  22.433  0.00  0.00    +0.120 A 
BRANCH  20   1
ATOM      1  O   UNL     1     -15.539   5.695  23.592  0.00  0.00    -0.495 OA
ATOM     21  C   UNL     1     -14.484   4.738  23.663  0.00  0.00    +0.277 C 
ENDBRANCH  20   1
ENDBRANCH  14  15
ENDBRANCH   3  14
TORSDOF 6
ENDMDL
