REMARK  Name = 45361323
REMARK  11 active torsions:
REMARK  status: ('A' for Active; 'I' for Inactive)
REMARK    1  A    between atoms: O_2  and  C_10
REMARK    2  A    between atoms: O_4  and  C_28
REMARK    3  A    between atoms: O_4  and  C_29
REMARK    4  A    between atoms: O_5  and  C_34
REMARK    5  A    between atoms: O_5  and  C_35
REMARK    6  A    between atoms: C_8  and  C_16
REMARK    7  A    between atoms: C_11  and  C_17
REMARK    8  A    between atoms: C_13  and  C_20
REMARK    9  A    between atoms: C_17  and  C_21
REMARK   10  A    between atoms: C_17  and  C_22
REMARK   11  A    between atoms: C_23  and  C_28
REMARK                            x       y       z     vdW  Elec       q    Type
REMARK                         _______ _______ _______ _____ _____    ______ ____
ROOT
ATOM      1  S   UNL     1      -2.328  -0.699   1.809  0.00  0.00    -0.073 S 
ATOM      6  N   UNL     1      -2.084   0.821  -0.268  0.00  0.00    -0.245 NA
ATOM      8  C   UNL     1       1.550  -1.230   0.543  0.00  0.00    -0.022 C 
ATOM      9  C   UNL     1       1.712   0.207  -0.092  0.00  0.00    +0.033 C 
ATOM     10  C   UNL     1       2.962   0.281  -1.015  0.00  0.00    +0.123 C 
ATOM     11  C   UNL     1       4.247  -0.218  -0.320  0.00  0.00    +0.029 C 
ATOM     12  C   UNL     1       2.869  -1.645   1.236  0.00  0.00    +0.008 C 
ATOM     13  C   UNL     1       0.380   0.697  -0.795  0.00  0.00    +0.042 C 
ATOM     14  C   UNL     1       4.073  -1.601   0.306  0.00  0.00    +0.007 C 
ATOM     15  C   UNL     1       0.437  -1.201   1.637  0.00  0.00    +0.051 C 
ATOM     16  C   UNL     1       1.182  -2.298  -0.519  0.00  0.00    +0.012 C 
ATOM     18  C   UNL     1      -0.824   0.342   0.044  0.00  0.00    +0.055 A 
ATOM     19  C   UNL     1      -0.780  -0.517   1.123  0.00  0.00    +0.014 A 
ATOM     20  C   UNL     1       0.376   2.202  -1.104  0.00  0.00    +0.014 C 
ATOM     23  C   UNL     1      -2.951   0.349   0.600  0.00  0.00    +0.116 A 
ENDROOT
BRANCH  10   2
ATOM      2  O   UNL     1       3.187   1.637  -1.399  0.00  0.00    -0.391 OA
ATOM     36  H   UNL     1       3.348   2.155  -0.593  0.00  0.00    +0.210 HD
ENDBRANCH  10   2
BRANCH  11  17
ATOM     17  C   UNL     1       5.444  -0.235  -1.279  0.00  0.00    +0.078 C 
ATOM     21  C   UNL     1       5.192  -1.167  -2.450  0.00  0.00    +0.017 C 
BRANCH  17  22
ATOM      3  O   UNL     1       6.980  -1.870  -0.480  0.00  0.00    -0.275 OA
ATOM      7  N   UNL     1       7.371   0.327   0.117  0.00  0.00    -0.301 N 
ATOM     22  C   UNL     1       6.666  -0.679  -0.517  0.00  0.00    +0.219 C 
ATOM     24  C   UNL     1       8.570   0.062   0.899  0.00  0.00    +0.108 C 
ATOM     25  C   UNL     1       7.056   1.752   0.110  0.00  0.00    +0.108 C 
ATOM     26  C   UNL     1       9.187   1.433   1.128  0.00  0.00    +0.020 C 
ATOM     27  C   UNL     1       7.969   2.349   1.171  0.00  0.00    +0.020 C 
ENDBRANCH  17  22
ENDBRANCH  11  17
BRANCH  23  28
ATOM     28  C   UNL     1      -4.397   0.657   0.592  0.00  0.00    +0.291 C 
BRANCH  28   4
ATOM      4  O   UNL     1      -5.130  -0.463   0.098  0.00  0.00    -0.485 OA
BRANCH   4  29
ATOM     29  C   UNL     1      -6.484  -0.307  -0.018  0.00  0.00    +0.121 A 
ATOM     30  C   UNL     1      -7.080   0.903   0.340  0.00  0.00    +0.049 A 
ATOM     31  C   UNL     1      -7.269  -1.357  -0.494  0.00  0.00    +0.049 A 
ATOM     32  C   UNL     1      -8.460   1.062   0.221  0.00  0.00    +0.049 A 
ATOM     33  C   UNL     1      -8.649  -1.198  -0.612  0.00  0.00    +0.049 A 
ATOM     34  C   UNL     1      -9.245   0.011  -0.255  0.00  0.00    +0.120 A 
BRANCH  34   5
ATOM      5  O   UNL     1     -10.593   0.166  -0.370  0.00  0.00    -0.495 OA
ATOM     35  C   UNL     1     -11.136   1.429   0.013  0.00  0.00    +0.277 C 
ENDBRANCH  34   5
ENDBRANCH   4  29
ENDBRANCH  28   4
ENDBRANCH  23  28
TORSDOF 7
