MODEL 1
REMARK VINA RESULT:      -6.8      0.000      0.000
REMARK  Name = 11885179
REMARK  3 active torsions:
REMARK  status: ('A' for Active; 'I' for Inactive)
REMARK    1  A    between atoms: C_16  and  C_19
REMARK    2  A    between atoms: C_17  and  C_20
REMARK    3  A    between atoms: C_28  and  C_29
REMARK                            x       y       z     vdW  Elec       q    Type
REMARK                         _______ _______ _______ _____ _____    ______ ____
ROOT
ATOM      2  O   UNL     1      10.542   9.656  22.389  0.00  0.00    -0.267 OA
ATOM      3  O   UNL     1      14.802   6.985  21.905  0.00  0.00    -0.270 OA
ATOM      4  N   UNL     1      14.447   7.963  19.833  0.00  0.00    -0.297 N 
ATOM      5  N   UNL     1      11.865   9.661  20.469  0.00  0.00    -0.311 N 
ATOM      7  C   UNL     1      12.140   7.595  18.979  0.00  0.00    +0.027 C 
ATOM      8  C   UNL     1      13.332   9.675  18.421  0.00  0.00    +0.054 C 
ATOM      9  C   UNL     1      12.395   8.605  17.865  0.00  0.00    +0.018 C 
ATOM     10  C   UNL     1      13.464   6.953  19.434  0.00  0.00    +0.113 C 
ATOM     11  C   UNL     1      11.415   8.303  20.130  0.00  0.00    +0.130 C 
ATOM     12  C   UNL     1      14.669   9.027  18.837  0.00  0.00    +0.117 C 
ATOM     13  C   UNL     1      12.715  10.374  19.618  0.00  0.00    +0.027 A 
ATOM     14  C   UNL     1      13.016  11.655  19.884  0.00  0.00    +0.022 A 
ATOM     15  C   UNL     1      11.319  10.239  21.632  0.00  0.00    +0.260 A 
ATOM     16  C   UNL     1      15.028   7.903  21.113  0.00  0.00    +0.247 C 
ATOM     17  C   UNL     1      11.714  11.660  21.928  0.00  0.00    +0.053 A 
ATOM     18  C   UNL     1      12.510  12.302  21.060  0.00  0.00    +0.016 A 
ENDROOT
BRANCH  16  19
ATOM     19  C   UNL     1      15.902   9.002  21.498  0.00  0.00    +0.037 A 
ATOM     21  C   UNL     1      17.263   8.938  21.214  0.00  0.00    +0.014 A 
ATOM     22  C   UNL     1      15.371  10.113  22.149  0.00  0.00    +0.014 A 
ATOM     24  C   UNL     1      18.100   9.992  21.581  0.00  0.00    +0.019 A 
ATOM     25  C   UNL     1      16.207  11.168  22.517  0.00  0.00    +0.019 A 
ATOM     28  C   UNL     1      17.572  11.106  22.233  0.00  0.00    +0.052 A 
BRANCH  28  29
ATOM      6  N   UNL     1      19.128  13.062  22.920  0.00  0.00    -0.191 NA
ATOM     29  C   UNL     1      18.430  12.185  22.611  0.00  0.00    +0.099 C 
ENDBRANCH  28  29
ENDBRANCH  16  19
BRANCH  17  20
ATOM      1  S   UNL     1      11.858  11.837  24.677  0.00  0.00    -0.096 S 
ATOM     20  C   UNL     1      11.255  12.339  23.151  0.00  0.00    +0.024 A 
ATOM     23  C   UNL     1      10.359  13.385  23.279  0.00  0.00    +0.016 A 
ATOM     26  C   UNL     1      10.169  13.772  24.636  0.00  0.00    +0.008 A 
ATOM     27  C   UNL     1      10.925  13.012  25.502  0.00  0.00    +0.046 A 
ENDBRANCH  17  20
TORSDOF 3
ENDMDL
MODEL 2
REMARK VINA RESULT:      -6.5     12.892     16.221
REMARK  Name = 11885179
REMARK  3 active torsions:
REMARK  status: ('A' for Active; 'I' for Inactive)
REMARK    1  A    between atoms: C_16  and  C_19
REMARK    2  A    between atoms: C_17  and  C_20
REMARK    3  A    between atoms: C_28  and  C_29
REMARK                            x       y       z     vdW  Elec       q    Type
REMARK                         _______ _______ _______ _____ _____    ______ ____
ROOT
ATOM      2  O   UNL     1      12.468   7.303   3.362  0.00  0.00    -0.267 OA
ATOM      3  O   UNL     1       8.589   9.625   5.615  0.00  0.00    -0.270 OA
ATOM      4  N   UNL     1       8.944   7.686   6.837  0.00  0.00    -0.297 N 
ATOM      5  N   UNL     1      11.471   6.549   5.329  0.00  0.00    -0.311 N 
ATOM      7  C   UNL     1       9.070   5.657   5.404  0.00  0.00    +0.027 C 
ATOM      8  C   UNL     1      10.397   5.776   7.473  0.00  0.00    +0.054 C 
ATOM      9  C   UNL     1       9.557   4.847   6.601  0.00  0.00    +0.018 C 
ATOM     10  C   UNL     1       8.220   6.851   5.876  0.00  0.00    +0.113 C 
ATOM     11  C   UNL     1      10.286   6.101   4.582  0.00  0.00    +0.130 C 
ATOM     12  C   UNL     1       9.525   6.948   7.972  0.00  0.00    +0.117 C 
ATOM     13  C   UNL     1      11.585   6.322   6.704  0.00  0.00    +0.027 A 
ATOM     14  C   UNL     1      12.725   6.627   7.345  0.00  0.00    +0.022 A 
ATOM     15  C   UNL     1      12.517   7.118   4.578  0.00  0.00    +0.260 A 
ATOM     16  C   UNL     1       9.102   9.062   6.585  0.00  0.00    +0.247 C 
ATOM     17  C   UNL     1      13.764   7.494   5.334  0.00  0.00    +0.053 A 
ATOM     18  C   UNL     1      13.826   7.226   6.647  0.00  0.00    +0.016 A 
ENDROOT
BRANCH  16  19
ATOM     19  C   UNL     1       9.935   9.815   7.512  0.00  0.00    +0.037 A 
ATOM     21  C   UNL     1       9.374  10.362   8.663  0.00  0.00    +0.014 A 
ATOM     22  C   UNL     1      11.291   9.984   7.242  0.00  0.00    +0.014 A 
ATOM     24  C   UNL     1      10.174  11.082   9.551  0.00  0.00    +0.019 A 
ATOM     25  C   UNL     1      12.091  10.703   8.130  0.00  0.00    +0.019 A 
ATOM     28  C   UNL     1      11.532  11.253   9.284  0.00  0.00    +0.052 A 
BRANCH  28  29
ATOM      6  N   UNL     1      13.015  12.594  10.931  0.00  0.00    -0.191 NA
ATOM     29  C   UNL     1      12.350  11.993  10.193  0.00  0.00    +0.099 C 
ENDBRANCH  28  29
ENDBRANCH  16  19
BRANCH  17  20
ATOM      1  S   UNL     1      14.884   9.861   4.470  0.00  0.00    -0.096 S 
ATOM     20  C   UNL     1      14.893   8.156   4.660  0.00  0.00    +0.024 A 
ATOM     23  C   UNL     1      16.034   7.591   4.121  0.00  0.00    +0.016 A 
ATOM     26  C   UNL     1      16.902   8.564   3.550  0.00  0.00    +0.008 A 
ATOM     27  C   UNL     1      16.398   9.841   3.671  0.00  0.00    +0.046 A 
ENDBRANCH  17  20
TORSDOF 3
ENDMDL
MODEL 3
REMARK VINA RESULT:      -6.4     24.371     27.134
REMARK  Name = 11885179
REMARK  3 active torsions:
REMARK  status: ('A' for Active; 'I' for Inactive)
REMARK    1  A    between atoms: C_16  and  C_19
REMARK    2  A    between atoms: C_17  and  C_20
REMARK    3  A    between atoms: C_28  and  C_29
REMARK                            x       y       z     vdW  Elec       q    Type
REMARK                         _______ _______ _______ _____ _____    ______ ____
ROOT
ATOM      2  O   UNL     1     -12.517  10.382  20.436  0.00  0.00    -0.267 OA
ATOM      3  O   UNL     1     -14.248  12.392  16.138  0.00  0.00    -0.270 OA
ATOM      4  N   UNL     1     -11.959  12.182  15.844  0.00  0.00    -0.297 N 
ATOM      5  N   UNL     1     -11.187  10.783  18.564  0.00  0.00    -0.311 N 
ATOM      7  C   UNL     1     -10.655  13.146  17.731  0.00  0.00    +0.027 C 
ATOM      8  C   UNL     1      -9.781  11.193  16.514  0.00  0.00    +0.054 C 
ATOM      9  C   UNL     1      -9.385  12.513  17.172  0.00  0.00    +0.018 C 
ATOM     10  C   UNL     1     -11.668  13.403  16.599  0.00  0.00    +0.113 C 
ATOM     11  C   UNL     1     -11.225  12.229  18.820  0.00  0.00    +0.130 C 
ATOM     12  C   UNL     1     -10.766  11.467  15.358  0.00  0.00    +0.117 C 
ATOM     13  C   UNL     1     -10.427  10.255  17.516  0.00  0.00    +0.027 A 
ATOM     14  C   UNL     1     -10.307   8.925  17.373  0.00  0.00    +0.022 A 
ATOM     15  C   UNL     1     -11.865   9.957  19.482  0.00  0.00    +0.260 A 
ATOM     16  C   UNL     1     -13.290  11.747  15.708  0.00  0.00    +0.247 C 
ATOM     17  C   UNL     1     -11.750   8.472  19.267  0.00  0.00    +0.053 A 
ATOM     18  C   UNL     1     -10.984   8.024  18.261  0.00  0.00    +0.016 A 
ENDROOT
BRANCH  16  19
ATOM     19  C   UNL     1     -13.505  10.464  15.055  0.00  0.00    +0.037 A 
ATOM     21  C   UNL     1     -13.608  10.400  13.668  0.00  0.00    +0.014 A 
ATOM     22  C   UNL     1     -13.606   9.305  15.821  0.00  0.00    +0.014 A 
ATOM     24  C   UNL     1     -13.813   9.170  13.042  0.00  0.00    +0.019 A 
ATOM     25  C   UNL     1     -13.810   8.075  15.196  0.00  0.00    +0.019 A 
ATOM     28  C   UNL     1     -13.914   8.008  13.806  0.00  0.00    +0.052 A 
BRANCH  28  29
ATOM      6  N   UNL     1     -14.298   5.724  12.644  0.00  0.00    -0.191 NA
ATOM     29  C   UNL     1     -14.126   6.748  13.165  0.00  0.00    +0.099 C 
ENDBRANCH  28  29
ENDBRANCH  16  19
BRANCH  17  20
ATOM      1  S   UNL     1     -14.187   7.486  20.102  0.00  0.00    -0.096 S 
ATOM     20  C   UNL     1     -12.471   7.520  20.127  0.00  0.00    +0.024 A 
ATOM     23  C   UNL     1     -11.959   6.586  21.009  0.00  0.00    +0.016 A 
ATOM     26  C   UNL     1     -12.981   5.843  21.665  0.00  0.00    +0.008 A 
ATOM     27  C   UNL     1     -14.241   6.230  21.264  0.00  0.00    +0.046 A 
ENDBRANCH  17  20
TORSDOF 3
ENDMDL
MODEL 4
REMARK VINA RESULT:      -6.0     28.546     30.428
REMARK  Name = 11885179
REMARK  3 active torsions:
REMARK  status: ('A' for Active; 'I' for Inactive)
REMARK    1  A    between atoms: C_16  and  C_19
REMARK    2  A    between atoms: C_17  and  C_20
REMARK    3  A    between atoms: C_28  and  C_29
REMARK                            x       y       z     vdW  Elec       q    Type
REMARK                         _______ _______ _______ _____ _____    ______ ____
ROOT
ATOM      2  O   UNL     1      -4.449 -14.978  15.631  0.00  0.00    -0.267 OA
ATOM      3  O   UNL     1      -8.154 -11.767  14.416  0.00  0.00    -0.270 OA
ATOM      4  N   UNL     1      -6.706 -10.559  15.763  0.00  0.00    -0.297 N 
ATOM      5  N   UNL     1      -4.459 -12.724  16.225  0.00  0.00    -0.311 N 
ATOM      7  C   UNL     1      -6.150 -11.741  17.880  0.00  0.00    +0.027 C 
ATOM      8  C   UNL     1      -4.477 -10.277  16.823  0.00  0.00    +0.054 C 
ATOM      9  C   UNL     1      -5.061 -10.711  18.165  0.00  0.00    +0.018 C 
ATOM     10  C   UNL     1      -7.252 -11.125  16.999  0.00  0.00    +0.113 C 
ATOM     11  C   UNL     1      -5.506 -12.970  17.227  0.00  0.00    +0.130 C 
ATOM     12  C   UNL     1      -5.582  -9.626  15.964  0.00  0.00    +0.117 C 
ATOM     13  C   UNL     1      -3.886 -11.457  16.076  0.00  0.00    +0.027 A 
ATOM     14  C   UNL     1      -2.848 -11.280  15.243  0.00  0.00    +0.022 A 
ATOM     15  C   UNL     1      -3.994 -13.841  15.504  0.00  0.00    +0.260 A 
ATOM     16  C   UNL     1      -7.209 -10.983  14.519  0.00  0.00    +0.247 C 
ATOM     17  C   UNL     1      -2.861 -13.601  14.543  0.00  0.00    +0.053 A 
ATOM     18  C   UNL     1      -2.334 -12.370  14.464  0.00  0.00    +0.016 A 
ENDROOT
BRANCH  16  19
ATOM     19  C   UNL     1      -6.543 -10.478  13.327  0.00  0.00    +0.037 A 
ATOM     21  C   UNL     1      -6.961  -9.280  12.753  0.00  0.00    +0.014 A 
ATOM     22  C   UNL     1      -5.490 -11.196  12.766  0.00  0.00    +0.014 A 
ATOM     24  C   UNL     1      -6.322  -8.797  11.611  0.00  0.00    +0.019 A 
ATOM     25  C   UNL     1      -4.850 -10.713  11.625  0.00  0.00    +0.019 A 
ATOM     28  C   UNL     1      -5.267  -9.513  11.048  0.00  0.00    +0.052 A 
BRANCH  28  29
ATOM      6  N   UNL     1      -4.082  -8.616   8.924  0.00  0.00    -0.191 NA
ATOM     29  C   UNL     1      -4.613  -9.018   9.877  0.00  0.00    +0.099 C 
ENDBRANCH  28  29
ENDBRANCH  16  19
BRANCH  17  20
ATOM      1  S   UNL     1      -2.849 -14.791  12.055  0.00  0.00    -0.096 S 
ATOM     20  C   UNL     1      -2.342 -14.683  13.691  0.00  0.00    +0.024 A 
ATOM     23  C   UNL     1      -1.455 -15.693  14.014  0.00  0.00    +0.016 A 
ATOM     26  C   UNL     1      -1.193 -16.557  12.913  0.00  0.00    +0.008 A 
ATOM     27  C   UNL     1      -1.887 -16.180  11.783  0.00  0.00    +0.046 A 
ENDBRANCH  17  20
TORSDOF 3
ENDMDL
MODEL 5
REMARK VINA RESULT:      -6.0     27.995     30.606
REMARK  Name = 11885179
REMARK  3 active torsions:
REMARK  status: ('A' for Active; 'I' for Inactive)
REMARK    1  A    between atoms: C_16  and  C_19
REMARK    2  A    between atoms: C_17  and  C_20
REMARK    3  A    between atoms: C_28  and  C_29
REMARK                            x       y       z     vdW  Elec       q    Type
REMARK                         _______ _______ _______ _____ _____    ______ ____
ROOT
ATOM      2  O   UNL     1      -7.056  -9.139  12.014  0.00  0.00    -0.267 OA
ATOM      3  O   UNL     1      -8.694  -8.160  16.690  0.00  0.00    -0.270 OA
ATOM      4  N   UNL     1      -9.558 -10.244  16.156  0.00  0.00    -0.297 N 
ATOM      5  N   UNL     1      -8.265 -10.655  13.309  0.00  0.00    -0.311 N 
ATOM      7  C   UNL     1     -10.714 -10.270  13.954  0.00  0.00    +0.027 C 
ATOM      8  C   UNL     1      -9.542 -12.285  14.743  0.00  0.00    +0.054 C 
ATOM      9  C   UNL     1     -10.792 -11.792  14.017  0.00  0.00    +0.018 C 
ATOM     10  C   UNL     1     -10.660  -9.677  15.375  0.00  0.00    +0.113 C 
ATOM     11  C   UNL     1      -9.494  -9.872  13.114  0.00  0.00    +0.130 C 
ATOM     12  C   UNL     1      -9.518 -11.717  16.177  0.00  0.00    +0.117 C 
ATOM     13  C   UNL     1      -8.282 -11.864  14.011  0.00  0.00    +0.027 A 
ATOM     14  C   UNL     1      -7.177 -12.623  14.072  0.00  0.00    +0.022 A 
ATOM     15  C   UNL     1      -7.103 -10.181  12.669  0.00  0.00    +0.260 A 
ATOM     16  C   UNL     1      -8.606  -9.389  16.742  0.00  0.00    +0.247 C 
ATOM     17  C   UNL     1      -5.868 -11.031  12.796  0.00  0.00    +0.053 A 
ATOM     18  C   UNL     1      -5.953 -12.195  13.459  0.00  0.00    +0.016 A 
ENDROOT
BRANCH  16  19
ATOM     19  C   UNL     1      -7.468 -10.014  17.400  0.00  0.00    +0.037 A 
ATOM     21  C   UNL     1      -6.262 -10.152  16.718  0.00  0.00    +0.014 A 
ATOM     22  C   UNL     1      -7.591 -10.469  18.710  0.00  0.00    +0.014 A 
ATOM     24  C   UNL     1      -5.171 -10.750  17.351  0.00  0.00    +0.019 A 
ATOM     25  C   UNL     1      -6.500 -11.066  19.344  0.00  0.00    +0.019 A 
ATOM     28  C   UNL     1      -5.290 -11.206  18.663  0.00  0.00    +0.052 A 
BRANCH  28  29
ATOM      6  N   UNL     1      -3.266 -12.320  19.835  0.00  0.00    -0.191 NA
ATOM     29  C   UNL     1      -4.173 -11.820  19.309  0.00  0.00    +0.099 C 
ENDBRANCH  28  29
ENDBRANCH  16  19
BRANCH  17  20
ATOM      1  S   UNL     1      -3.171 -10.616  13.199  0.00  0.00    -0.096 S 
ATOM     20  C   UNL     1      -4.583 -10.599  12.224  0.00  0.00    +0.024 A 
ATOM     23  C   UNL     1      -4.309 -10.153  10.944  0.00  0.00    +0.016 A 
ATOM     26  C   UNL     1      -2.935  -9.824  10.767  0.00  0.00    +0.008 A 
ATOM     27  C   UNL     1      -2.202 -10.029  11.916  0.00  0.00    +0.046 A 
ENDBRANCH  17  20
TORSDOF 3
ENDMDL
MODEL 6
REMARK VINA RESULT:      -5.9     25.154     28.143
REMARK  Name = 11885179
REMARK  3 active torsions:
REMARK  status: ('A' for Active; 'I' for Inactive)
REMARK    1  A    between atoms: C_16  and  C_19
REMARK    2  A    between atoms: C_17  and  C_20
REMARK    3  A    between atoms: C_28  and  C_29
REMARK                            x       y       z     vdW  Elec       q    Type
REMARK                         _______ _______ _______ _____ _____    ______ ____
ROOT
ATOM      2  O   UNL     1     -14.103   8.709  17.908  0.00  0.00    -0.267 OA
ATOM      3  O   UNL     1     -17.070  10.059  21.766  0.00  0.00    -0.270 OA
ATOM      4  N   UNL     1     -16.516   7.842  22.158  0.00  0.00    -0.297 N 
ATOM      5  N   UNL     1     -14.571   7.331  19.728  0.00  0.00    -0.311 N 
ATOM      7  C   UNL     1     -16.910   6.388  20.179  0.00  0.00    +0.027 C 
ATOM      8  C   UNL     1     -15.064   5.875  21.724  0.00  0.00    +0.054 C 
ATOM      9  C   UNL     1     -16.166   5.251  20.871  0.00  0.00    +0.018 C 
ATOM     10  C   UNL     1     -17.524   7.339  21.223  0.00  0.00    +0.113 C 
ATOM     11  C   UNL     1     -15.939   7.111  19.238  0.00  0.00    +0.130 C 
ATOM     12  C   UNL     1     -15.693   6.796  22.791  0.00  0.00    +0.117 C 
ATOM     13  C   UNL     1     -14.100   6.676  20.870  0.00  0.00    +0.027 A 
ATOM     14  C   UNL     1     -12.812   6.794  21.232  0.00  0.00    +0.022 A 
ATOM     15  C   UNL     1     -13.736   8.143  18.937  0.00  0.00    +0.260 A 
ATOM     16  C   UNL     1     -16.348   9.230  22.324  0.00  0.00    +0.247 C 
ATOM     17  C   UNL     1     -12.310   8.294  19.395  0.00  0.00    +0.053 A 
ATOM     18  C   UNL     1     -11.908   7.620  20.484  0.00  0.00    +0.016 A 
ENDROOT
BRANCH  16  19
ATOM     19  C   UNL     1     -15.249   9.669  23.172  0.00  0.00    +0.037 A 
ATOM     21  C   UNL     1     -13.995   9.906  22.615  0.00  0.00    +0.014 A 
ATOM     22  C   UNL     1     -15.458   9.853  24.536  0.00  0.00    +0.014 A 
ATOM     24  C   UNL     1     -12.943  10.328  23.428  0.00  0.00    +0.019 A 
ATOM     25  C   UNL     1     -14.407  10.277  25.349  0.00  0.00    +0.019 A 
ATOM     28  C   UNL     1     -13.149  10.514  24.794  0.00  0.00    +0.052 A 
BRANCH  28  29
ATOM      6  N   UNL     1     -11.193  11.295  26.304  0.00  0.00    -0.191 NA
ATOM     29  C   UNL     1     -12.070  10.945  25.627  0.00  0.00    +0.099 C 
ENDBRANCH  28  29
ENDBRANCH  16  19
BRANCH  17  20
ATOM      1  S   UNL     1     -10.514   8.572  17.321  0.00  0.00    -0.096 S 
ATOM     20  C   UNL     1     -11.369   9.172  18.682  0.00  0.00    +0.024 A 
ATOM     23  C   UNL     1     -11.040  10.489  18.946  0.00  0.00    +0.016 A 
ATOM     26  C   UNL     1     -10.082  11.004  18.027  0.00  0.00    +0.008 A 
ATOM     27  C   UNL     1      -9.710  10.065  17.089  0.00  0.00    +0.046 A 
ENDBRANCH  17  20
TORSDOF 3
ENDMDL
MODEL 7
REMARK VINA RESULT:      -5.9     22.648     24.703
REMARK  Name = 11885179
REMARK  3 active torsions:
REMARK  status: ('A' for Active; 'I' for Inactive)
REMARK    1  A    between atoms: C_16  and  C_19
REMARK    2  A    between atoms: C_17  and  C_20
REMARK    3  A    between atoms: C_28  and  C_29
REMARK                            x       y       z     vdW  Elec       q    Type
REMARK                         _______ _______ _______ _____ _____    ______ ____
ROOT
ATOM      2  O   UNL     1       9.595  -9.754  32.311  0.00  0.00    -0.267 OA
ATOM      3  O   UNL     1       8.584  -8.841  37.175  0.00  0.00    -0.270 OA
ATOM      4  N   UNL     1       8.101  -6.865  36.061  0.00  0.00    -0.297 N 
ATOM      5  N   UNL     1       8.660  -7.766  33.090  0.00  0.00    -0.311 N 
ATOM      7  C   UNL     1       9.951  -6.123  34.574  0.00  0.00    +0.027 C 
ATOM      8  C   UNL     1       7.618  -5.642  33.955  0.00  0.00    +0.054 C 
ATOM      9  C   UNL     1       9.034  -5.069  33.964  0.00  0.00    +0.018 C 
ATOM     10  C   UNL     1       9.506  -6.455  36.010  0.00  0.00    +0.113 C 
ATOM     11  C   UNL     1       9.950  -7.361  33.667  0.00  0.00    +0.130 C 
ATOM     12  C   UNL     1       7.169  -5.934  35.402  0.00  0.00    +0.117 C 
ATOM     13  C   UNL     1       7.550  -6.917  33.137  0.00  0.00    +0.027 A 
ATOM     14  C   UNL     1       6.418  -7.253  32.499  0.00  0.00    +0.022 A 
ATOM     15  C   UNL     1       8.630  -8.995  32.404  0.00  0.00    +0.260 A 
ATOM     16  C   UNL     1       7.756  -8.103  36.636  0.00  0.00    +0.247 C 
ATOM     17  C   UNL     1       7.332  -9.365  31.739  0.00  0.00    +0.053 A 
ATOM     18  C   UNL     1       6.309  -8.498  31.795  0.00  0.00    +0.016 A 
ENDROOT
BRANCH  16  19
ATOM     19  C   UNL     1       6.361  -8.510  36.547  0.00  0.00    +0.037 A 
ATOM     21  C   UNL     1       5.467  -8.148  37.550  0.00  0.00    +0.014 A 
ATOM     22  C   UNL     1       5.928  -9.261  35.457  0.00  0.00    +0.014 A 
ATOM     24  C   UNL     1       4.130  -8.538  37.463  0.00  0.00    +0.019 A 
ATOM     25  C   UNL     1       4.592  -9.651  35.369  0.00  0.00    +0.019 A 
ATOM     28  C   UNL     1       3.693  -9.289  36.373  0.00  0.00    +0.052 A 
BRANCH  28  29
ATOM      6  N   UNL     1       1.211 -10.016  36.214  0.00  0.00    -0.191 NA
ATOM     29  C   UNL     1       2.324  -9.690  36.285  0.00  0.00    +0.099 C 
ENDBRANCH  28  29
ENDBRANCH  16  19
BRANCH  17  20
ATOM      1  S   UNL     1       6.439 -11.971  31.878  0.00  0.00    -0.096 S 
ATOM     20  C   UNL     1       7.168 -10.656  31.051  0.00  0.00    +0.024 A 
ATOM     23  C   UNL     1       7.531 -11.005  29.763  0.00  0.00    +0.016 A 
ATOM     26  C   UNL     1       7.207 -12.358  29.457  0.00  0.00    +0.008 A 
ATOM     27  C   UNL     1       6.608 -12.999  30.519  0.00  0.00    +0.046 A 
ENDBRANCH  17  20
TORSDOF 3
ENDMDL
MODEL 8
REMARK VINA RESULT:      -5.9     29.048     30.970
REMARK  Name = 11885179
REMARK  3 active torsions:
REMARK  status: ('A' for Active; 'I' for Inactive)
REMARK    1  A    between atoms: C_16  and  C_19
REMARK    2  A    between atoms: C_17  and  C_20
REMARK    3  A    between atoms: C_28  and  C_29
REMARK                            x       y       z     vdW  Elec       q    Type
REMARK                         _______ _______ _______ _____ _____    ______ ____
ROOT
ATOM      2  O   UNL     1      -6.050 -13.457  14.284  0.00  0.00    -0.267 OA
ATOM      3  O   UNL     1      -9.472 -12.576  17.893  0.00  0.00    -0.270 OA
ATOM      4  N   UNL     1      -7.553 -11.471  18.578  0.00  0.00    -0.297 N 
ATOM      5  N   UNL     1      -5.680 -12.051  16.107  0.00  0.00    -0.311 N 
ATOM      7  C   UNL     1      -5.533 -12.922  18.512  0.00  0.00    +0.027 C 
ATOM      8  C   UNL     1      -5.320 -10.510  18.067  0.00  0.00    +0.054 C 
ATOM      9  C   UNL     1      -4.652 -11.700  18.752  0.00  0.00    +0.018 C 
ATOM     10  C   UNL     1      -6.937 -12.693  19.101  0.00  0.00    +0.113 C 
ATOM     11  C   UNL     1      -5.577 -13.209  17.006  0.00  0.00    +0.130 C 
ATOM     12  C   UNL     1      -6.710 -10.267  18.692  0.00  0.00    +0.117 C 
ATOM     13  C   UNL     1      -5.471 -10.751  16.577  0.00  0.00    +0.027 A 
ATOM     14  C   UNL     1      -5.448  -9.719  15.718  0.00  0.00    +0.022 A 
ATOM     15  C   UNL     1      -5.895 -12.324  14.742  0.00  0.00    +0.260 A 
ATOM     16  C   UNL     1      -8.813 -11.536  17.957  0.00  0.00    +0.247 C 
ATOM     17  C   UNL     1      -5.912 -11.142  13.811  0.00  0.00    +0.053 A 
ATOM     18  C   UNL     1      -5.677  -9.921  14.316  0.00  0.00    +0.016 A 
ENDROOT
BRANCH  16  19
ATOM     19  C   UNL     1      -9.317 -10.313  17.348  0.00  0.00    +0.037 A 
ATOM     21  C   UNL     1      -9.030 -10.032  16.015  0.00  0.00    +0.014 A 
ATOM     22  C   UNL     1     -10.085  -9.429  18.102  0.00  0.00    +0.014 A 
ATOM     24  C   UNL     1      -9.514  -8.861  15.432  0.00  0.00    +0.019 A 
ATOM     25  C   UNL     1     -10.570  -8.258  17.520  0.00  0.00    +0.019 A 
ATOM     28  C   UNL     1     -10.284  -7.974  16.184  0.00  0.00    +0.052 A 
BRANCH  28  29
ATOM      6  N   UNL     1     -11.179  -5.797  15.102  0.00  0.00    -0.191 NA
ATOM     29  C   UNL     1     -10.778  -6.773  15.587  0.00  0.00    +0.099 C 
ENDBRANCH  28  29
ENDBRANCH  16  19
BRANCH  17  20
ATOM      1  S   UNL     1      -4.902 -11.602  11.286  0.00  0.00    -0.096 S 
ATOM     20  C   UNL     1      -6.194 -11.305  12.376  0.00  0.00    +0.024 A 
ATOM     23  C   UNL     1      -7.410 -11.256  11.719  0.00  0.00    +0.016 A 
ATOM     26  C   UNL     1      -7.276 -11.463  10.317  0.00  0.00    +0.008 A 
ATOM     27  C   UNL     1      -5.964 -11.664   9.945  0.00  0.00    +0.046 A 
ENDBRANCH  17  20
TORSDOF 3
ENDMDL
MODEL 9
REMARK VINA RESULT:      -5.8     28.344     30.354
REMARK  Name = 11885179
REMARK  3 active torsions:
REMARK  status: ('A' for Active; 'I' for Inactive)
REMARK    1  A    between atoms: C_16  and  C_19
REMARK    2  A    between atoms: C_17  and  C_20
REMARK    3  A    between atoms: C_28  and  C_29
REMARK                            x       y       z     vdW  Elec       q    Type
REMARK                         _______ _______ _______ _____ _____    ______ ____
ROOT
ATOM      2  O   UNL     1      -6.522 -10.004  14.437  0.00  0.00    -0.267 OA
ATOM      3  O   UNL     1      -6.854 -13.064  10.433  0.00  0.00    -0.270 OA
ATOM      4  N   UNL     1      -5.133 -11.590   9.944  0.00  0.00    -0.297 N 
ATOM      5  N   UNL     1      -5.050  -9.940  12.631  0.00  0.00    -0.311 N 
ATOM      7  C   UNL     1      -5.777  -9.212  10.284  0.00  0.00    +0.027 C 
ATOM      8  C   UNL     1      -3.453  -9.917  10.683  0.00  0.00    +0.054 C 
ATOM      9  C   UNL     1      -4.320  -8.797  10.114  0.00  0.00    +0.018 C 
ATOM     10  C   UNL     1      -6.051 -10.527   9.530  0.00  0.00    +0.113 C 
ATOM     11  C   UNL     1      -6.084  -9.330  11.783  0.00  0.00    +0.130 C 
ATOM     12  C   UNL     1      -3.707 -11.219   9.895  0.00  0.00    +0.117 C 
ATOM     13  C   UNL     1      -3.753 -10.149  12.152  0.00  0.00    +0.027 A 
ATOM     14  C   UNL     1      -2.793 -10.593  12.978  0.00  0.00    +0.022 A 
ATOM     15  C   UNL     1      -5.401 -10.205  13.969  0.00  0.00    +0.260 A 
ATOM     16  C   UNL     1      -5.647 -12.812  10.417  0.00  0.00    +0.247 C 
ATOM     17  C   UNL     1      -4.315 -10.747  14.857  0.00  0.00    +0.053 A 
ATOM     18  C   UNL     1      -3.083 -10.900  14.349  0.00  0.00    +0.016 A 
ENDROOT
BRANCH  16  19
ATOM     19  C   UNL     1      -4.690 -13.782  10.928  0.00  0.00    +0.037 A 
ATOM     21  C   UNL     1      -4.374 -13.797  12.284  0.00  0.00    +0.014 A 
ATOM     22  C   UNL     1      -4.095 -14.692  10.058  0.00  0.00    +0.014 A 
ATOM     24  C   UNL     1      -3.458 -14.728  12.774  0.00  0.00    +0.019 A 
ATOM     25  C   UNL     1      -3.180 -15.624  10.547  0.00  0.00    +0.019 A 
ATOM     28  C   UNL     1      -2.861 -15.641  11.906  0.00  0.00    +0.052 A 
BRANCH  28  29
ATOM      6  N   UNL     1      -1.156 -17.368  12.815  0.00  0.00    -0.191 NA
ATOM     29  C   UNL     1      -1.921 -16.594  12.408  0.00  0.00    +0.099 C 
ENDBRANCH  28  29
ENDBRANCH  16  19
BRANCH  17  20
ATOM      1  S   UNL     1      -4.891 -12.763  16.649  0.00  0.00    -0.096 S 
ATOM     20  C   UNL     1      -4.588 -11.121  16.255  0.00  0.00    +0.024 A 
ATOM     23  C   UNL     1      -4.645 -10.312  17.374  0.00  0.00    +0.016 A 
ATOM     26  C   UNL     1      -4.938 -11.045  18.559  0.00  0.00    +0.008 A 
ATOM     27  C   UNL     1      -5.096 -12.391  18.308  0.00  0.00    +0.046 A 
ENDBRANCH  17  20
TORSDOF 3
ENDMDL
MODEL 10
REMARK VINA RESULT:      -5.8     15.501     18.657
REMARK  Name = 11885179
REMARK  3 active torsions:
REMARK  status: ('A' for Active; 'I' for Inactive)
REMARK    1  A    between atoms: C_16  and  C_19
REMARK    2  A    between atoms: C_17  and  C_20
REMARK    3  A    between atoms: C_28  and  C_29
REMARK                            x       y       z     vdW  Elec       q    Type
REMARK                         _______ _______ _______ _____ _____    ______ ____
ROOT
ATOM      2  O   UNL     1      22.167  -4.336  25.359  0.00  0.00    -0.267 OA
ATOM      3  O   UNL     1      17.678  -4.439  27.670  0.00  0.00    -0.270 OA
ATOM      4  N   UNL     1      17.232  -3.820  25.482  0.00  0.00    -0.297 N 
ATOM      5  N   UNL     1      20.137  -3.993  24.266  0.00  0.00    -0.311 N 
ATOM      7  C   UNL     1      18.665  -1.942  24.703  0.00  0.00    +0.027 C 
ATOM      8  C   UNL     1      17.928  -3.660  23.103  0.00  0.00    +0.054 C 
ATOM      9  C   UNL     1      18.175  -2.163  23.276  0.00  0.00    +0.018 C 
ATOM     10  C   UNL     1      17.608  -2.423  25.714  0.00  0.00    +0.113 C 
ATOM     11  C   UNL     1      20.007  -2.664  24.881  0.00  0.00    +0.130 C 
ATOM     12  C   UNL     1      16.839  -4.123  24.094  0.00  0.00    +0.117 C 
ATOM     13  C   UNL     1      19.198  -4.455  23.340  0.00  0.00    +0.027 A 
ATOM     14  C   UNL     1      19.399  -5.617  22.698  0.00  0.00    +0.022 A 
ATOM     15  C   UNL     1      21.301  -4.724  24.575  0.00  0.00    +0.260 A 
ATOM     16  C   UNL     1      17.343  -4.755  26.527  0.00  0.00    +0.247 C 
ATOM     17  C   UNL     1      21.474  -6.045  23.875  0.00  0.00    +0.053 A 
ATOM     18  C   UNL     1      20.553  -6.423  22.976  0.00  0.00    +0.016 A 
ENDROOT
BRANCH  16  19
ATOM     19  C   UNL     1      17.073  -6.149  26.202  0.00  0.00    +0.037 A 
ATOM     21  C   UNL     1      18.091  -6.953  25.697  0.00  0.00    +0.014 A 
ATOM     22  C   UNL     1      15.798  -6.671  26.400  0.00  0.00    +0.014 A 
ATOM     24  C   UNL     1      17.832  -8.288  25.387  0.00  0.00    +0.019 A 
ATOM     25  C   UNL     1      15.538  -8.007  26.092  0.00  0.00    +0.019 A 
ATOM     28  C   UNL     1      16.556  -8.815  25.585  0.00  0.00    +0.052 A 
BRANCH  28  29
ATOM      6  N   UNL     1      16.075 -11.294  25.006  0.00  0.00    -0.191 NA
ATOM     29  C   UNL     1      16.291 -10.183  25.266  0.00  0.00    +0.099 C 
ENDBRANCH  28  29
ENDBRANCH  16  19
BRANCH  17  20
ATOM      1  S   UNL     1      22.355  -8.420  24.967  0.00  0.00    -0.096 S 
ATOM     20  C   UNL     1      22.618  -6.921  24.173  0.00  0.00    +0.024 A 
ATOM     23  C   UNL     1      23.959  -6.721  23.900  0.00  0.00    +0.016 A 
ATOM     26  C   UNL     1      24.770  -7.803  24.346  0.00  0.00    +0.008 A 
ATOM     27  C   UNL     1      24.025  -8.796  24.945  0.00  0.00    +0.046 A 
ENDBRANCH  17  20
TORSDOF 3
ENDMDL
