MODEL 1
REMARK VINA RESULT:      -6.6      0.000      0.000
REMARK  Name = 38029291
REMARK  13 active torsions:
REMARK  status: ('A' for Active; 'I' for Inactive)
REMARK    1  A    between atoms: S_1  and  N_5
REMARK    2  A    between atoms: S_1  and  C_21
REMARK    3  A    between atoms: N_5  and  C_15
REMARK    4  A    between atoms: N_6  and  C_22
REMARK    5  A    between atoms: C_8  and  C_12
REMARK    6  A    between atoms: C_9  and  C_15
REMARK    7  A    between atoms: C_11  and  C_16
REMARK    8  A    between atoms: C_12  and  C_17
REMARK    9  A    between atoms: C_12  and  C_18
REMARK   10  A    between atoms: C_13  and  C_19
REMARK   11  A    between atoms: C_16  and  C_20
REMARK   12  A    between atoms: C_22  and  C_23
REMARK   13  A    between atoms: C_28  and  C_29
REMARK                            x       y       z     vdW  Elec       q    Type
REMARK                         _______ _______ _______ _____ _____    ______ ____
ROOT
ATOM      8  C   UNL     1      -5.162 -10.615  10.894  0.00  0.00    +0.000 C 
ATOM      9  C   UNL     1      -4.626  -9.686   9.776  0.00  0.00    +0.030 C 
ATOM     10  C   UNL     1      -4.599 -10.191  12.260  0.00  0.00    +0.012 C 
ATOM     11  C   UNL     1      -3.059 -10.226  12.291  0.00  0.00    +0.023 C 
ATOM     13  C   UNL     1      -2.456  -9.557  11.073  0.00  0.00    -0.073 C 
ATOM     14  C   UNL     1      -3.175  -9.312   9.963  0.00  0.00    -0.023 C 
ATOM     19  C   UNL     1      -1.016  -9.135  11.176  0.00  0.00    +0.039 C 
ENDROOT
BRANCH   8  12
ATOM     12  C   UNL     1      -6.693 -10.622  10.944  0.00  0.00    -0.013 C 
ATOM     17  C   UNL     1      -7.182 -11.348  12.194  0.00  0.00    +0.007 C 
ATOM     18  C   UNL     1      -7.233  -9.196  10.900  0.00  0.00    +0.007 C 
ENDBRANCH   8  12
BRANCH   9  15
ATOM     15  C   UNL     1      -4.817 -10.318   8.392  0.00  0.00    +0.113 C 
BRANCH  15   5
ATOM      5  N   UNL     1      -5.428  -9.327   7.493  0.00  0.00    -0.194 NA
ATOM     30  H   UNL     1      -5.810  -8.505   7.978  0.00  0.00    +0.148 HD
BRANCH   5   1
ATOM      1  S   UNL     1      -6.326  -9.866   6.143  0.00  0.00    +0.027 S 
ATOM      3  O   UNL     1      -5.562 -10.856   5.409  0.00  0.00    -0.158 OA
ATOM      4  O   UNL     1      -6.886  -8.710   5.469  0.00  0.00    -0.158 OA
ATOM     21  C   UNL     1      -7.666 -10.704   6.959  0.00  0.00    +0.214 C 
ENDBRANCH   5   1
ENDBRANCH  15   5
ENDBRANCH   9  15
BRANCH  11  16
ATOM     16  C   UNL     1      -2.543 -11.662  12.442  0.00  0.00    +0.103 C 
BRANCH  16  20
ATOM      2  O   UNL     1      -1.944 -13.138  14.261  0.00  0.00    -0.276 OA
ATOM      6  N   UNL     1      -2.330 -10.888  14.694  0.00  0.00    -0.311 N 
ATOM     20  C   UNL     1      -2.236 -12.008  13.881  0.00  0.00    +0.214 C 
ATOM     31  H   UNL     1      -2.577  -9.991  14.284  0.00  0.00    +0.149 HD
BRANCH   6  22
ATOM     22  C   UNL     1      -2.090 -10.924  16.117  0.00  0.00    +0.139 C 
BRANCH  22  23
ATOM     23  C   UNL     1      -3.368 -10.931  16.904  0.00  0.00    -0.030 A 
ATOM     24  C   UNL     1      -4.498 -10.284  16.406  0.00  0.00    +0.006 A 
ATOM     25  C   UNL     1      -3.426 -11.588  18.134  0.00  0.00    +0.006 A 
ATOM     26  C   UNL     1      -5.686 -10.291  17.136  0.00  0.00    +0.019 A 
ATOM     27  C   UNL     1      -4.614 -11.595  18.865  0.00  0.00    +0.019 A 
ATOM     28  C   UNL     1      -5.744 -10.948  18.366  0.00  0.00    +0.052 A 
BRANCH  28  29
ATOM      7  N   UNL     1      -7.949 -10.960  19.725  0.00  0.00    -0.191 NA
ATOM     29  C   UNL     1      -6.961 -10.955  19.115  0.00  0.00    +0.099 C 
ENDBRANCH  28  29
ENDBRANCH  22  23
ENDBRANCH   6  22
ENDBRANCH  16  20
ENDBRANCH  11  16
TORSDOF 9
ENDMDL
MODEL 2
REMARK VINA RESULT:      -6.5      3.941      7.844
REMARK  Name = 38029291
REMARK  13 active torsions:
REMARK  status: ('A' for Active; 'I' for Inactive)
REMARK    1  A    between atoms: S_1  and  N_5
REMARK    2  A    between atoms: S_1  and  C_21
REMARK    3  A    between atoms: N_5  and  C_15
REMARK    4  A    between atoms: N_6  and  C_22
REMARK    5  A    between atoms: C_8  and  C_12
REMARK    6  A    between atoms: C_9  and  C_15
REMARK    7  A    between atoms: C_11  and  C_16
REMARK    8  A    between atoms: C_12  and  C_17
REMARK    9  A    between atoms: C_12  and  C_18
REMARK   10  A    between atoms: C_13  and  C_19
REMARK   11  A    between atoms: C_16  and  C_20
REMARK   12  A    between atoms: C_22  and  C_23
REMARK   13  A    between atoms: C_28  and  C_29
REMARK                            x       y       z     vdW  Elec       q    Type
REMARK                         _______ _______ _______ _____ _____    ______ ____
ROOT
ATOM      8  C   UNL     1      -5.917 -10.526  15.156  0.00  0.00    +0.000 C 
ATOM      9  C   UNL     1      -6.769 -10.554  16.449  0.00  0.00    +0.030 C 
ATOM     10  C   UNL     1      -4.929 -11.703  15.139  0.00  0.00    +0.012 C 
ATOM     11  C   UNL     1      -3.978 -11.683  16.351  0.00  0.00    +0.023 C 
ATOM     13  C   UNL     1      -4.725 -11.444  17.647  0.00  0.00    -0.073 C 
ATOM     14  C   UNL     1      -5.976 -10.952  17.671  0.00  0.00    -0.023 C 
ATOM     19  C   UNL     1      -4.015 -11.827  18.917  0.00  0.00    +0.039 C 
ENDROOT
BRANCH   8  12
ATOM     12  C   UNL     1      -6.791 -10.564  13.898  0.00  0.00    -0.013 C 
ATOM     17  C   UNL     1      -6.294  -9.548  12.874  0.00  0.00    +0.007 C 
ATOM     18  C   UNL     1      -6.806 -11.969  13.304  0.00  0.00    +0.007 C 
ENDBRANCH   8  12
BRANCH   9  15
ATOM     15  C   UNL     1      -7.445  -9.200  16.697  0.00  0.00    +0.113 C 
BRANCH  15   5
ATOM      5  N   UNL     1      -8.310  -9.305  17.882  0.00  0.00    -0.194 NA
ATOM     30  H   UNL     1      -7.929  -9.910  18.622  0.00  0.00    +0.148 HD
BRANCH   5   1
ATOM      1  S   UNL     1     -10.004  -9.373  17.676  0.00  0.00    +0.027 S 
ATOM      3  O   UNL     1     -10.646  -9.597  18.957  0.00  0.00    -0.158 OA
ATOM      4  O   UNL     1     -10.298 -10.226  16.540  0.00  0.00    -0.158 OA
ATOM     21  C   UNL     1     -10.339  -7.698  17.183  0.00  0.00    +0.214 C 
ENDBRANCH   5   1
ENDBRANCH  15   5
ENDBRANCH   9  15
BRANCH  11  16
ATOM     16  C   UNL     1      -2.863 -10.648  16.160  0.00  0.00    +0.103 C 
BRANCH  16  20
ATOM      2  O   UNL     1      -1.064 -11.775  15.001  0.00  0.00    -0.276 OA
ATOM      6  N   UNL     1      -2.372 -10.231  13.858  0.00  0.00    -0.311 N 
ATOM     20  C   UNL     1      -1.989 -10.967  14.969  0.00  0.00    +0.214 C 
ATOM     31  H   UNL     1      -3.155  -9.586  13.930  0.00  0.00    +0.149 HD
BRANCH   6  22
ATOM     22  C   UNL     1      -1.711 -10.331  12.578  0.00  0.00    +0.139 C 
BRANCH  22  23
ATOM     23  C   UNL     1      -2.686 -10.314  11.438  0.00  0.00    -0.030 A 
ATOM     24  C   UNL     1      -2.754  -9.206  10.594  0.00  0.00    +0.006 A 
ATOM     25  C   UNL     1      -3.525 -11.408  11.220  0.00  0.00    +0.006 A 
ATOM     26  C   UNL     1      -3.660  -9.190   9.534  0.00  0.00    +0.019 A 
ATOM     27  C   UNL     1      -4.431 -11.392  10.160  0.00  0.00    +0.019 A 
ATOM     28  C   UNL     1      -4.498 -10.284   9.316  0.00  0.00    +0.052 A 
BRANCH  28  29
ATOM      7  N   UNL     1      -6.181 -10.255   7.348  0.00  0.00    -0.191 NA
ATOM     29  C   UNL     1      -5.427 -10.268   8.231  0.00  0.00    +0.099 C 
ENDBRANCH  28  29
ENDBRANCH  22  23
ENDBRANCH   6  22
ENDBRANCH  16  20
ENDBRANCH  11  16
TORSDOF 9
ENDMDL
MODEL 3
REMARK VINA RESULT:      -6.3     28.101     30.947
REMARK  Name = 38029291
REMARK  13 active torsions:
REMARK  status: ('A' for Active; 'I' for Inactive)
REMARK    1  A    between atoms: S_1  and  N_5
REMARK    2  A    between atoms: S_1  and  C_21
REMARK    3  A    between atoms: N_5  and  C_15
REMARK    4  A    between atoms: N_6  and  C_22
REMARK    5  A    between atoms: C_8  and  C_12
REMARK    6  A    between atoms: C_9  and  C_15
REMARK    7  A    between atoms: C_11  and  C_16
REMARK    8  A    between atoms: C_12  and  C_17
REMARK    9  A    between atoms: C_12  and  C_18
REMARK   10  A    between atoms: C_13  and  C_19
REMARK   11  A    between atoms: C_16  and  C_20
REMARK   12  A    between atoms: C_22  and  C_23
REMARK   13  A    between atoms: C_28  and  C_29
REMARK                            x       y       z     vdW  Elec       q    Type
REMARK                         _______ _______ _______ _____ _____    ______ ____
ROOT
ATOM      8  C   UNL     1      19.961   6.618  21.688  0.00  0.00    +0.000 C 
ATOM      9  C   UNL     1      20.315   8.071  22.093  0.00  0.00    +0.030 C 
ATOM     10  C   UNL     1      19.058   6.612  20.445  0.00  0.00    +0.012 C 
ATOM     11  C   UNL     1      17.747   7.389  20.674  0.00  0.00    +0.023 C 
ATOM     13  C   UNL     1      17.997   8.735  21.323  0.00  0.00    -0.073 C 
ATOM     14  C   UNL     1      19.155   9.026  21.941  0.00  0.00    -0.023 C 
ATOM     19  C   UNL     1      16.899   9.757  21.207  0.00  0.00    +0.039 C 
ENDROOT
BRANCH   8  12
ATOM     12  C   UNL     1      21.215   5.779  21.421  0.00  0.00    -0.013 C 
ATOM     17  C   UNL     1      20.837   4.440  20.798  0.00  0.00    +0.007 C 
ATOM     18  C   UNL     1      22.183   6.542  20.522  0.00  0.00    +0.007 C 
ENDBRANCH   8  12
BRANCH   9  15
ATOM     15  C   UNL     1      20.843   8.132  23.531  0.00  0.00    +0.113 C 
BRANCH  15   5
ATOM      5  N   UNL     1      20.140   7.128  24.343  0.00  0.00    -0.194 NA
ATOM     30  H   UNL     1      19.136   7.050  24.132  0.00  0.00    +0.148 HD
BRANCH   5   1
ATOM      1  S   UNL     1      20.561   6.940  25.988  0.00  0.00    +0.027 S 
ATOM      3  O   UNL     1      19.703   5.947  26.605  0.00  0.00    -0.158 OA
ATOM      4  O   UNL     1      20.716   8.256  26.578  0.00  0.00    -0.158 OA
ATOM     21  C   UNL     1      22.186   6.236  25.828  0.00  0.00    +0.214 C 
ENDBRANCH   5   1
ENDBRANCH  15   5
ENDBRANCH   9  15
BRANCH  11  16
ATOM     16  C   UNL     1      16.750   6.561  21.492  0.00  0.00    +0.103 C 
BRANCH  16  20
ATOM      2  O   UNL     1      15.147   6.212  19.715  0.00  0.00    -0.276 OA
ATOM      6  N   UNL     1      14.416   6.987  21.780  0.00  0.00    -0.311 N 
ATOM     20  C   UNL     1      15.371   6.556  20.872  0.00  0.00    +0.214 C 
ATOM     31  H   UNL     1      14.700   7.249  22.720  0.00  0.00    +0.149 HD
BRANCH   6  22
ATOM     22  C   UNL     1      13.011   7.084  21.461  0.00  0.00    +0.139 C 
BRANCH  22  23
ATOM     23  C   UNL     1      12.504   8.493  21.569  0.00  0.00    -0.030 A 
ATOM     24  C   UNL     1      13.125   9.515  20.851  0.00  0.00    +0.006 A 
ATOM     25  C   UNL     1      11.411   8.779  22.387  0.00  0.00    +0.006 A 
ATOM     26  C   UNL     1      12.654  10.823  20.952  0.00  0.00    +0.019 A 
ATOM     27  C   UNL     1      10.940  10.088  22.488  0.00  0.00    +0.019 A 
ATOM     28  C   UNL     1      11.560  11.110  21.770  0.00  0.00    +0.052 A 
BRANCH  28  29
ATOM      7  N   UNL     1      10.685  13.540  21.959  0.00  0.00    -0.191 NA
ATOM     29  C   UNL     1      11.078  12.451  21.874  0.00  0.00    +0.099 C 
ENDBRANCH  28  29
ENDBRANCH  22  23
ENDBRANCH   6  22
ENDBRANCH  16  20
ENDBRANCH  11  16
TORSDOF 9
ENDMDL
MODEL 4
REMARK VINA RESULT:      -6.3      4.154      8.576
REMARK  Name = 38029291
REMARK  13 active torsions:
REMARK  status: ('A' for Active; 'I' for Inactive)
REMARK    1  A    between atoms: S_1  and  N_5
REMARK    2  A    between atoms: S_1  and  C_21
REMARK    3  A    between atoms: N_5  and  C_15
REMARK    4  A    between atoms: N_6  and  C_22
REMARK    5  A    between atoms: C_8  and  C_12
REMARK    6  A    between atoms: C_9  and  C_15
REMARK    7  A    between atoms: C_11  and  C_16
REMARK    8  A    between atoms: C_12  and  C_17
REMARK    9  A    between atoms: C_12  and  C_18
REMARK   10  A    between atoms: C_13  and  C_19
REMARK   11  A    between atoms: C_16  and  C_20
REMARK   12  A    between atoms: C_22  and  C_23
REMARK   13  A    between atoms: C_28  and  C_29
REMARK                            x       y       z     vdW  Elec       q    Type
REMARK                         _______ _______ _______ _____ _____    ______ ____
ROOT
ATOM      8  C   UNL     1      -6.471 -11.076  16.485  0.00  0.00    +0.000 C 
ATOM      9  C   UNL     1      -6.893 -11.353  17.950  0.00  0.00    +0.030 C 
ATOM     10  C   UNL     1      -5.330 -12.018  16.068  0.00  0.00    +0.012 C 
ATOM     11  C   UNL     1      -4.090 -11.865  16.971  0.00  0.00    +0.023 C 
ATOM     13  C   UNL     1      -4.461 -11.860  18.440  0.00  0.00    -0.073 C 
ATOM     14  C   UNL     1      -5.721 -11.642  18.858  0.00  0.00    -0.023 C 
ATOM     19  C   UNL     1      -3.358 -12.155  19.418  0.00  0.00    +0.039 C 
ENDROOT
BRANCH   8  12
ATOM     12  C   UNL     1      -7.647 -11.227  15.516  0.00  0.00    -0.013 C 
ATOM     17  C   UNL     1      -8.137  -9.858  15.056  0.00  0.00    +0.007 C 
ATOM     18  C   UNL     1      -7.246 -12.088  14.322  0.00  0.00    +0.007 C 
ENDBRANCH   8  12
BRANCH   9  15
ATOM     15  C   UNL     1      -7.706 -10.186  18.522  0.00  0.00    +0.113 C 
BRANCH  15   5
ATOM      5  N   UNL     1      -8.468 -10.659  19.688  0.00  0.00    -0.194 NA
ATOM     30  H   UNL     1      -7.950 -11.319  20.283  0.00  0.00    +0.148 HD
BRANCH   5   1
ATOM      1  S   UNL     1     -10.139 -10.973  19.523  0.00  0.00    +0.027 S 
ATOM      3  O   UNL     1     -10.461 -11.200  18.127  0.00  0.00    -0.158 OA
ATOM      4  O   UNL     1     -10.873  -9.995  20.304  0.00  0.00    -0.158 OA
ATOM     21  C   UNL     1     -10.262 -12.530  20.373  0.00  0.00    +0.214 C 
ENDBRANCH   5   1
ENDBRANCH  15   5
ENDBRANCH   9  15
BRANCH  11  16
ATOM     16  C   UNL     1      -3.290 -10.612  16.602  0.00  0.00    +0.103 C 
BRANCH  16  20
ATOM      2  O   UNL     1      -1.302 -11.413  15.480  0.00  0.00    -0.276 OA
ATOM      6  N   UNL     1      -2.950 -10.328  14.253  0.00  0.00    -0.311 N 
ATOM     20  C   UNL     1      -2.387 -10.843  15.411  0.00  0.00    +0.214 C 
ATOM     31  H   UNL     1      -3.857  -9.873  14.296  0.00  0.00    +0.149 HD
BRANCH   6  22
ATOM     22  C   UNL     1      -2.307 -10.405  12.962  0.00  0.00    +0.139 C 
BRANCH  22  23
ATOM     23  C   UNL     1      -3.262 -10.121  11.839  0.00  0.00    -0.030 A 
ATOM     24  C   UNL     1      -4.614 -10.432  11.978  0.00  0.00    +0.006 A 
ATOM     25  C   UNL     1      -2.797  -9.543  10.657  0.00  0.00    +0.006 A 
ATOM     26  C   UNL     1      -5.502 -10.168  10.935  0.00  0.00    +0.019 A 
ATOM     27  C   UNL     1      -3.684  -9.279   9.615  0.00  0.00    +0.019 A 
ATOM     28  C   UNL     1      -5.037  -9.590   9.753  0.00  0.00    +0.052 A 
BRANCH  28  29
ATOM      7  N   UNL     1      -6.685  -9.100   7.817  0.00  0.00    -0.191 NA
ATOM     29  C   UNL     1      -5.945  -9.319   8.684  0.00  0.00    +0.099 C 
ENDBRANCH  28  29
ENDBRANCH  22  23
ENDBRANCH   6  22
ENDBRANCH  16  20
ENDBRANCH  11  16
TORSDOF 9
ENDMDL
MODEL 5
REMARK VINA RESULT:      -6.2     28.074     31.346
REMARK  Name = 38029291
REMARK  13 active torsions:
REMARK  status: ('A' for Active; 'I' for Inactive)
REMARK    1  A    between atoms: S_1  and  N_5
REMARK    2  A    between atoms: S_1  and  C_21
REMARK    3  A    between atoms: N_5  and  C_15
REMARK    4  A    between atoms: N_6  and  C_22
REMARK    5  A    between atoms: C_8  and  C_12
REMARK    6  A    between atoms: C_9  and  C_15
REMARK    7  A    between atoms: C_11  and  C_16
REMARK    8  A    between atoms: C_12  and  C_17
REMARK    9  A    between atoms: C_12  and  C_18
REMARK   10  A    between atoms: C_13  and  C_19
REMARK   11  A    between atoms: C_16  and  C_20
REMARK   12  A    between atoms: C_22  and  C_23
REMARK   13  A    between atoms: C_28  and  C_29
REMARK                            x       y       z     vdW  Elec       q    Type
REMARK                         _______ _______ _______ _____ _____    ______ ____
ROOT
ATOM      8  C   UNL     1      20.317   6.026  21.751  0.00  0.00    +0.000 C 
ATOM      9  C   UNL     1      20.637   7.251  22.642  0.00  0.00    +0.030 C 
ATOM     10  C   UNL     1      19.679   6.477  20.427  0.00  0.00    +0.012 C 
ATOM     11  C   UNL     1      18.379   7.273  20.649  0.00  0.00    +0.023 C 
ATOM     13  C   UNL     1      18.544   8.334  21.717  0.00  0.00    -0.073 C 
ATOM     14  C   UNL     1      19.567   8.316  22.591  0.00  0.00    -0.023 C 
ATOM     19  C   UNL     1      17.530   9.445  21.731  0.00  0.00    +0.039 C 
ENDROOT
BRANCH   8  12
ATOM     12  C   UNL     1      21.567   5.187  21.464  0.00  0.00    -0.013 C 
ATOM     17  C   UNL     1      21.175   3.810  20.939  0.00  0.00    +0.007 C 
ATOM     18  C   UNL     1      22.474   5.908  20.471  0.00  0.00    +0.007 C 
ENDBRANCH   8  12
BRANCH   9  15
ATOM     15  C   UNL     1      20.871   6.831  24.098  0.00  0.00    +0.113 C 
BRANCH  15   5
ATOM      5  N   UNL     1      20.221   7.805  24.988  0.00  0.00    -0.194 NA
ATOM     30  H   UNL     1      20.335   8.783  24.690  0.00  0.00    +0.148 HD
BRANCH   5   1
ATOM      1  S   UNL     1      20.252   7.544  26.677  0.00  0.00    +0.027 S 
ATOM      3  O   UNL     1      19.846   6.184  26.970  0.00  0.00    -0.158 OA
ATOM      4  O   UNL     1      19.608   8.668  27.330  0.00  0.00    -0.158 OA
ATOM     21  C   UNL     1      21.997   7.675  26.993  0.00  0.00    +0.214 C 
ENDBRANCH   5   1
ENDBRANCH  15   5
ENDBRANCH   9  15
BRANCH  11  16
ATOM     16  C   UNL     1      17.209   6.339  20.979  0.00  0.00    +0.103 C 
BRANCH  16  20
ATOM      2  O   UNL     1      16.363   5.737  18.795  0.00  0.00    -0.276 OA
ATOM      6  N   UNL     1      15.029   6.980  20.236  0.00  0.00    -0.311 N 
ATOM     20  C   UNL     1      16.182   6.300  19.871  0.00  0.00    +0.214 C 
ATOM     31  H   UNL     1      14.973   7.413  21.153  0.00  0.00    +0.149 HD
BRANCH   6  22
ATOM     22  C   UNL     1      13.880   7.106  19.371  0.00  0.00    +0.139 C 
BRANCH  22  23
ATOM     23  C   UNL     1      14.064   8.184  18.343  0.00  0.00    -0.030 A 
ATOM     24  C   UNL     1      13.880   7.897  16.991  0.00  0.00    +0.006 A 
ATOM     25  C   UNL     1      14.418   9.474  18.741  0.00  0.00    +0.006 A 
ATOM     26  C   UNL     1      14.052   8.899  16.035  0.00  0.00    +0.019 A 
ATOM     27  C   UNL     1      14.589  10.475  17.785  0.00  0.00    +0.019 A 
ATOM     28  C   UNL     1      14.405  10.189  16.433  0.00  0.00    +0.052 A 
BRANCH  28  29
ATOM      7  N   UNL     1      14.723  12.050  14.661  0.00  0.00    -0.191 NA
ATOM     29  C   UNL     1      14.581  11.215  15.455  0.00  0.00    +0.099 C 
ENDBRANCH  28  29
ENDBRANCH  22  23
ENDBRANCH   6  22
ENDBRANCH  16  20
ENDBRANCH  11  16
TORSDOF 9
ENDMDL
MODEL 6
REMARK VINA RESULT:      -6.1     27.037     29.745
REMARK  Name = 38029291
REMARK  13 active torsions:
REMARK  status: ('A' for Active; 'I' for Inactive)
REMARK    1  A    between atoms: S_1  and  N_5
REMARK    2  A    between atoms: S_1  and  C_21
REMARK    3  A    between atoms: N_5  and  C_15
REMARK    4  A    between atoms: N_6  and  C_22
REMARK    5  A    between atoms: C_8  and  C_12
REMARK    6  A    between atoms: C_9  and  C_15
REMARK    7  A    between atoms: C_11  and  C_16
REMARK    8  A    between atoms: C_12  and  C_17
REMARK    9  A    between atoms: C_12  and  C_18
REMARK   10  A    between atoms: C_13  and  C_19
REMARK   11  A    between atoms: C_16  and  C_20
REMARK   12  A    between atoms: C_22  and  C_23
REMARK   13  A    between atoms: C_28  and  C_29
REMARK                            x       y       z     vdW  Elec       q    Type
REMARK                         _______ _______ _______ _____ _____    ______ ____
ROOT
ATOM      8  C   UNL     1      13.866   9.385  18.786  0.00  0.00    +0.000 C 
ATOM      9  C   UNL     1      13.672   7.976  18.171  0.00  0.00    +0.030 C 
ATOM     10  C   UNL     1      15.360   9.735  18.865  0.00  0.00    +0.012 C 
ATOM     11  C   UNL     1      16.152   8.719  19.711  0.00  0.00    +0.023 C 
ATOM     13  C   UNL     1      15.809   7.290  19.341  0.00  0.00    -0.073 C 
ATOM     14  C   UNL     1      14.704   6.979  18.641  0.00  0.00    -0.023 C 
ATOM     19  C   UNL     1      16.791   6.230  19.756  0.00  0.00    +0.039 C 
ENDROOT
BRANCH   8  12
ATOM     12  C   UNL     1      13.123  10.462  17.988  0.00  0.00    -0.013 C 
ATOM     17  C   UNL     1      13.427  11.846  18.552  0.00  0.00    +0.007 C 
ATOM     18  C   UNL     1      13.499  10.383  16.512  0.00  0.00    +0.007 C 
ENDBRANCH   8  12
BRANCH   9  15
ATOM     15  C   UNL     1      12.267   7.434  18.461  0.00  0.00    +0.113 C 
BRANCH  15   5
ATOM      5  N   UNL     1      12.346   6.464  19.565  0.00  0.00    -0.194 NA
ATOM     30  H   UNL     1      12.321   5.483  19.258  0.00  0.00    +0.148 HD
BRANCH   5   1
ATOM      1  S   UNL     1      11.534   6.798  21.030  0.00  0.00    +0.027 S 
ATOM      3  O   UNL     1      11.228   5.558  21.715  0.00  0.00    -0.158 OA
ATOM      4  O   UNL     1      10.497   7.778  20.770  0.00  0.00    -0.158 OA
ATOM     21  C   UNL     1      12.825   7.620  21.937  0.00  0.00    +0.214 C 
ENDBRANCH   5   1
ENDBRANCH  15   5
ENDBRANCH   9  15
BRANCH  11  16
ATOM     16  C   UNL     1      15.939   8.964  21.209  0.00  0.00    +0.103 C 
BRANCH  16  20
ATOM      2  O   UNL     1      17.380  10.592  22.270  0.00  0.00    -0.276 OA
ATOM      6  N   UNL     1      18.113   8.400  22.029  0.00  0.00    -0.311 N 
ATOM     20  C   UNL     1      17.202   9.437  21.893  0.00  0.00    +0.214 C 
ATOM     31  H   UNL     1      17.873   7.474  21.686  0.00  0.00    +0.149 HD
BRANCH   6  22
ATOM     22  C   UNL     1      19.409   8.564  22.646  0.00  0.00    +0.139 C 
BRANCH  22  23
ATOM     23  C   UNL     1      20.427   7.621  22.076  0.00  0.00    -0.030 A 
ATOM     24  C   UNL     1      20.407   6.273  22.431  0.00  0.00    +0.006 A 
ATOM     25  C   UNL     1      21.394   8.093  21.187  0.00  0.00    +0.006 A 
ATOM     26  C   UNL     1      21.353   5.396  21.900  0.00  0.00    +0.019 A 
ATOM     27  C   UNL     1      22.340   7.217  20.656  0.00  0.00    +0.019 A 
ATOM     28  C   UNL     1      22.320   5.869  21.011  0.00  0.00    +0.052 A 
BRANCH  28  29
ATOM      7  N   UNL     1      24.077   4.242  20.026  0.00  0.00    -0.191 NA
ATOM     29  C   UNL     1      23.290   4.972  20.467  0.00  0.00    +0.099 C 
ENDBRANCH  28  29
ENDBRANCH  22  23
ENDBRANCH   6  22
ENDBRANCH  16  20
ENDBRANCH  11  16
TORSDOF 9
ENDMDL
MODEL 7
REMARK VINA RESULT:      -6.1     22.090     25.151
REMARK  Name = 38029291
REMARK  13 active torsions:
REMARK  status: ('A' for Active; 'I' for Inactive)
REMARK    1  A    between atoms: S_1  and  N_5
REMARK    2  A    between atoms: S_1  and  C_21
REMARK    3  A    between atoms: N_5  and  C_15
REMARK    4  A    between atoms: N_6  and  C_22
REMARK    5  A    between atoms: C_8  and  C_12
REMARK    6  A    between atoms: C_9  and  C_15
REMARK    7  A    between atoms: C_11  and  C_16
REMARK    8  A    between atoms: C_12  and  C_17
REMARK    9  A    between atoms: C_12  and  C_18
REMARK   10  A    between atoms: C_13  and  C_19
REMARK   11  A    between atoms: C_16  and  C_20
REMARK   12  A    between atoms: C_22  and  C_23
REMARK   13  A    between atoms: C_28  and  C_29
REMARK                            x       y       z     vdW  Elec       q    Type
REMARK                         _______ _______ _______ _____ _____    ______ ____
ROOT
ATOM      8  C   UNL     1      13.537   6.030   0.282  0.00  0.00    +0.000 C 
ATOM      9  C   UNL     1      13.873   4.538   0.530  0.00  0.00    +0.030 C 
ATOM     10  C   UNL     1      13.024   6.686   1.574  0.00  0.00    +0.012 C 
ATOM     11  C   UNL     1      11.766   5.986   2.122  0.00  0.00    +0.023 C 
ATOM     13  C   UNL     1      11.925   4.480   2.145  0.00  0.00    -0.073 C 
ATOM     14  C   UNL     1      12.881   3.851   1.438  0.00  0.00    -0.023 C 
ATOM     19  C   UNL     1      10.987   3.713   3.037  0.00  0.00    +0.039 C 
ENDROOT
BRANCH   8  12
ATOM     12  C   UNL     1      14.747   6.806  -0.248  0.00  0.00    -0.013 C 
ATOM     17  C   UNL     1      14.366   8.256  -0.532  0.00  0.00    +0.007 C 
ATOM     18  C   UNL     1      15.902   6.733   0.746  0.00  0.00    +0.007 C 
ENDBRANCH   8  12
BRANCH   9  15
ATOM     15  C   UNL     1      13.977   3.767  -0.790  0.00  0.00    +0.113 C 
BRANCH  15   5
ATOM      5  N   UNL     1      12.951   4.266  -1.719  0.00  0.00    -0.194 NA
ATOM     30  H   UNL     1      12.791   5.280  -1.657  0.00  0.00    +0.148 HD
BRANCH   5   1
ATOM      1  S   UNL     1      11.559   3.319  -2.013  0.00  0.00    +0.027 S 
ATOM      3  O   UNL     1      10.520   3.667  -1.063  0.00  0.00    -0.158 OA
ATOM      4  O   UNL     1      11.968   1.939  -2.193  0.00  0.00    -0.158 OA
ATOM     21  C   UNL     1      11.074   3.941  -3.607  0.00  0.00    +0.214 C 
ENDBRANCH   5   1
ENDBRANCH  15   5
ENDBRANCH   9  15
BRANCH  11  16
ATOM     16  C   UNL     1      10.518   6.394   1.332  0.00  0.00    +0.103 C 
BRANCH  16  20
ATOM      2  O   UNL     1       8.797   8.050   1.716  0.00  0.00    -0.276 OA
ATOM      6  N   UNL     1       9.624   6.822   3.508  0.00  0.00    -0.311 N 
ATOM     20  C   UNL     1       9.547   7.192   2.173  0.00  0.00    +0.214 C 
ATOM     31  H   UNL     1      10.277   6.097   3.789  0.00  0.00    +0.149 HD
BRANCH   6  22
ATOM     22  C   UNL     1       8.811   7.421   4.540  0.00  0.00    +0.139 C 
BRANCH  22  23
ATOM     23  C   UNL     1       9.047   6.788   5.880  0.00  0.00    -0.030 A 
ATOM     24  C   UNL     1       8.695   7.469   7.046  0.00  0.00    +0.006 A 
ATOM     25  C   UNL     1       9.616   5.516   5.961  0.00  0.00    +0.006 A 
ATOM     26  C   UNL     1       8.914   6.881   8.291  0.00  0.00    +0.019 A 
ATOM     27  C   UNL     1       9.834   4.928   7.206  0.00  0.00    +0.019 A 
ATOM     28  C   UNL     1       9.483   5.609   8.371  0.00  0.00    +0.052 A 
BRANCH  28  29
ATOM      7  N   UNL     1       9.890   4.517  10.684  0.00  0.00    -0.191 NA
ATOM     29  C   UNL     1       9.708   5.006   9.647  0.00  0.00    +0.099 C 
ENDBRANCH  28  29
ENDBRANCH  22  23
ENDBRANCH   6  22
ENDBRANCH  16  20
ENDBRANCH  11  16
TORSDOF 9
ENDMDL
MODEL 8
REMARK VINA RESULT:      -6.1     28.033     30.994
REMARK  Name = 38029291
REMARK  13 active torsions:
REMARK  status: ('A' for Active; 'I' for Inactive)
REMARK    1  A    between atoms: S_1  and  N_5
REMARK    2  A    between atoms: S_1  and  C_21
REMARK    3  A    between atoms: N_5  and  C_15
REMARK    4  A    between atoms: N_6  and  C_22
REMARK    5  A    between atoms: C_8  and  C_12
REMARK    6  A    between atoms: C_9  and  C_15
REMARK    7  A    between atoms: C_11  and  C_16
REMARK    8  A    between atoms: C_12  and  C_17
REMARK    9  A    between atoms: C_12  and  C_18
REMARK   10  A    between atoms: C_13  and  C_19
REMARK   11  A    between atoms: C_16  and  C_20
REMARK   12  A    between atoms: C_22  and  C_23
REMARK   13  A    between atoms: C_28  and  C_29
REMARK                            x       y       z     vdW  Elec       q    Type
REMARK                         _______ _______ _______ _____ _____    ______ ____
ROOT
ATOM      8  C   UNL     1      21.024   6.623  22.190  0.00  0.00    +0.000 C 
ATOM      9  C   UNL     1      21.158   5.505  21.126  0.00  0.00    +0.030 C 
ATOM     10  C   UNL     1      19.579   6.703  22.706  0.00  0.00    +0.012 C 
ATOM     11  C   UNL     1      18.571   6.982  21.574  0.00  0.00    +0.023 C 
ATOM     13  C   UNL     1      18.814   6.092  20.372  0.00  0.00    -0.073 C 
ATOM     14  C   UNL     1      19.971   5.429  20.196  0.00  0.00    -0.023 C 
ATOM     19  C   UNL     1      17.677   5.944  19.399  0.00  0.00    +0.039 C 
ENDROOT
BRANCH   8  12
ATOM     12  C   UNL     1      21.982   6.408  23.366  0.00  0.00    -0.013 C 
ATOM     17  C   UNL     1      21.462   7.116  24.613  0.00  0.00    +0.007 C 
ATOM     18  C   UNL     1      22.175   4.918  23.629  0.00  0.00    +0.007 C 
ENDBRANCH   8  12
BRANCH   9  15
ATOM     15  C   UNL     1      22.441   5.674  20.304  0.00  0.00    +0.113 C 
BRANCH  15   5
ATOM      5  N   UNL     1      23.040   4.350  20.074  0.00  0.00    -0.194 NA
ATOM     30  H   UNL     1      22.358   3.581  20.064  0.00  0.00    +0.148 HD
BRANCH   5   1
ATOM      1  S   UNL     1      24.552   3.983  20.781  0.00  0.00    +0.027 S 
ATOM      3  O   UNL     1      24.406   2.873  21.702  0.00  0.00    -0.158 OA
ATOM      4  O   UNL     1      25.177   5.222  21.205  0.00  0.00    -0.158 OA
ATOM     21  C   UNL     1      25.443   3.399  19.357  0.00  0.00    +0.214 C 
ENDBRANCH   5   1
ENDBRANCH  15   5
ENDBRANCH   9  15
BRANCH  11  16
ATOM     16  C   UNL     1      18.588   8.462  21.173  0.00  0.00    +0.103 C 
BRANCH  16  20
ATOM      2  O   UNL     1      17.019  10.302  21.123  0.00  0.00    -0.276 OA
ATOM      6  N   UNL     1      16.328   8.230  21.918  0.00  0.00    -0.311 N 
ATOM     20  C   UNL     1      17.246   9.124  21.388  0.00  0.00    +0.214 C 
ATOM     31  H   UNL     1      16.611   7.272  22.102  0.00  0.00    +0.149 HD
BRANCH   6  22
ATOM     22  C   UNL     1      14.964   8.590  22.227  0.00  0.00    +0.139 C 
BRANCH  22  23
ATOM     23  C   UNL     1      14.070   8.493  21.026  0.00  0.00    -0.030 A 
ATOM     24  C   UNL     1      13.547   9.650  20.449  0.00  0.00    +0.006 A 
ATOM     25  C   UNL     1      13.764   7.244  20.484  0.00  0.00    +0.006 A 
ATOM     26  C   UNL     1      12.717   9.560  19.333  0.00  0.00    +0.019 A 
ATOM     27  C   UNL     1      12.933   7.154  19.367  0.00  0.00    +0.019 A 
ATOM     28  C   UNL     1      12.410   8.311  18.790  0.00  0.00    +0.052 A 
BRANCH  28  29
ATOM      7  N   UNL     1      10.869   8.141  16.717  0.00  0.00    -0.191 NA
ATOM     29  C   UNL     1      11.560   8.218  17.646  0.00  0.00    +0.099 C 
ENDBRANCH  28  29
ENDBRANCH  22  23
ENDBRANCH   6  22
ENDBRANCH  16  20
ENDBRANCH  11  16
TORSDOF 9
ENDMDL
MODEL 9
REMARK VINA RESULT:      -6.1     21.876     23.485
REMARK  Name = 38029291
REMARK  13 active torsions:
REMARK  status: ('A' for Active; 'I' for Inactive)
REMARK    1  A    between atoms: S_1  and  N_5
REMARK    2  A    between atoms: S_1  and  C_21
REMARK    3  A    between atoms: N_5  and  C_15
REMARK    4  A    between atoms: N_6  and  C_22
REMARK    5  A    between atoms: C_8  and  C_12
REMARK    6  A    between atoms: C_9  and  C_15
REMARK    7  A    between atoms: C_11  and  C_16
REMARK    8  A    between atoms: C_12  and  C_17
REMARK    9  A    between atoms: C_12  and  C_18
REMARK   10  A    between atoms: C_13  and  C_19
REMARK   11  A    between atoms: C_16  and  C_20
REMARK   12  A    between atoms: C_22  and  C_23
REMARK   13  A    between atoms: C_28  and  C_29
REMARK                            x       y       z     vdW  Elec       q    Type
REMARK                         _______ _______ _______ _____ _____    ______ ____
ROOT
ATOM      8  C   UNL     1     -11.918   9.990  18.595  0.00  0.00    +0.000 C 
ATOM      9  C   UNL     1     -11.822   8.594  17.930  0.00  0.00    +0.030 C 
ATOM     10  C   UNL     1     -11.229   9.978  19.968  0.00  0.00    +0.012 C 
ATOM     11  C   UNL     1     -11.850   8.939  20.922  0.00  0.00    +0.023 C 
ATOM     13  C   UNL     1     -12.036   7.596  20.246  0.00  0.00    -0.073 C 
ATOM     14  C   UNL     1     -12.007   7.459  18.908  0.00  0.00    -0.023 C 
ATOM     19  C   UNL     1     -12.211   6.404  21.146  0.00  0.00    +0.039 C 
ENDROOT
BRANCH   8  12
ATOM     12  C   UNL     1     -11.301  11.083  17.716  0.00  0.00    -0.013 C 
ATOM     17  C   UNL     1     -11.235  12.404  18.477  0.00  0.00    +0.007 C 
ATOM     18  C   UNL     1      -9.915  10.663  17.238  0.00  0.00    +0.007 C 
ENDBRANCH   8  12
BRANCH   9  15
ATOM     15  C   UNL     1     -12.835   8.455  16.787  0.00  0.00    +0.113 C 
BRANCH  15   5
ATOM      5  N   UNL     1     -12.116   8.134  15.545  0.00  0.00    -0.194 NA
ATOM     30  H   UNL     1     -11.151   8.490  15.519  0.00  0.00    +0.148 HD
BRANCH   5   1
ATOM      1  S   UNL     1     -12.956   8.178  14.058  0.00  0.00    +0.027 S 
ATOM      3  O   UNL     1     -14.330   8.582  14.282  0.00  0.00    -0.158 OA
ATOM      4  O   UNL     1     -12.649   6.970  13.317  0.00  0.00    -0.158 OA
ATOM     21  C   UNL     1     -12.116   9.522  13.251  0.00  0.00    +0.214 C 
ENDBRANCH   5   1
ENDBRANCH  15   5
ENDBRANCH   9  15
BRANCH  11  16
ATOM     16  C   UNL     1     -13.172   9.447  21.507  0.00  0.00    +0.103 C 
BRANCH  16  20
ATOM      2  O   UNL     1     -13.384  11.844  21.754  0.00  0.00    -0.276 OA
ATOM      6  N   UNL     1     -12.383  10.604  23.445  0.00  0.00    -0.311 N 
ATOM     20  C   UNL     1     -13.008  10.771  22.218  0.00  0.00    +0.214 C 
ATOM     31  H   UNL     1     -12.110   9.672  23.745  0.00  0.00    +0.149 HD
BRANCH   6  22
ATOM     22  C   UNL     1     -12.096  11.700  24.340  0.00  0.00    +0.139 C 
BRANCH  22  23
ATOM     23  C   UNL     1     -11.974  11.246  25.766  0.00  0.00    -0.030 A 
ATOM     24  C   UNL     1     -10.912  10.426  26.149  0.00  0.00    +0.006 A 
ATOM     25  C   UNL     1     -12.921  11.646  26.709  0.00  0.00    +0.006 A 
ATOM     26  C   UNL     1     -10.798  10.004  27.473  0.00  0.00    +0.019 A 
ATOM     27  C   UNL     1     -12.807  11.224  28.033  0.00  0.00    +0.019 A 
ATOM     28  C   UNL     1     -11.746  10.404  28.416  0.00  0.00    +0.052 A 
BRANCH  28  29
ATOM      7  N   UNL     1     -11.537   9.620  30.875  0.00  0.00    -0.191 NA
ATOM     29  C   UNL     1     -11.630   9.972  29.773  0.00  0.00    +0.099 C 
ENDBRANCH  28  29
ENDBRANCH  22  23
ENDBRANCH   6  22
ENDBRANCH  16  20
ENDBRANCH  11  16
TORSDOF 9
ENDMDL
MODEL 10
REMARK VINA RESULT:      -6.0      2.413      3.941
REMARK  Name = 38029291
REMARK  13 active torsions:
REMARK  status: ('A' for Active; 'I' for Inactive)
REMARK    1  A    between atoms: S_1  and  N_5
REMARK    2  A    between atoms: S_1  and  C_21
REMARK    3  A    between atoms: N_5  and  C_15
REMARK    4  A    between atoms: N_6  and  C_22
REMARK    5  A    between atoms: C_8  and  C_12
REMARK    6  A    between atoms: C_9  and  C_15
REMARK    7  A    between atoms: C_11  and  C_16
REMARK    8  A    between atoms: C_12  and  C_17
REMARK    9  A    between atoms: C_12  and  C_18
REMARK   10  A    between atoms: C_13  and  C_19
REMARK   11  A    between atoms: C_16  and  C_20
REMARK   12  A    between atoms: C_22  and  C_23
REMARK   13  A    between atoms: C_28  and  C_29
REMARK                            x       y       z     vdW  Elec       q    Type
REMARK                         _______ _______ _______ _____ _____    ______ ____
ROOT
ATOM      8  C   UNL     1      -5.422 -10.417   7.518  0.00  0.00    +0.000 C 
ATOM      9  C   UNL     1      -6.821  -9.879   7.908  0.00  0.00    +0.030 C 
ATOM     10  C   UNL     1      -4.770 -11.131   8.712  0.00  0.00    +0.012 C 
ATOM     11  C   UNL     1      -4.614 -10.203   9.932  0.00  0.00    +0.023 C 
ATOM     13  C   UNL     1      -5.886  -9.431  10.217  0.00  0.00    -0.073 C 
ATOM     14  C   UNL     1      -6.867  -9.308   9.305  0.00  0.00    -0.023 C 
ATOM     19  C   UNL     1      -6.025  -8.839  11.593  0.00  0.00    +0.039 C 
ENDROOT
BRANCH   8  12
ATOM     12  C   UNL     1      -5.491 -11.369   6.319  0.00  0.00    -0.013 C 
ATOM     17  C   UNL     1      -4.090 -11.812   5.911  0.00  0.00    +0.007 C 
ATOM     18  C   UNL     1      -6.367 -12.574   6.647  0.00  0.00    +0.007 C 
ENDBRANCH   8  12
BRANCH   9  15
ATOM     15  C   UNL     1      -7.307  -8.823   6.908  0.00  0.00    +0.113 C 
BRANCH  15   5
ATOM      5  N   UNL     1      -8.736  -8.564   7.139  0.00  0.00    -0.194 NA
ATOM     30  H   UNL     1      -9.360  -9.082   6.507  0.00  0.00    +0.148 HD
BRANCH   5   1
ATOM      1  S   UNL     1      -9.244  -6.983   7.542  0.00  0.00    +0.027 S 
ATOM      3  O   UNL     1     -10.211  -6.516   6.568  0.00  0.00    -0.158 OA
ATOM      4  O   UNL     1      -8.074  -6.190   7.866  0.00  0.00    -0.158 OA
ATOM     21  C   UNL     1     -10.109  -7.299   9.064  0.00  0.00    +0.214 C 
ENDBRANCH   5   1
ENDBRANCH  15   5
ENDBRANCH   9  15
BRANCH  11  16
ATOM     16  C   UNL     1      -3.424  -9.254   9.755  0.00  0.00    +0.103 C 
BRANCH  16  20
ATOM      2  O   UNL     1      -1.265  -8.917  10.794  0.00  0.00    -0.276 OA
ATOM      6  N   UNL     1      -2.778 -10.397  11.754  0.00  0.00    -0.311 N 
ATOM     20  C   UNL     1      -2.357  -9.480  10.802  0.00  0.00    +0.214 C 
ATOM     31  H   UNL     1      -3.704 -10.809  11.677  0.00  0.00    +0.149 HD
BRANCH   6  22
ATOM     22  C   UNL     1      -1.961 -10.805  12.873  0.00  0.00    +0.139 C 
BRANCH  22  23
ATOM     23  C   UNL     1      -2.719 -10.763  14.168  0.00  0.00    -0.030 A 
ATOM     24  C   UNL     1      -4.110 -10.677  14.160  0.00  0.00    +0.006 A 
ATOM     25  C   UNL     1      -2.030 -10.811  15.381  0.00  0.00    +0.006 A 
ATOM     26  C   UNL     1      -4.814 -10.639  15.363  0.00  0.00    +0.019 A 
ATOM     27  C   UNL     1      -2.734 -10.773  16.584  0.00  0.00    +0.019 A 
ATOM     28  C   UNL     1      -4.125 -10.687  16.576  0.00  0.00    +0.052 A 
BRANCH  28  29
ATOM      7  N   UNL     1      -5.432 -10.616  18.811  0.00  0.00    -0.191 NA
ATOM     29  C   UNL     1      -4.846 -10.648  17.809  0.00  0.00    +0.099 C 
ENDBRANCH  28  29
ENDBRANCH  22  23
ENDBRANCH   6  22
ENDBRANCH  16  20
ENDBRANCH  11  16
TORSDOF 9
ENDMDL
