REMARK  Name = 28990909
REMARK  8 active torsions:
REMARK  status: ('A' for Active; 'I' for Inactive)
REMARK    1  A    between atoms: S_1  and  N_7
REMARK    2  A    between atoms: S_1  and  C_28
REMARK    3  A    between atoms: N_5  and  C_16
REMARK    4  A    between atoms: N_7  and  C_20
REMARK    5  A    between atoms: N_8  and  C_27
REMARK    6  A    between atoms: C_16  and  C_19
REMARK    7  A    between atoms: C_28  and  C_31
REMARK    8  A    between atoms: C_31  and  C_32
REMARK                            x       y       z     vdW  Elec       q    Type
REMARK                         _______ _______ _______ _____ _____    ______ ____
ROOT
ATOM      2  O   UNL     1       1.390   2.487   1.886  0.00  0.00    -0.266 OA
ATOM      5  N   UNL     1      -3.039   0.840   0.211  0.00  0.00    -0.297 NA
ATOM      6  N   UNL     1      -0.324   2.515   0.299  0.00  0.00    -0.310 N 
ATOM      9  C   UNL     1      -2.719   3.244   0.849  0.00  0.00    +0.024 C 
ATOM     10  C   UNL     1      -2.162   2.516  -1.423  0.00  0.00    +0.050 C 
ATOM     11  C   UNL     1      -2.770   3.660  -0.616  0.00  0.00    +0.017 C 
ATOM     12  C   UNL     1      -3.519   1.940   1.056  0.00  0.00    +0.090 C 
ATOM     13  C   UNL     1      -2.994   1.232  -1.206  0.00  0.00    +0.094 C 
ATOM     14  C   UNL     1      -1.250   3.108   1.274  0.00  0.00    +0.130 C 
ATOM     15  C   UNL     1      -0.716   2.285  -1.024  0.00  0.00    +0.026 A 
ATOM     17  C   UNL     1       0.176   1.845  -1.926  0.00  0.00    +0.024 A 
ATOM     18  C   UNL     1       0.995   2.284   0.737  0.00  0.00    +0.274 A 
ATOM     20  C   UNL     1       1.954   1.772  -0.293  0.00  0.00    +0.112 A 
ATOM     21  C   UNL     1       1.537   1.582  -1.550  0.00  0.00    +0.031 A 
ENDROOT
BRANCH  20   7
ATOM      7  N   UNL     1       3.237   1.523   0.094  0.00  0.00    -0.215 N 
ATOM     33  H   UNL     1       3.480   1.954   0.997  0.00  0.00    +0.173 HD
BRANCH   7   1
ATOM      1  S   UNL     1       3.745  -0.100  -0.041  0.00  0.00    +0.043 S 
ATOM      3  O   UNL     1       3.531  -0.784   1.220  0.00  0.00    -0.155 OA
ATOM      4  O   UNL     1       3.254  -0.655  -1.288  0.00  0.00    -0.155 OA
BRANCH   1  28
ATOM     28  C   UNL     1       5.495   0.146  -0.216  0.00  0.00    +0.188 C 
BRANCH  28  31
ATOM     31  C   UNL     1       6.228  -1.177  -0.360  0.00  0.00    +0.021 C 
ATOM     32  C   UNL     1       7.728  -0.971  -0.491  0.00  0.00    +0.005 C 
ENDBRANCH  28  31
ENDBRANCH   1  28
ENDBRANCH   7   1
ENDBRANCH  20   7
BRANCH   5  16
ATOM     16  C   UNL     1      -3.854  -0.358   0.397  0.00  0.00    +0.121 C 
BRANCH  16  19
ATOM      8  N   UNL     1      -2.517  -3.523  -0.920  0.00  0.00    -0.349 N 
ATOM     19  C   UNL     1      -3.096  -1.611   0.048  0.00  0.00    -0.008 A 
ATOM     22  C   UNL     1      -1.880  -2.058   0.637  0.00  0.00    +0.004 A 
ATOM     23  C   UNL     1      -3.462  -2.533  -0.906  0.00  0.00    +0.091 A 
ATOM     24  C   UNL     1      -1.539  -3.259   0.012  0.00  0.00    +0.049 A 
ATOM     25  C   UNL     1      -1.035  -1.554   1.646  0.00  0.00    +0.010 A 
ATOM     26  C   UNL     1      -0.390  -3.984   0.347  0.00  0.00    +0.026 A 
ATOM     27  C   UNL     1      -2.556  -4.676  -1.794  0.00  0.00    +0.149 C 
ATOM     29  C   UNL     1       0.118  -2.268   1.991  0.00  0.00    +0.001 A 
ATOM     30  C   UNL     1       0.434  -3.465   1.350  0.00  0.00    +0.002 A 
ENDBRANCH  16  19
ENDBRANCH   5  16
TORSDOF 6
