REMARK  Name = 75536079
REMARK  5 active torsions:
REMARK  status: ('A' for Active; 'I' for Inactive)
REMARK    1  A    between atoms: O_2  and  C_10
REMARK    2  A    between atoms: O_3  and  C_12
REMARK    3  A    between atoms: N_5  and  C_9
REMARK    4  A    between atoms: C_8  and  C_13
REMARK    5  A    between atoms: C_16  and  C_18
REMARK                            x       y       z     vdW  Elec       q    Type
REMARK                         _______ _______ _______ _____ _____    ______ ____
ROOT
ATOM      8  C   UNL     1       2.457   0.480   0.961  0.00  0.00    +0.046 C 
ATOM      9  C   UNL     1       1.652   1.204  -0.141  0.00  0.00    +0.112 C 
ATOM     10  C   UNL     1       2.021   2.674   0.056  0.00  0.00    +0.164 C 
ATOM     11  C   UNL     1       3.638   1.423   1.310  0.00  0.00    +0.044 C 
ATOM     12  C   UNL     1       3.511   2.617   0.367  0.00  0.00    +0.145 C 
ENDROOT
BRANCH   8  13
ATOM      6  N   UNL     1       2.804  -3.297   1.008  0.00  0.00    -0.263 NA
ATOM     13  C   UNL     1       2.873  -0.921   0.567  0.00  0.00    -0.024 A 
ATOM     14  C   UNL     1       3.675  -1.144  -0.546  0.00  0.00    +0.007 A 
ATOM     15  C   UNL     1       2.468  -2.022   1.305  0.00  0.00    +0.114 A 
ATOM     17  C   UNL     1       4.042  -2.442  -0.884  0.00  0.00    +0.020 A 
ATOM     19  C   UNL     1       3.585  -3.475  -0.081  0.00  0.00    +0.111 A 
ENDBRANCH   8  13
BRANCH   9   5
ATOM      4  O   UNL     1       0.107  -0.841  -1.437  0.00  0.00    -0.268 OA
ATOM      5  N   UNL     1       0.234   0.983  -0.009  0.00  0.00    -0.304 N 
ATOM     16  C   UNL     1      -0.429  -0.037  -0.678  0.00  0.00    +0.270 C 
ATOM     26  H   UNL     1      -0.292   1.576   0.627  0.00  0.00    +0.149 HD
BRANCH  16  18
ATOM      1  S   UNL     1      -2.827  -1.328  -1.224  0.00  0.00    -0.063 S 
ATOM      7  N   UNL     1      -2.546   0.718   0.322  0.00  0.00    -0.234 NA
ATOM     18  C   UNL     1      -1.896  -0.115  -0.456  0.00  0.00    +0.164 A 
ATOM     20  C   UNL     1      -4.244  -0.706  -0.463  0.00  0.00    +0.040 A 
ATOM     21  C   UNL     1      -3.895   0.392   0.328  0.00  0.00    +0.079 A 
ATOM     22  C   UNL     1      -5.570  -1.159  -0.560  0.00  0.00    +0.017 A 
ATOM     23  C   UNL     1      -4.910   1.060   1.046  0.00  0.00    +0.029 A 
ATOM     24  C   UNL     1      -6.556  -0.480   0.162  0.00  0.00    +0.001 A 
ATOM     25  C   UNL     1      -6.232   0.615   0.955  0.00  0.00    +0.002 A 
ENDBRANCH  16  18
ENDBRANCH   9   5
BRANCH  10   2
ATOM      2  O   UNL     1       1.769   3.450  -1.100  0.00  0.00    -0.387 OA
ATOM     27  H   UNL     1       2.114   4.343  -0.933  0.00  0.00    +0.210 HD
ENDBRANCH  10   2
BRANCH  12   3
ATOM      3  O   UNL     1       4.269   2.352  -0.809  0.00  0.00    -0.389 OA
ATOM     28  H   UNL     1       5.203   2.288  -0.547  0.00  0.00    +0.210 HD
ENDBRANCH  12   3
TORSDOF 5
