MODEL 1
REMARK VINA RESULT:      -6.8      0.000      0.000
REMARK  Name = 11882546
REMARK  12 active torsions:
REMARK  status: ('A' for Active; 'I' for Inactive)
REMARK    1  A    between atoms: O_1  and  C_12
REMARK    2  A    between atoms: O_2  and  C_13
REMARK    3  A    between atoms: O_6  and  C_25
REMARK    4  A    between atoms: N_8  and  C_14
REMARK    5  A    between atoms: N_9  and  C_19
REMARK    6  A    between atoms: N_10  and  C_24
REMARK    7  A    between atoms: C_16  and  C_18
REMARK    8  A    between atoms: C_19  and  C_21
REMARK    9  A    between atoms: C_19  and  C_23
REMARK   10  A    between atoms: C_21  and  C_22
REMARK   11  A    between atoms: C_22  and  C_25
REMARK   12  A    between atoms: C_30  and  C_31
REMARK                            x       y       z     vdW  Elec       q    Type
REMARK                         _______ _______ _______ _____ _____    ______ ____
ROOT
ATOM     12  C   UNL     1      12.558   6.883  20.458  0.00  0.00    +0.167 C 
ATOM     13  C   UNL     1      11.258   7.614  20.101  0.00  0.00    +0.149 C 
ATOM     14  C   UNL     1      13.745   7.859  20.558  0.00  0.00    +0.129 C 
ATOM     15  C   UNL     1      10.937   8.743  21.096  0.00  0.00    +0.074 C 
ATOM     16  C   UNL     1      12.152   9.502  21.547  0.00  0.00    +0.015 C 
ATOM     17  C   UNL     1      13.416   9.122  21.307  0.00  0.00    +0.006 C 
ENDROOT
BRANCH  14   8
ATOM      4  O   UNL     1      16.484   8.168  19.777  0.00  0.00    -0.252 OA
ATOM      8  N   UNL     1      14.894   7.238  21.174  0.00  0.00    -0.290 N 
ATOM     10  N   UNL     1      17.104   6.716  21.514  0.00  0.00    -0.269 N 
ATOM     20  C   UNL     1      16.205   7.443  20.729  0.00  0.00    +0.304 C 
ATOM     32  H   UNL     1      14.742   6.580  21.932  0.00  0.00    +0.151 HD
ATOM     36  H   UNL     1      16.706   6.163  22.268  0.00  0.00    +0.156 HD
BRANCH  10  24
ATOM     24  C   UNL     1      18.511   6.655  21.390  0.00  0.00    +0.035 A 
ATOM     26  C   UNL     1      19.074   5.763  20.492  0.00  0.00    +0.023 A 
ATOM     27  C   UNL     1      19.299   7.488  22.168  0.00  0.00    +0.023 A 
ATOM     28  C   UNL     1      20.462   5.701  20.368  0.00  0.00    +0.005 A 
ATOM     29  C   UNL     1      20.687   7.427  22.044  0.00  0.00    +0.005 A 
ATOM     30  C   UNL     1      21.269   6.534  21.144  0.00  0.00    -0.050 A 
ATOM     31  C   UNL     1      22.753   6.470  21.012  0.00  0.00    +0.044 C 
ENDBRANCH  10  24
ENDBRANCH  14   8
BRANCH  16  18
ATOM      3  O   UNL     1      11.306  11.681  21.793  0.00  0.00    -0.271 OA
ATOM      9  N   UNL     1      12.552  10.749  23.530  0.00  0.00    -0.300 N 
ATOM     18  C   UNL     1      11.950  10.754  22.284  0.00  0.00    +0.241 C 
ATOM     35  H   UNL     1      13.146   9.977  23.812  0.00  0.00    +0.150 HD
BRANCH   9  19
ATOM     19  C   UNL     1      12.494  11.872  24.439  0.00  0.00    +0.159 C 
BRANCH  19  23
ATOM      5  O   UNL     1      13.719  12.197  26.507  0.00  0.00    -0.274 OA
ATOM     11  N   UNL     1      14.727  11.015  24.816  0.00  0.00    -0.328 N 
ATOM     23  C   UNL     1      13.682  11.716  25.376  0.00  0.00    +0.231 C 
ATOM     37  H   UNL     1      14.688  10.639  23.873  0.00  0.00    +0.145 HD
ATOM     38  H   UNL     1      15.584  10.851  25.335  0.00  0.00    +0.145 HD
ENDBRANCH  19  23
BRANCH  19  21
ATOM     21  C   UNL     1      11.170  11.883  25.208  0.00  0.00    +0.043 C 
BRANCH  21  22
ATOM     22  C   UNL     1      10.391  13.188  25.033  0.00  0.00    +0.123 C 
BRANCH  22  25
ATOM      7  O   UNL     1      11.439  15.385  24.981  0.00  0.00    -0.251 OA
ATOM     25  C   UNL     1      11.139  14.373  25.599  0.00  0.00    +0.305 C 
BRANCH  25   6
ATOM      6  O   UNL     1      11.442  14.187  26.911  0.00  0.00    -0.481 OA
ATOM     39  H   UNL     1      11.538  13.236  27.133  0.00  0.00    +0.295 HD
ENDBRANCH  25   6
ENDBRANCH  22  25
ENDBRANCH  21  22
ENDBRANCH  19  21
ENDBRANCH   9  19
ENDBRANCH  16  18
BRANCH  12   1
ATOM      1  O   UNL     1      12.380   6.213  21.709  0.00  0.00    -0.387 OA
ATOM     33  H   UNL     1      13.211   6.298  22.206  0.00  0.00    +0.210 HD
ENDBRANCH  12   1
BRANCH  13   2
ATOM      2  O   UNL     1      11.336   8.136  18.776  0.00  0.00    -0.389 OA
ATOM     34  H   UNL     1      12.117   8.714  18.735  0.00  0.00    +0.210 HD
ENDBRANCH  13   2
TORSDOF 11
ENDMDL
MODEL 2
REMARK VINA RESULT:      -6.8     29.915     32.005
REMARK  Name = 11882546
REMARK  12 active torsions:
REMARK  status: ('A' for Active; 'I' for Inactive)
REMARK    1  A    between atoms: O_1  and  C_12
REMARK    2  A    between atoms: O_2  and  C_13
REMARK    3  A    between atoms: O_6  and  C_25
REMARK    4  A    between atoms: N_8  and  C_14
REMARK    5  A    between atoms: N_9  and  C_19
REMARK    6  A    between atoms: N_10  and  C_24
REMARK    7  A    between atoms: C_16  and  C_18
REMARK    8  A    between atoms: C_19  and  C_21
REMARK    9  A    between atoms: C_19  and  C_23
REMARK   10  A    between atoms: C_21  and  C_22
REMARK   11  A    between atoms: C_22  and  C_25
REMARK   12  A    between atoms: C_30  and  C_31
REMARK                            x       y       z     vdW  Elec       q    Type
REMARK                         _______ _______ _______ _____ _____    ______ ____
ROOT
ATOM     12  C   UNL     1     -14.098   1.412  31.536  0.00  0.00    +0.167 C 
ATOM     13  C   UNL     1     -14.093   0.079  30.778  0.00  0.00    +0.149 C 
ATOM     14  C   UNL     1     -14.375   2.598  30.592  0.00  0.00    +0.129 C 
ATOM     15  C   UNL     1     -15.402  -0.151  30.003  0.00  0.00    +0.074 C 
ATOM     16  C   UNL     1     -15.946   1.098  29.369  0.00  0.00    +0.015 C 
ATOM     17  C   UNL     1     -15.490   2.335  29.617  0.00  0.00    +0.006 C 
ENDROOT
BRANCH  14   8
ATOM      4  O   UNL     1     -12.536   4.162  32.134  0.00  0.00    -0.252 OA
ATOM      8  N   UNL     1     -14.672   3.804  31.327  0.00  0.00    -0.290 N 
ATOM     10  N   UNL     1     -14.289   5.633  32.661  0.00  0.00    -0.269 N 
ATOM     20  C   UNL     1     -13.712   4.511  32.058  0.00  0.00    +0.304 C 
ATOM     32  H   UNL     1     -15.634   4.128  31.360  0.00  0.00    +0.151 HD
ATOM     36  H   UNL     1     -15.281   5.779  32.496  0.00  0.00    +0.156 HD
BRANCH  10  24
ATOM     24  C   UNL     1     -13.658   6.599  33.479  0.00  0.00    +0.035 A 
ATOM     26  C   UNL     1     -13.640   6.416  34.852  0.00  0.00    +0.023 A 
ATOM     27  C   UNL     1     -13.070   7.708  32.892  0.00  0.00    +0.023 A 
ATOM     28  C   UNL     1     -13.018   7.368  35.660  0.00  0.00    +0.005 A 
ATOM     29  C   UNL     1     -12.448   8.659  33.700  0.00  0.00    +0.005 A 
ATOM     30  C   UNL     1     -12.421   8.490  35.084  0.00  0.00    -0.050 A 
ATOM     31  C   UNL     1     -11.756   9.507  35.947  0.00  0.00    +0.044 C 
ENDBRANCH  10  24
ENDBRANCH  14   8
BRANCH  16  18
ATOM      3  O   UNL     1     -17.921   0.121  28.551  0.00  0.00    -0.271 OA
ATOM      9  N   UNL     1     -16.930   1.850  27.341  0.00  0.00    -0.300 N 
ATOM     18  C   UNL     1     -17.035   0.960  28.396  0.00  0.00    +0.241 C 
ATOM     35  H   UNL     1     -16.111   2.440  27.245  0.00  0.00    +0.150 HD
BRANCH   9  19
ATOM     19  C   UNL     1     -17.884   1.904  26.256  0.00  0.00    +0.159 C 
BRANCH  19  23
ATOM      5  O   UNL     1     -16.720   0.325  24.830  0.00  0.00    -0.274 OA
ATOM     11  N   UNL     1     -18.824  -0.220  25.572  0.00  0.00    -0.328 N 
ATOM     23  C   UNL     1     -17.721   0.602  25.488  0.00  0.00    +0.231 C 
ATOM     37  H   UNL     1     -19.651   0.031  26.105  0.00  0.00    +0.145 HD
ATOM     38  H   UNL     1     -18.845  -1.115  25.095  0.00  0.00    +0.145 HD
ENDBRANCH  19  23
BRANCH  19  21
ATOM     21  C   UNL     1     -17.626   3.120  25.362  0.00  0.00    +0.043 C 
BRANCH  21  22
ATOM     22  C   UNL     1     -16.206   3.671  25.500  0.00  0.00    +0.123 C 
BRANCH  22  25
ATOM      7  O   UNL     1     -14.836   4.819  23.846  0.00  0.00    -0.251 OA
ATOM     25  C   UNL     1     -15.545   3.870  24.156  0.00  0.00    +0.305 C 
BRANCH  25   6
ATOM      6  O   UNL     1     -15.827   2.847  23.308  0.00  0.00    -0.481 OA
ATOM     39  H   UNL     1     -15.280   2.885  22.494  0.00  0.00    +0.295 HD
ENDBRANCH  25   6
ENDBRANCH  22  25
ENDBRANCH  21  22
ENDBRANCH  19  21
ENDBRANCH   9  19
ENDBRANCH  16  18
BRANCH  12   1
ATOM      1  O   UNL     1     -15.105   1.360  32.550  0.00  0.00    -0.387 OA
ATOM     33  H   UNL     1     -15.852   0.850  32.193  0.00  0.00    +0.210 HD
ENDBRANCH  12   1
BRANCH  13   2
ATOM      2  O   UNL     1     -12.980   0.026  29.887  0.00  0.00    -0.389 OA
ATOM     34  H   UNL     1     -13.291  -0.370  29.055  0.00  0.00    +0.210 HD
ENDBRANCH  13   2
TORSDOF 11
ENDMDL
MODEL 3
REMARK VINA RESULT:      -6.5     29.024     31.455
REMARK  Name = 11882546
REMARK  12 active torsions:
REMARK  status: ('A' for Active; 'I' for Inactive)
REMARK    1  A    between atoms: O_1  and  C_12
REMARK    2  A    between atoms: O_2  and  C_13
REMARK    3  A    between atoms: O_6  and  C_25
REMARK    4  A    between atoms: N_8  and  C_14
REMARK    5  A    between atoms: N_9  and  C_19
REMARK    6  A    between atoms: N_10  and  C_24
REMARK    7  A    between atoms: C_16  and  C_18
REMARK    8  A    between atoms: C_19  and  C_21
REMARK    9  A    between atoms: C_19  and  C_23
REMARK   10  A    between atoms: C_21  and  C_22
REMARK   11  A    between atoms: C_22  and  C_25
REMARK   12  A    between atoms: C_30  and  C_31
REMARK                            x       y       z     vdW  Elec       q    Type
REMARK                         _______ _______ _______ _____ _____    ______ ____
ROOT
ATOM     12  C   UNL     1     -11.482  -6.909  16.361  0.00  0.00    +0.167 C 
ATOM     13  C   UNL     1     -12.925  -6.561  15.978  0.00  0.00    +0.149 C 
ATOM     14  C   UNL     1     -10.943  -8.084  15.523  0.00  0.00    +0.129 C 
ATOM     15  C   UNL     1     -13.068  -6.255  14.477  0.00  0.00    +0.074 C 
ATOM     16  C   UNL     1     -12.230  -7.145  13.605  0.00  0.00    +0.015 C 
ATOM     17  C   UNL     1     -11.280  -7.976  14.061  0.00  0.00    +0.006 C 
ENDROOT
BRANCH  14   8
ATOM      4  O   UNL     1      -9.562  -9.909  17.247  0.00  0.00    -0.252 OA
ATOM      8  N   UNL     1      -9.513  -8.225  15.663  0.00  0.00    -0.290 N 
ATOM     10  N   UNL     1      -7.524  -9.056  16.454  0.00  0.00    -0.269 N 
ATOM     20  C   UNL     1      -8.917  -9.146  16.532  0.00  0.00    +0.304 C 
ATOM     32  H   UNL     1      -8.910  -7.592  15.147  0.00  0.00    +0.151 HD
ATOM     36  H   UNL     1      -7.148  -8.368  15.807  0.00  0.00    +0.156 HD
BRANCH  10  24
ATOM     24  C   UNL     1      -6.565  -9.810  17.168  0.00  0.00    +0.035 A 
ATOM     26  C   UNL     1      -6.826 -10.170  18.480  0.00  0.00    +0.023 A 
ATOM     27  C   UNL     1      -5.383 -10.175  16.542  0.00  0.00    +0.023 A 
ATOM     28  C   UNL     1      -5.880 -10.915  19.186  0.00  0.00    +0.005 A 
ATOM     29  C   UNL     1      -4.438 -10.920  17.248  0.00  0.00    +0.005 A 
ATOM     30  C   UNL     1      -4.687 -11.290  18.569  0.00  0.00    -0.050 A 
ATOM     31  C   UNL     1      -3.676 -12.086  19.322  0.00  0.00    +0.044 C 
ENDBRANCH  10  24
ENDBRANCH  14   8
BRANCH  16  18
ATOM      3  O   UNL     1     -12.661  -8.170  11.535  0.00  0.00    -0.271 OA
ATOM      9  N   UNL     1     -12.465  -5.848  11.628  0.00  0.00    -0.300 N 
ATOM     18  C   UNL     1     -12.475  -7.126  12.159  0.00  0.00    +0.241 C 
ATOM     35  H   UNL     1     -12.206  -5.054  12.203  0.00  0.00    +0.150 HD
BRANCH   9  19
ATOM     19  C   UNL     1     -12.681  -5.575  10.225  0.00  0.00    +0.159 C 
BRANCH  19  23
ATOM      5  O   UNL     1     -10.482  -5.933   9.267  0.00  0.00    -0.274 OA
ATOM     11  N   UNL     1     -11.149  -3.777   9.694  0.00  0.00    -0.328 N 
ATOM     23  C   UNL     1     -11.333  -5.142   9.668  0.00  0.00    +0.231 C 
ATOM     37  H   UNL     1     -11.856  -3.138  10.045  0.00  0.00    +0.145 HD
ATOM     38  H   UNL     1     -10.286  -3.361   9.359  0.00  0.00    +0.145 HD
ENDBRANCH  19  23
BRANCH  19  21
ATOM     21  C   UNL     1     -13.742  -4.488  10.037  0.00  0.00    +0.043 C 
BRANCH  21  22
ATOM     22  C   UNL     1     -14.614  -4.285  11.277  0.00  0.00    +0.123 C 
BRANCH  22  25
ATOM      7  O   UNL     1     -12.791  -3.063  12.333  0.00  0.00    -0.251 OA
ATOM     25  C   UNL     1     -13.985  -3.322  12.258  0.00  0.00    +0.305 C 
BRANCH  25   6
ATOM      6  O   UNL     1     -14.919  -2.755  13.065  0.00  0.00    -0.481 OA
ATOM     39  H   UNL     1     -14.591  -2.645  13.983  0.00  0.00    +0.295 HD
ENDBRANCH  25   6
ENDBRANCH  22  25
ENDBRANCH  21  22
ENDBRANCH  19  21
ENDBRANCH   9  19
ENDBRANCH  16  18
BRANCH  12   1
ATOM      1  O   UNL     1     -10.661  -5.756  16.155  0.00  0.00    -0.387 OA
ATOM     33  H   UNL     1     -10.917  -5.093  16.818  0.00  0.00    +0.210 HD
ENDBRANCH  12   1
BRANCH  13   2
ATOM      2  O   UNL     1     -13.801  -7.625  16.346  0.00  0.00    -0.389 OA
ATOM     34  H   UNL     1     -14.691  -7.393  16.030  0.00  0.00    +0.210 HD
ENDBRANCH  13   2
TORSDOF 11
ENDMDL
MODEL 4
REMARK VINA RESULT:      -6.4     16.030     18.460
REMARK  Name = 11882546
REMARK  12 active torsions:
REMARK  status: ('A' for Active; 'I' for Inactive)
REMARK    1  A    between atoms: O_1  and  C_12
REMARK    2  A    between atoms: O_2  and  C_13
REMARK    3  A    between atoms: O_6  and  C_25
REMARK    4  A    between atoms: N_8  and  C_14
REMARK    5  A    between atoms: N_9  and  C_19
REMARK    6  A    between atoms: N_10  and  C_24
REMARK    7  A    between atoms: C_16  and  C_18
REMARK    8  A    between atoms: C_19  and  C_21
REMARK    9  A    between atoms: C_19  and  C_23
REMARK   10  A    between atoms: C_21  and  C_22
REMARK   11  A    between atoms: C_22  and  C_25
REMARK   12  A    between atoms: C_30  and  C_31
REMARK                            x       y       z     vdW  Elec       q    Type
REMARK                         _______ _______ _______ _____ _____    ______ ____
ROOT
ATOM     12  C   UNL     1      12.899   4.920   1.484  0.00  0.00    +0.167 C 
ATOM     13  C   UNL     1      11.426   4.667   1.144  0.00  0.00    +0.149 C 
ATOM     14  C   UNL     1      13.062   6.120   2.435  0.00  0.00    +0.129 C 
ATOM     15  C   UNL     1      10.567   4.468   2.405  0.00  0.00    +0.074 C 
ATOM     16  C   UNL     1      10.955   5.373   3.539  0.00  0.00    +0.015 C 
ATOM     17  C   UNL     1      12.066   6.125   3.563  0.00  0.00    +0.006 C 
ENDROOT
BRANCH  14   8
ATOM      4  O   UNL     1      14.471   8.480   3.242  0.00  0.00    -0.252 OA
ATOM      8  N   UNL     1      14.393   6.183   2.990  0.00  0.00    -0.290 N 
ATOM     10  N   UNL     1      16.292   7.135   3.863  0.00  0.00    -0.269 N 
ATOM     20  C   UNL     1      15.012   7.383   3.360  0.00  0.00    +0.304 C 
ATOM     32  H   UNL     1      14.929   5.324   3.067  0.00  0.00    +0.151 HD
ATOM     36  H   UNL     1      16.589   6.163   3.893  0.00  0.00    +0.156 HD
BRANCH  10  24
ATOM     24  C   UNL     1      17.234   8.076   4.341  0.00  0.00    +0.035 A 
ATOM     26  C   UNL     1      18.329   8.396   3.557  0.00  0.00    +0.023 A 
ATOM     27  C   UNL     1      17.041   8.658   5.584  0.00  0.00    +0.023 A 
ATOM     28  C   UNL     1      19.259   9.324   4.028  0.00  0.00    +0.005 A 
ATOM     29  C   UNL     1      17.970   9.586   6.054  0.00  0.00    +0.005 A 
ATOM     30  C   UNL     1      19.079   9.920   5.276  0.00  0.00    -0.050 A 
ATOM     31  C   UNL     1      20.071  10.912   5.780  0.00  0.00    +0.044 C 
ENDBRANCH  10  24
ENDBRANCH  14   8
BRANCH  16  18
ATOM      3  O   UNL     1       9.349   4.507   5.020  0.00  0.00    -0.271 OA
ATOM      9  N   UNL     1      10.101   6.694   5.320  0.00  0.00    -0.300 N 
ATOM     18  C   UNL     1      10.054   5.461   4.693  0.00  0.00    +0.241 C 
ATOM     35  H   UNL     1      10.639   7.454   4.921  0.00  0.00    +0.150 HD
BRANCH   9  19
ATOM     19  C   UNL     1       9.300   7.020   6.479  0.00  0.00    +0.159 C 
BRANCH  19  23
ATOM      5  O   UNL     1       8.817   9.386   6.712  0.00  0.00    -0.274 OA
ATOM     11  N   UNL     1       7.628   8.177   5.163  0.00  0.00    -0.328 N 
ATOM     23  C   UNL     1       8.586   8.321   6.143  0.00  0.00    +0.231 C 
ATOM     37  H   UNL     1       7.437   7.286   4.715  0.00  0.00    +0.145 HD
ATOM     38  H   UNL     1       7.074   8.969   4.855  0.00  0.00    +0.145 HD
ENDBRANCH  19  23
BRANCH  19  21
ATOM     21  C   UNL     1      10.177   7.167   7.725  0.00  0.00    +0.043 C 
BRANCH  21  22
ATOM     22  C   UNL     1      10.897   5.871   8.103  0.00  0.00    +0.123 C 
BRANCH  22  25
ATOM      7  O   UNL     1       9.128   4.871   9.445  0.00  0.00    -0.251 OA
ATOM     25  C   UNL     1       9.928   4.789   8.523  0.00  0.00    +0.305 C 
BRANCH  25   6
ATOM      6  O   UNL     1      10.042   3.688   7.735  0.00  0.00    -0.481 OA
ATOM     39  H   UNL     1       9.828   3.885   6.798  0.00  0.00    +0.295 HD
ENDBRANCH  25   6
ENDBRANCH  22  25
ENDBRANCH  21  22
ENDBRANCH  19  21
ENDBRANCH   9  19
ENDBRANCH  16  18
BRANCH  12   1
ATOM      1  O   UNL     1      13.438   3.745   2.097  0.00  0.00    -0.387 OA
ATOM     33  H   UNL     1      12.936   2.984   1.759  0.00  0.00    +0.210 HD
ENDBRANCH  12   1
BRANCH  13   2
ATOM      2  O   UNL     1      10.910   5.745   0.366  0.00  0.00    -0.389 OA
ATOM     34  H   UNL     1      11.255   5.645  -0.537  0.00  0.00    +0.210 HD
ENDBRANCH  13   2
TORSDOF 11
ENDMDL
MODEL 5
REMARK VINA RESULT:      -6.3      1.357      2.291
REMARK  Name = 11882546
REMARK  12 active torsions:
REMARK  status: ('A' for Active; 'I' for Inactive)
REMARK    1  A    between atoms: O_1  and  C_12
REMARK    2  A    between atoms: O_2  and  C_13
REMARK    3  A    between atoms: O_6  and  C_25
REMARK    4  A    between atoms: N_8  and  C_14
REMARK    5  A    between atoms: N_9  and  C_19
REMARK    6  A    between atoms: N_10  and  C_24
REMARK    7  A    between atoms: C_16  and  C_18
REMARK    8  A    between atoms: C_19  and  C_21
REMARK    9  A    between atoms: C_19  and  C_23
REMARK   10  A    between atoms: C_21  and  C_22
REMARK   11  A    between atoms: C_22  and  C_25
REMARK   12  A    between atoms: C_30  and  C_31
REMARK                            x       y       z     vdW  Elec       q    Type
REMARK                         _______ _______ _______ _____ _____    ______ ____
ROOT
ATOM     12  C   UNL     1      12.223   6.931  20.689  0.00  0.00    +0.167 C 
ATOM     13  C   UNL     1      10.878   7.653  20.546  0.00  0.00    +0.149 C 
ATOM     14  C   UNL     1      13.374   7.925  20.935  0.00  0.00    +0.129 C 
ATOM     15  C   UNL     1      10.566   8.540  21.764  0.00  0.00    +0.074 C 
ATOM     16  C   UNL     1      11.771   9.251  22.308  0.00  0.00    +0.015 C 
ATOM     17  C   UNL     1      13.035   8.992  21.940  0.00  0.00    +0.006 C 
ENDROOT
BRANCH  14   8
ATOM      4  O   UNL     1      16.053   8.521  20.114  0.00  0.00    -0.252 OA
ATOM      8  N   UNL     1      14.578   7.250  21.360  0.00  0.00    -0.290 N 
ATOM     10  N   UNL     1      16.822   6.780  21.489  0.00  0.00    -0.269 N 
ATOM     20  C   UNL     1      15.854   7.606  20.909  0.00  0.00    +0.304 C 
ATOM     32  H   UNL     1      14.493   6.446  21.974  0.00  0.00    +0.151 HD
ATOM     36  H   UNL     1      16.487   6.067  22.131  0.00  0.00    +0.156 HD
BRANCH  10  24
ATOM     24  C   UNL     1      18.222   6.815  21.293  0.00  0.00    +0.035 A 
ATOM     26  C   UNL     1      18.824   5.830  20.527  0.00  0.00    +0.023 A 
ATOM     27  C   UNL     1      18.963   7.834  21.870  0.00  0.00    +0.023 A 
ATOM     28  C   UNL     1      20.205   5.863  20.334  0.00  0.00    +0.005 A 
ATOM     29  C   UNL     1      20.344   7.867  21.675  0.00  0.00    +0.005 A 
ATOM     30  C   UNL     1      20.965   6.883  20.907  0.00  0.00    -0.050 A 
ATOM     31  C   UNL     1      22.441   6.920  20.700  0.00  0.00    +0.044 C 
ENDBRANCH  10  24
ENDBRANCH  14   8
BRANCH  16  18
ATOM      3  O   UNL     1      10.877  10.124  24.299  0.00  0.00    -0.271 OA
ATOM      9  N   UNL     1      12.191  11.500  22.952  0.00  0.00    -0.300 N 
ATOM     18  C   UNL     1      11.559  10.317  23.293  0.00  0.00    +0.241 C 
ATOM     35  H   UNL     1      12.651  11.597  22.053  0.00  0.00    +0.150 HD
BRANCH   9  19
ATOM     19  C   UNL     1      12.126  12.693  23.765  0.00  0.00    +0.159 C 
BRANCH  19  23
ATOM      5  O   UNL     1      10.984  14.386  22.456  0.00  0.00    -0.274 OA
ATOM     11  N   UNL     1       9.737  13.072  23.867  0.00  0.00    -0.328 N 
ATOM     23  C   UNL     1      10.915  13.471  23.275  0.00  0.00    +0.231 C 
ATOM     37  H   UNL     1       9.698  12.327  24.555  0.00  0.00    +0.145 HD
ATOM     38  H   UNL     1       8.857  13.520  23.633  0.00  0.00    +0.145 HD
ENDBRANCH  19  23
BRANCH  19  21
ATOM     21  C   UNL     1      13.411  13.515  23.635  0.00  0.00    +0.043 C 
BRANCH  21  22
ATOM     22  C   UNL     1      14.083  13.789  24.981  0.00  0.00    +0.123 C 
BRANCH  22  25
ATOM      7  O   UNL     1      14.783  11.513  25.494  0.00  0.00    -0.251 OA
ATOM     25  C   UNL     1      14.197  12.536  25.820  0.00  0.00    +0.305 C 
BRANCH  25   6
ATOM      6  O   UNL     1      13.565  12.680  27.014  0.00  0.00    -0.481 OA
ATOM     39  H   UNL     1      14.071  13.253  27.630  0.00  0.00    +0.295 HD
ENDBRANCH  25   6
ENDBRANCH  22  25
ENDBRANCH  21  22
ENDBRANCH  19  21
ENDBRANCH   9  19
ENDBRANCH  16  18
BRANCH  12   1
ATOM      1  O   UNL     1      12.139   6.014  21.783  0.00  0.00    -0.387 OA
ATOM     33  H   UNL     1      12.854   6.233  22.403  0.00  0.00    +0.210 HD
ENDBRANCH  12   1
BRANCH  13   2
ATOM      2  O   UNL     1      10.865   8.436  19.354  0.00  0.00    -0.389 OA
ATOM     34  H   UNL     1       9.975   8.815  19.263  0.00  0.00    +0.210 HD
ENDBRANCH  13   2
TORSDOF 11
ENDMDL
MODEL 6
REMARK VINA RESULT:      -6.3     16.342     19.343
REMARK  Name = 11882546
REMARK  12 active torsions:
REMARK  status: ('A' for Active; 'I' for Inactive)
REMARK    1  A    between atoms: O_1  and  C_12
REMARK    2  A    between atoms: O_2  and  C_13
REMARK    3  A    between atoms: O_6  and  C_25
REMARK    4  A    between atoms: N_8  and  C_14
REMARK    5  A    between atoms: N_9  and  C_19
REMARK    6  A    between atoms: N_10  and  C_24
REMARK    7  A    between atoms: C_16  and  C_18
REMARK    8  A    between atoms: C_19  and  C_21
REMARK    9  A    between atoms: C_19  and  C_23
REMARK   10  A    between atoms: C_21  and  C_22
REMARK   11  A    between atoms: C_22  and  C_25
REMARK   12  A    between atoms: C_30  and  C_31
REMARK                            x       y       z     vdW  Elec       q    Type
REMARK                         _______ _______ _______ _____ _____    ______ ____
ROOT
ATOM     12  C   UNL     1      15.204   9.193   4.813  0.00  0.00    +0.167 C 
ATOM     13  C   UNL     1      14.625  10.244   5.767  0.00  0.00    +0.149 C 
ATOM     14  C   UNL     1      15.043   7.768   5.377  0.00  0.00    +0.129 C 
ATOM     15  C   UNL     1      13.149   9.969   6.106  0.00  0.00    +0.074 C 
ATOM     16  C   UNL     1      12.842   8.510   6.284  0.00  0.00    +0.015 C 
ATOM     17  C   UNL     1      13.683   7.513   5.970  0.00  0.00    +0.006 C 
ENDROOT
BRANCH  14   8
ATOM      4  O   UNL     1      13.254   6.883   3.322  0.00  0.00    -0.252 OA
ATOM      8  N   UNL     1      15.309   6.765   4.374  0.00  0.00    -0.290 N 
ATOM     10  N   UNL     1      14.912   5.400   2.571  0.00  0.00    -0.269 N 
ATOM     20  C   UNL     1      14.376   6.389   3.402  0.00  0.00    +0.304 C 
ATOM     32  H   UNL     1      16.195   6.269   4.407  0.00  0.00    +0.151 HD
ATOM     36  H   UNL     1      15.862   5.101   2.774  0.00  0.00    +0.156 HD
BRANCH  10  24
ATOM     24  C   UNL     1      14.291   4.759   1.474  0.00  0.00    +0.035 A 
ATOM     26  C   UNL     1      13.405   3.721   1.708  0.00  0.00    +0.023 A 
ATOM     27  C   UNL     1      14.582   5.183   0.187  0.00  0.00    +0.023 A 
ATOM     28  C   UNL     1      12.793   3.088   0.626  0.00  0.00    +0.005 A 
ATOM     29  C   UNL     1      13.968   4.551  -0.895  0.00  0.00    +0.005 A 
ATOM     30  C   UNL     1      13.074   3.503  -0.675  0.00  0.00    -0.050 A 
ATOM     31  C   UNL     1      12.419   2.828  -1.832  0.00  0.00    +0.044 C 
ENDBRANCH  10  24
ENDBRANCH  14   8
BRANCH  16  18
ATOM      3  O   UNL     1      10.955   8.900   7.631  0.00  0.00    -0.271 OA
ATOM      9  N   UNL     1      11.102   6.899   6.443  0.00  0.00    -0.300 N 
ATOM     18  C   UNL     1      11.544   8.143   6.860  0.00  0.00    +0.241 C 
ATOM     35  H   UNL     1      11.700   6.302   5.883  0.00  0.00    +0.150 HD
BRANCH   9  19
ATOM     19  C   UNL     1       9.850   6.319   6.877  0.00  0.00    +0.159 C 
BRANCH  19  23
ATOM      5  O   UNL     1      10.553   5.421   9.018  0.00  0.00    -0.274 OA
ATOM     11  N   UNL     1      10.168   3.955   7.293  0.00  0.00    -0.328 N 
ATOM     23  C   UNL     1      10.216   5.212   7.854  0.00  0.00    +0.231 C 
ATOM     37  H   UNL     1       9.904   3.800   6.324  0.00  0.00    +0.145 HD
ATOM     38  H   UNL     1      10.400   3.131   7.838  0.00  0.00    +0.145 HD
ENDBRANCH  19  23
BRANCH  19  21
ATOM     21  C   UNL     1       9.057   5.777   5.685  0.00  0.00    +0.043 C 
BRANCH  21  22
ATOM     22  C   UNL     1       9.554   6.318   4.343  0.00  0.00    +0.123 C 
BRANCH  22  25
ATOM      7  O   UNL     1      10.167   4.986   2.399  0.00  0.00    -0.251 OA
ATOM     25  C   UNL     1      10.340   5.281   3.574  0.00  0.00    +0.305 C 
BRANCH  25   6
ATOM      6  O   UNL     1      11.293   4.703   4.352  0.00  0.00    -0.481 OA
ATOM     39  H   UNL     1      11.218   3.725   4.355  0.00  0.00    +0.295 HD
ENDBRANCH  25   6
ENDBRANCH  22  25
ENDBRANCH  21  22
ENDBRANCH  19  21
ENDBRANCH   9  19
ENDBRANCH  16  18
BRANCH  12   1
ATOM      1  O   UNL     1      14.528   9.291   3.557  0.00  0.00    -0.387 OA
ATOM     33  H   UNL     1      14.941   8.651   2.953  0.00  0.00    +0.210 HD
ENDBRANCH  12   1
BRANCH  13   2
ATOM      2  O   UNL     1      15.399  10.301   6.963  0.00  0.00    -0.389 OA
ATOM     34  H   UNL     1      16.126   9.663   6.872  0.00  0.00    +0.210 HD
ENDBRANCH  13   2
TORSDOF 11
ENDMDL
MODEL 7
REMARK VINA RESULT:      -6.3     28.401     30.834
REMARK  Name = 11882546
REMARK  12 active torsions:
REMARK  status: ('A' for Active; 'I' for Inactive)
REMARK    1  A    between atoms: O_1  and  C_12
REMARK    2  A    between atoms: O_2  and  C_13
REMARK    3  A    between atoms: O_6  and  C_25
REMARK    4  A    between atoms: N_8  and  C_14
REMARK    5  A    between atoms: N_9  and  C_19
REMARK    6  A    between atoms: N_10  and  C_24
REMARK    7  A    between atoms: C_16  and  C_18
REMARK    8  A    between atoms: C_19  and  C_21
REMARK    9  A    between atoms: C_19  and  C_23
REMARK   10  A    between atoms: C_21  and  C_22
REMARK   11  A    between atoms: C_22  and  C_25
REMARK   12  A    between atoms: C_30  and  C_31
REMARK                            x       y       z     vdW  Elec       q    Type
REMARK                         _______ _______ _______ _____ _____    ______ ____
ROOT
ATOM     12  C   UNL     1      -6.074 -12.180  18.694  0.00  0.00    +0.167 C 
ATOM     13  C   UNL     1      -4.865 -12.982  18.200  0.00  0.00    +0.149 C 
ATOM     14  C   UNL     1      -5.861 -10.665  18.507  0.00  0.00    +0.129 C 
ATOM     15  C   UNL     1      -4.522 -12.669  16.733  0.00  0.00    +0.074 C 
ATOM     16  C   UNL     1      -4.684 -11.219  16.380  0.00  0.00    +0.015 C 
ATOM     17  C   UNL     1      -5.274 -10.307  17.169  0.00  0.00    +0.006 C 
ENDROOT
BRANCH  14   8
ATOM      4  O   UNL     1      -7.798 -10.040  16.491  0.00  0.00    -0.252 OA
ATOM      8  N   UNL     1      -7.089  -9.929  18.689  0.00  0.00    -0.290 N 
ATOM     10  N   UNL     1      -9.080  -8.935  18.119  0.00  0.00    -0.269 N 
ATOM     20  C   UNL     1      -7.985  -9.665  17.646  0.00  0.00    +0.304 C 
ATOM     32  H   UNL     1      -7.290  -9.536  19.604  0.00  0.00    +0.151 HD
ATOM     36  H   UNL     1      -9.081  -8.705  19.109  0.00  0.00    +0.156 HD
BRANCH  10  24
ATOM     24  C   UNL     1     -10.197  -8.475  17.385  0.00  0.00    +0.035 A 
ATOM     26  C   UNL     1     -11.400  -9.154  17.484  0.00  0.00    +0.023 A 
ATOM     27  C   UNL     1     -10.067  -7.353  16.581  0.00  0.00    +0.023 A 
ATOM     28  C   UNL     1     -12.503  -8.701  16.760  0.00  0.00    +0.005 A 
ATOM     29  C   UNL     1     -11.170  -6.900  15.858  0.00  0.00    +0.005 A 
ATOM     30  C   UNL     1     -12.388  -7.573  15.947  0.00  0.00    -0.050 A 
ATOM     31  C   UNL     1     -13.567  -7.087  15.174  0.00  0.00    +0.044 C 
ENDBRANCH  10  24
ENDBRANCH  14   8
BRANCH  16  18
ATOM      3  O   UNL     1      -2.941 -10.534  14.960  0.00  0.00    -0.271 OA
ATOM      9  N   UNL     1      -5.117 -10.605  14.126  0.00  0.00    -0.300 N 
ATOM     18  C   UNL     1      -4.143 -10.755  15.098  0.00  0.00    +0.241 C 
ATOM     35  H   UNL     1      -6.098 -10.716  14.358  0.00  0.00    +0.150 HD
BRANCH   9  19
ATOM     19  C   UNL     1      -4.828 -10.158  12.782  0.00  0.00    +0.159 C 
BRANCH  19  23
ATOM      5  O   UNL     1      -6.114  -8.791  11.245  0.00  0.00    -0.274 OA
ATOM     11  N   UNL     1      -6.985  -9.203  13.330  0.00  0.00    -0.328 N 
ATOM     23  C   UNL     1      -6.026  -9.326  12.349  0.00  0.00    +0.231 C 
ATOM     37  H   UNL     1      -6.888  -9.637  14.243  0.00  0.00    +0.145 HD
ATOM     38  H   UNL     1      -7.829  -8.664  13.170  0.00  0.00    +0.145 HD
ENDBRANCH  19  23
BRANCH  19  21
ATOM     21  C   UNL     1      -4.603 -11.348  11.846  0.00  0.00    +0.043 C 
BRANCH  21  22
ATOM     22  C   UNL     1      -3.379 -11.176  10.945  0.00  0.00    +0.123 C 
BRANCH  22  25
ATOM      7  O   UNL     1      -1.509  -9.840  11.753  0.00  0.00    -0.251 OA
ATOM     25  C   UNL     1      -2.126 -10.897  11.744  0.00  0.00    +0.305 C 
BRANCH  25   6
ATOM      6  O   UNL     1      -1.755 -11.978  12.478  0.00  0.00    -0.481 OA
ATOM     39  H   UNL     1      -1.324 -12.665  11.926  0.00  0.00    +0.295 HD
ENDBRANCH  25   6
ENDBRANCH  22  25
ENDBRANCH  21  22
ENDBRANCH  19  21
ENDBRANCH   9  19
ENDBRANCH  16  18
BRANCH  12   1
ATOM      1  O   UNL     1      -7.231 -12.595  17.964  0.00  0.00    -0.387 OA
ATOM     33  H   UNL     1      -7.953 -12.712  18.603  0.00  0.00    +0.210 HD
ENDBRANCH  12   1
BRANCH  13   2
ATOM      2  O   UNL     1      -3.734 -12.728  19.031  0.00  0.00    -0.389 OA
ATOM     34  H   UNL     1      -3.974 -12.009  19.640  0.00  0.00    +0.210 HD
ENDBRANCH  13   2
TORSDOF 11
ENDMDL
MODEL 8
REMARK VINA RESULT:      -6.3     27.372     31.745
REMARK  Name = 11882546
REMARK  12 active torsions:
REMARK  status: ('A' for Active; 'I' for Inactive)
REMARK    1  A    between atoms: O_1  and  C_12
REMARK    2  A    between atoms: O_2  and  C_13
REMARK    3  A    between atoms: O_6  and  C_25
REMARK    4  A    between atoms: N_8  and  C_14
REMARK    5  A    between atoms: N_9  and  C_19
REMARK    6  A    between atoms: N_10  and  C_24
REMARK    7  A    between atoms: C_16  and  C_18
REMARK    8  A    between atoms: C_19  and  C_21
REMARK    9  A    between atoms: C_19  and  C_23
REMARK   10  A    between atoms: C_21  and  C_22
REMARK   11  A    between atoms: C_22  and  C_25
REMARK   12  A    between atoms: C_30  and  C_31
REMARK                            x       y       z     vdW  Elec       q    Type
REMARK                         _______ _______ _______ _____ _____    ______ ____
ROOT
ATOM     12  C   UNL     1     -11.354 -10.165  18.139  0.00  0.00    +0.167 C 
ATOM     13  C   UNL     1     -10.661 -10.895  19.295  0.00  0.00    +0.149 C 
ATOM     14  C   UNL     1     -10.362  -9.297  17.342  0.00  0.00    +0.129 C 
ATOM     15  C   UNL     1      -9.474 -11.748  18.812  0.00  0.00    +0.074 C 
ATOM     16  C   UNL     1      -8.677 -11.095  17.720  0.00  0.00    +0.015 C 
ATOM     17  C   UNL     1      -9.058  -9.992  17.058  0.00  0.00    +0.006 C 
ENDROOT
BRANCH  14   8
ATOM      4  O   UNL     1     -11.742  -6.829  16.880  0.00  0.00    -0.252 OA
ATOM      8  N   UNL     1     -10.931  -8.847  16.094  0.00  0.00    -0.290 N 
ATOM     10  N   UNL     1     -12.035  -7.457  14.637  0.00  0.00    -0.269 N 
ATOM     20  C   UNL     1     -11.593  -7.621  15.953  0.00  0.00    +0.304 C 
ATOM     32  H   UNL     1     -10.898  -9.469  15.292  0.00  0.00    +0.151 HD
ATOM     36  H   UNL     1     -11.827  -8.212  13.989  0.00  0.00    +0.156 HD
BRANCH  10  24
ATOM     24  C   UNL     1     -12.741  -6.361  14.090  0.00  0.00    +0.035 A 
ATOM     26  C   UNL     1     -12.033  -5.283  13.585  0.00  0.00    +0.023 A 
ATOM     27  C   UNL     1     -14.127  -6.386  14.071  0.00  0.00    +0.023 A 
ATOM     28  C   UNL     1     -12.729  -4.200  13.045  0.00  0.00    +0.005 A 
ATOM     29  C   UNL     1     -14.822  -5.304  13.530  0.00  0.00    +0.005 A 
ATOM     30  C   UNL     1     -14.124  -4.212  13.017  0.00  0.00    -0.050 A 
ATOM     31  C   UNL     1     -14.868  -3.056  12.440  0.00  0.00    +0.044 C 
ENDBRANCH  10  24
ENDBRANCH  14   8
BRANCH  16  18
ATOM      3  O   UNL     1      -7.308 -12.593  16.535  0.00  0.00    -0.271 OA
ATOM      9  N   UNL     1      -6.323 -11.115  18.045  0.00  0.00    -0.300 N 
ATOM     18  C   UNL     1      -7.383 -11.685  17.361  0.00  0.00    +0.241 C 
ATOM     35  H   UNL     1      -6.490 -10.438  18.781  0.00  0.00    +0.150 HD
BRANCH   9  19
ATOM     19  C   UNL     1      -4.950 -11.532  17.863  0.00  0.00    +0.159 C 
BRANCH  19  23
ATOM      5  O   UNL     1      -5.068 -11.665  20.282  0.00  0.00    -0.274 OA
ATOM     11  N   UNL     1      -3.058 -12.103  19.261  0.00  0.00    -0.328 N 
ATOM     23  C   UNL     1      -4.396 -11.778  19.258  0.00  0.00    +0.231 C 
ATOM     37  H   UNL     1      -2.512 -12.174  18.407  0.00  0.00    +0.145 HD
ATOM     38  H   UNL     1      -2.566 -12.281  20.131  0.00  0.00    +0.145 HD
ENDBRANCH  19  23
BRANCH  19  21
ATOM     21  C   UNL     1      -4.148 -10.459  17.121  0.00  0.00    +0.043 C 
BRANCH  21  22
ATOM     22  C   UNL     1      -3.560 -10.962  15.801  0.00  0.00    +0.123 C 
BRANCH  22  25
ATOM      7  O   UNL     1      -1.513 -10.163  14.750  0.00  0.00    -0.251 OA
ATOM     25  C   UNL     1      -2.077 -10.685  15.702  0.00  0.00    +0.305 C 
BRANCH  25   6
ATOM      6  O   UNL     1      -1.423 -11.086  16.824  0.00  0.00    -0.481 OA
ATOM     39  H   UNL     1      -0.511 -11.391  16.626  0.00  0.00    +0.295 HD
ENDBRANCH  25   6
ENDBRANCH  22  25
ENDBRANCH  21  22
ENDBRANCH  19  21
ENDBRANCH   9  19
ENDBRANCH  16  18
BRANCH  12   1
ATOM      1  O   UNL     1     -11.946 -11.136  17.271  0.00  0.00    -0.387 OA
ATOM     33  H   UNL     1     -11.240 -11.488  16.703  0.00  0.00    +0.210 HD
ENDBRANCH  12   1
BRANCH  13   2
ATOM      2  O   UNL     1     -10.222  -9.957  20.275  0.00  0.00    -0.389 OA
ATOM     34  H   UNL     1     -10.137 -10.433  21.118  0.00  0.00    +0.210 HD
ENDBRANCH  13   2
TORSDOF 11
ENDMDL
MODEL 9
REMARK VINA RESULT:      -6.3     15.896     17.778
REMARK  Name = 11882546
REMARK  12 active torsions:
REMARK  status: ('A' for Active; 'I' for Inactive)
REMARK    1  A    between atoms: O_1  and  C_12
REMARK    2  A    between atoms: O_2  and  C_13
REMARK    3  A    between atoms: O_6  and  C_25
REMARK    4  A    between atoms: N_8  and  C_14
REMARK    5  A    between atoms: N_9  and  C_19
REMARK    6  A    between atoms: N_10  and  C_24
REMARK    7  A    between atoms: C_16  and  C_18
REMARK    8  A    between atoms: C_19  and  C_21
REMARK    9  A    between atoms: C_19  and  C_23
REMARK   10  A    between atoms: C_21  and  C_22
REMARK   11  A    between atoms: C_22  and  C_25
REMARK   12  A    between atoms: C_30  and  C_31
REMARK                            x       y       z     vdW  Elec       q    Type
REMARK                         _______ _______ _______ _____ _____    ______ ____
ROOT
ATOM     12  C   UNL     1      14.088   7.258   2.714  0.00  0.00    +0.167 C 
ATOM     13  C   UNL     1      12.581   7.487   2.878  0.00  0.00    +0.149 C 
ATOM     14  C   UNL     1      14.877   7.796   3.922  0.00  0.00    +0.129 C 
ATOM     15  C   UNL     1      12.042   6.873   4.183  0.00  0.00    +0.074 C 
ATOM     16  C   UNL     1      12.980   7.028   5.346  0.00  0.00    +0.015 C 
ATOM     17  C   UNL     1      14.250   7.448   5.245  0.00  0.00    +0.006 C 
ENDROOT
BRANCH  14   8
ATOM      4  O   UNL     1      17.210   9.322   4.581  0.00  0.00    -0.252 OA
ATOM      8  N   UNL     1      16.243   7.330   3.917  0.00  0.00    -0.290 N 
ATOM     10  N   UNL     1      18.525   7.423   4.159  0.00  0.00    -0.269 N 
ATOM     20  C   UNL     1      17.330   8.144   4.254  0.00  0.00    +0.304 C 
ATOM     32  H   UNL     1      16.432   6.383   3.604  0.00  0.00    +0.151 HD
ATOM     36  H   UNL     1      18.448   6.451   3.873  0.00  0.00    +0.156 HD
BRANCH  10  24
ATOM     24  C   UNL     1      19.837   7.882   4.415  0.00  0.00    +0.035 A 
ATOM     26  C   UNL     1      20.347   7.795   5.701  0.00  0.00    +0.023 A 
ATOM     27  C   UNL     1      20.588   8.409   3.377  0.00  0.00    +0.023 A 
ATOM     28  C   UNL     1      21.642   8.247   5.955  0.00  0.00    +0.005 A 
ATOM     29  C   UNL     1      21.883   8.861   3.631  0.00  0.00    +0.005 A 
ATOM     30  C   UNL     1      22.410   8.780   4.919  0.00  0.00    -0.050 A 
ATOM     31  C   UNL     1      23.795   9.263   5.190  0.00  0.00    +0.044 C 
ENDBRANCH  10  24
ENDBRANCH  14   8
BRANCH  16  18
ATOM      3  O   UNL     1      13.242   6.571   7.636  0.00  0.00    -0.271 OA
ATOM      9  N   UNL     1      11.093   6.625   6.733  0.00  0.00    -0.300 N 
ATOM     18  C   UNL     1      12.473   6.721   6.687  0.00  0.00    +0.241 C 
ATOM     35  H   UNL     1      10.546   6.667   5.881  0.00  0.00    +0.150 HD
BRANCH   9  19
ATOM     19  C   UNL     1      10.363   6.328   7.945  0.00  0.00    +0.159 C 
BRANCH  19  23
ATOM      5  O   UNL     1      10.062   4.143   8.953  0.00  0.00    -0.274 OA
ATOM     11  N   UNL     1      10.009   4.305   6.663  0.00  0.00    -0.328 N 
ATOM     23  C   UNL     1      10.120   4.827   7.933  0.00  0.00    +0.231 C 
ATOM     37  H   UNL     1      10.077   4.881   5.829  0.00  0.00    +0.145 HD
ATOM     38  H   UNL     1       9.856   3.312   6.518  0.00  0.00    +0.145 HD
ENDBRANCH  19  23
BRANCH  19  21
ATOM     21  C   UNL     1       9.047   7.110   7.995  0.00  0.00    +0.043 C 
BRANCH  21  22
ATOM     22  C   UNL     1       8.894   8.093   6.833  0.00  0.00    +0.123 C 
BRANCH  22  25
ATOM      7  O   UNL     1       8.073   6.307   5.395  0.00  0.00    -0.251 OA
ATOM     25  C   UNL     1       8.111   7.495   5.687  0.00  0.00    +0.305 C 
BRANCH  25   6
ATOM      6  O   UNL     1       7.427   8.449   5.002  0.00  0.00    -0.481 OA
ATOM     39  H   UNL     1       7.308   9.265   5.532  0.00  0.00    +0.295 HD
ENDBRANCH  25   6
ENDBRANCH  22  25
ENDBRANCH  21  22
ENDBRANCH  19  21
ENDBRANCH   9  19
ENDBRANCH  16  18
BRANCH  12   1
ATOM      1  O   UNL     1      14.327   5.855   2.571  0.00  0.00    -0.387 OA
ATOM     33  H   UNL     1      13.748   5.395   3.200  0.00  0.00    +0.210 HD
ENDBRANCH  12   1
BRANCH  13   2
ATOM      2  O   UNL     1      12.289   8.882   2.836  0.00  0.00    -0.389 OA
ATOM     34  H   UNL     1      12.923   9.331   3.420  0.00  0.00    +0.210 HD
ENDBRANCH  13   2
TORSDOF 11
ENDMDL
MODEL 10
REMARK VINA RESULT:      -6.2     28.120     30.395
REMARK  Name = 11882546
REMARK  12 active torsions:
REMARK  status: ('A' for Active; 'I' for Inactive)
REMARK    1  A    between atoms: O_1  and  C_12
REMARK    2  A    between atoms: O_2  and  C_13
REMARK    3  A    between atoms: O_6  and  C_25
REMARK    4  A    between atoms: N_8  and  C_14
REMARK    5  A    between atoms: N_9  and  C_19
REMARK    6  A    between atoms: N_10  and  C_24
REMARK    7  A    between atoms: C_16  and  C_18
REMARK    8  A    between atoms: C_19  and  C_21
REMARK    9  A    between atoms: C_19  and  C_23
REMARK   10  A    between atoms: C_21  and  C_22
REMARK   11  A    between atoms: C_22  and  C_25
REMARK   12  A    between atoms: C_30  and  C_31
REMARK                            x       y       z     vdW  Elec       q    Type
REMARK                         _______ _______ _______ _____ _____    ______ ____
ROOT
ATOM     12  C   UNL     1      -2.486 -11.156  13.797  0.00  0.00    +0.167 C 
ATOM     13  C   UNL     1      -2.428 -11.774  15.198  0.00  0.00    +0.149 C 
ATOM     14  C   UNL     1      -3.931 -11.092  13.267  0.00  0.00    +0.129 C 
ATOM     15  C   UNL     1      -3.329 -11.028  16.198  0.00  0.00    +0.074 C 
ATOM     16  C   UNL     1      -4.634 -10.581  15.603  0.00  0.00    +0.015 C 
ATOM     17  C   UNL     1      -4.921 -10.611  14.293  0.00  0.00    +0.006 C 
ENDROOT
BRANCH  14   8
ATOM      4  O   UNL     1      -5.736 -11.434  11.069  0.00  0.00    -0.252 OA
ATOM      8  N   UNL     1      -4.032 -10.256  12.094  0.00  0.00    -0.290 N 
ATOM     10  N   UNL     1      -4.813  -9.524  10.063  0.00  0.00    -0.269 N 
ATOM     20  C   UNL     1      -4.945 -10.494  11.061  0.00  0.00    +0.304 C 
ATOM     32  H   UNL     1      -3.374  -9.490  11.986  0.00  0.00    +0.151 HD
ATOM     36  H   UNL     1      -4.106  -8.810  10.213  0.00  0.00    +0.156 HD
BRANCH  10  24
ATOM     24  C   UNL     1      -5.548  -9.412   8.860  0.00  0.00    +0.035 A 
ATOM     26  C   UNL     1      -6.715  -8.666   8.846  0.00  0.00    +0.023 A 
ATOM     27  C   UNL     1      -5.087 -10.051   7.720  0.00  0.00    +0.023 A 
ATOM     28  C   UNL     1      -7.441  -8.555   7.660  0.00  0.00    +0.005 A 
ATOM     29  C   UNL     1      -5.812  -9.939   6.534  0.00  0.00    +0.005 A 
ATOM     30  C   UNL     1      -6.989  -9.191   6.503  0.00  0.00    -0.050 A 
ATOM     31  C   UNL     1      -7.764  -9.072   5.235  0.00  0.00    +0.044 C 
ENDBRANCH  10  24
ENDBRANCH  14   8
BRANCH  16  18
ATOM      3  O   UNL     1      -6.124  -8.953  16.413  0.00  0.00    -0.271 OA
ATOM      9  N   UNL     1      -6.063 -11.043  17.445  0.00  0.00    -0.300 N 
ATOM     18  C   UNL     1      -5.677 -10.096  16.513  0.00  0.00    +0.241 C 
ATOM     35  H   UNL     1      -5.570 -11.927  17.515  0.00  0.00    +0.150 HD
BRANCH   9  19
ATOM     19  C   UNL     1      -7.074 -10.798  18.448  0.00  0.00    +0.159 C 
BRANCH  19  23
ATOM      5  O   UNL     1      -6.051 -11.281  20.594  0.00  0.00    -0.274 OA
ATOM     11  N   UNL     1      -7.164 -12.972  19.510  0.00  0.00    -0.328 N 
ATOM     23  C   UNL     1      -6.711 -11.677  19.635  0.00  0.00    +0.231 C 
ATOM     37  H   UNL     1      -7.693 -13.289  18.704  0.00  0.00    +0.145 HD
ATOM     38  H   UNL     1      -6.979 -13.662  20.232  0.00  0.00    +0.145 HD
ENDBRANCH  19  23
BRANCH  19  21
ATOM     21  C   UNL     1      -8.469 -11.128  17.910  0.00  0.00    +0.043 C 
BRANCH  21  22
ATOM     22  C   UNL     1      -9.575 -10.308  18.577  0.00  0.00    +0.123 C 
BRANCH  22  25
ATOM      7  O   UNL     1     -10.206 -12.126  20.070  0.00  0.00    -0.251 OA
ATOM     25  C   UNL     1     -10.033 -10.930  19.877  0.00  0.00    +0.305 C 
BRANCH  25   6
ATOM      6  O   UNL     1     -10.229  -9.988  20.836  0.00  0.00    -0.481 OA
ATOM     39  H   UNL     1      -9.897  -9.108  20.557  0.00  0.00    +0.295 HD
ENDBRANCH  25   6
ENDBRANCH  22  25
ENDBRANCH  21  22
ENDBRANCH  19  21
ENDBRANCH   9  19
ENDBRANCH  16  18
BRANCH  12   1
ATOM      1  O   UNL     1      -1.937  -9.836  13.853  0.00  0.00    -0.387 OA
ATOM     33  H   UNL     1      -2.111  -9.486  14.743  0.00  0.00    +0.210 HD
ENDBRANCH  12   1
BRANCH  13   2
ATOM      2  O   UNL     1      -2.793 -13.151  15.143  0.00  0.00    -0.389 OA
ATOM     34  H   UNL     1      -3.165 -13.390  16.009  0.00  0.00    +0.210 HD
ENDBRANCH  13   2
TORSDOF 11
ENDMDL
