MODEL 1
REMARK VINA RESULT:      -6.1      0.000      0.000
REMARK  Name = 75367679
REMARK  3 active torsions:
REMARK  status: ('A' for Active; 'I' for Inactive)
REMARK    1  A    between atoms: O_3  and  C_6
REMARK    2  A    between atoms: O_3  and  C_13
REMARK    3  A    between atoms: C_11  and  C_12
REMARK                            x       y       z     vdW  Elec       q    Type
REMARK                         _______ _______ _______ _____ _____    ______ ____
ROOT
ATOM      2  O   UNL     1      -8.465 -11.288  18.988  0.00  0.00    -0.375 OA
ATOM      4  O   UNL     1      -3.674 -11.874  18.884  0.00  0.00    -0.270 OA
ATOM      5  N   UNL     1      -5.526 -10.677  18.088  0.00  0.00    -0.292 N 
ATOM      6  C   UNL     1      -7.753  -9.911  17.103  0.00  0.00    +0.216 C 
ATOM      7  C   UNL     1      -6.239 -10.083  16.952  0.00  0.00    +0.155 C 
ATOM      8  C   UNL     1      -6.150 -10.613  19.411  0.00  0.00    +0.136 C 
ATOM      9  C   UNL     1      -8.458 -11.184  17.567  0.00  0.00    +0.206 C 
ATOM     10  C   UNL     1      -7.223 -11.683  19.561  0.00  0.00    +0.179 C 
ATOM     11  C   UNL     1      -4.290 -11.335  17.965  0.00  0.00    +0.247 C 
ENDROOT
BRANCH  11  12
ATOM      1  F   UNL     1      -1.903 -11.573  12.904  0.00  0.00    -0.205 F 
ATOM     12  C   UNL     1      -3.663 -11.398  16.636  0.00  0.00    +0.037 A 
ATOM     14  C   UNL     1      -4.092 -12.345  15.707  0.00  0.00    +0.016 A 
ATOM     15  C   UNL     1      -2.639 -10.510  16.305  0.00  0.00    +0.016 A 
ATOM     18  C   UNL     1      -3.498 -12.405  14.446  0.00  0.00    +0.039 A 
ATOM     19  C   UNL     1      -2.045 -10.569  15.044  0.00  0.00    +0.039 A 
ATOM     22  C   UNL     1      -2.474 -11.517  14.115  0.00  0.00    +0.123 A 
ENDBRANCH  11  12
BRANCH   6   3
ATOM      3  O   UNL     1      -8.256  -9.543  15.819  0.00  0.00    -0.485 OA
BRANCH   3  13
ATOM     13  C   UNL     1      -9.379  -8.763  15.804  0.00  0.00    +0.121 A 
ATOM     16  C   UNL     1     -10.245  -8.806  14.710  0.00  0.00    +0.045 A 
ATOM     17  C   UNL     1      -9.660  -7.923  16.882  0.00  0.00    +0.045 A 
ATOM     20  C   UNL     1     -11.390  -8.009  14.695  0.00  0.00    +0.004 A 
ATOM     21  C   UNL     1     -10.806  -7.127  16.867  0.00  0.00    +0.004 A 
ATOM     23  C   UNL     1     -11.670  -7.170  15.774  0.00  0.00    +0.000 A 
ENDBRANCH   3  13
ENDBRANCH   6   3
TORSDOF 3
ENDMDL
MODEL 2
REMARK VINA RESULT:      -6.0      3.864      5.250
REMARK  Name = 75367679
REMARK  3 active torsions:
REMARK  status: ('A' for Active; 'I' for Inactive)
REMARK    1  A    between atoms: O_3  and  C_6
REMARK    2  A    between atoms: O_3  and  C_13
REMARK    3  A    between atoms: C_11  and  C_12
REMARK                            x       y       z     vdW  Elec       q    Type
REMARK                         _______ _______ _______ _____ _____    ______ ____
ROOT
ATOM      2  O   UNL     1      -4.123 -12.443  15.614  0.00  0.00    -0.375 OA
ATOM      4  O   UNL     1      -1.486 -10.747  11.942  0.00  0.00    -0.270 OA
ATOM      5  N   UNL     1      -3.449 -10.551  13.208  0.00  0.00    -0.292 N 
ATOM      6  C   UNL     1      -5.640 -10.913  14.468  0.00  0.00    +0.216 C 
ATOM      7  C   UNL     1      -4.905 -10.366  13.241  0.00  0.00    +0.155 C 
ATOM      8  C   UNL     1      -2.747 -10.769  14.474  0.00  0.00    +0.136 C 
ATOM      9  C   UNL     1      -5.280 -12.363  14.788  0.00  0.00    +0.206 C 
ATOM     10  C   UNL     1      -2.891 -12.212  14.938  0.00  0.00    +0.179 C 
ATOM     11  C   UNL     1      -2.700 -10.564  12.019  0.00  0.00    +0.247 C 
ENDROOT
BRANCH  11  12
ATOM      1  F   UNL     1      -5.386  -9.726   7.176  0.00  0.00    -0.205 F 
ATOM     12  C   UNL     1      -3.406 -10.344  10.748  0.00  0.00    +0.037 A 
ATOM     14  C   UNL     1      -3.568  -9.049  10.255  0.00  0.00    +0.016 A 
ATOM     15  C   UNL     1      -3.914 -11.430  10.033  0.00  0.00    +0.016 A 
ATOM     18  C   UNL     1      -4.236  -8.840   9.049  0.00  0.00    +0.039 A 
ATOM     19  C   UNL     1      -4.582 -11.221   8.827  0.00  0.00    +0.039 A 
ATOM     22  C   UNL     1      -4.744  -9.926   8.335  0.00  0.00    +0.123 A 
ENDBRANCH  11  12
BRANCH   6   3
ATOM      3  O   UNL     1      -7.036 -10.832  14.182  0.00  0.00    -0.485 OA
BRANCH   3  13
ATOM     13  C   UNL     1      -7.783 -10.034  15.003  0.00  0.00    +0.121 A 
ATOM     16  C   UNL     1      -7.355  -9.776  16.306  0.00  0.00    +0.045 A 
ATOM     17  C   UNL     1      -8.975  -9.475  14.538  0.00  0.00    +0.045 A 
ATOM     20  C   UNL     1      -8.118  -8.962  17.143  0.00  0.00    +0.004 A 
ATOM     21  C   UNL     1      -9.737  -8.661  15.375  0.00  0.00    +0.004 A 
ATOM     23  C   UNL     1      -9.308  -8.405  16.678  0.00  0.00    +0.000 A 
ENDBRANCH   3  13
ENDBRANCH   6   3
TORSDOF 3
ENDMDL
MODEL 3
REMARK VINA RESULT:      -5.8     25.158     27.684
REMARK  Name = 75367679
REMARK  3 active torsions:
REMARK  status: ('A' for Active; 'I' for Inactive)
REMARK    1  A    between atoms: O_3  and  C_6
REMARK    2  A    between atoms: O_3  and  C_13
REMARK    3  A    between atoms: C_11  and  C_12
REMARK                            x       y       z     vdW  Elec       q    Type
REMARK                         _______ _______ _______ _____ _____    ______ ____
ROOT
ATOM      2  O   UNL     1       9.612  10.045   5.250  0.00  0.00    -0.375 OA
ATOM      4  O   UNL     1      11.494  13.217   8.365  0.00  0.00    -0.270 OA
ATOM      5  N   UNL     1      10.779  11.015   7.991  0.00  0.00    -0.292 N 
ATOM      6  C   UNL     1       9.510   8.883   7.393  0.00  0.00    +0.216 C 
ATOM      7  C   UNL     1      10.034   9.843   8.464  0.00  0.00    +0.155 C 
ATOM      8  C   UNL     1      11.389  10.961   6.662  0.00  0.00    +0.136 C 
ATOM      9  C   UNL     1       8.739   9.589   6.279  0.00  0.00    +0.206 C 
ATOM     10  C   UNL     1      10.354  11.215   5.574  0.00  0.00    +0.179 C 
ATOM     11  C   UNL     1      10.907  12.201   8.735  0.00  0.00    +0.247 C 
ENDROOT
BRANCH  11  12
ATOM      1  F   UNL     1       8.575  12.403  13.823  0.00  0.00    -0.205 F 
ATOM     12  C   UNL     1      10.294  12.255  10.071  0.00  0.00    +0.037 A 
ATOM     14  C   UNL     1       8.940  12.562  10.206  0.00  0.00    +0.016 A 
ATOM     15  C   UNL     1      11.067  11.998  11.205  0.00  0.00    +0.016 A 
ATOM     18  C   UNL     1       8.359  12.612  11.473  0.00  0.00    +0.039 A 
ATOM     19  C   UNL     1      10.486  12.048  12.472  0.00  0.00    +0.039 A 
ATOM     22  C   UNL     1       9.132  12.355  12.606  0.00  0.00    +0.123 A 
ENDBRANCH  11  12
BRANCH   6   3
ATOM      3  O   UNL     1       8.637   7.966   8.054  0.00  0.00    -0.485 OA
BRANCH   3  13
ATOM     13  C   UNL     1       9.029   6.656   8.073  0.00  0.00    +0.121 A 
ATOM     16  C   UNL     1       9.013   5.940   9.271  0.00  0.00    +0.045 A 
ATOM     17  C   UNL     1       9.445   6.035   6.895  0.00  0.00    +0.045 A 
ATOM     20  C   UNL     1       9.413   4.604   9.290  0.00  0.00    +0.004 A 
ATOM     21  C   UNL     1       9.845   4.698   6.915  0.00  0.00    +0.004 A 
ATOM     23  C   UNL     1       9.829   3.984   8.112  0.00  0.00    +0.000 A 
ENDBRANCH   3  13
ENDBRANCH   6   3
TORSDOF 3
ENDMDL
MODEL 4
REMARK VINA RESULT:      -5.8     19.931     22.602
REMARK  Name = 75367679
REMARK  3 active torsions:
REMARK  status: ('A' for Active; 'I' for Inactive)
REMARK    1  A    between atoms: O_3  and  C_6
REMARK    2  A    between atoms: O_3  and  C_13
REMARK    3  A    between atoms: C_11  and  C_12
REMARK                            x       y       z     vdW  Elec       q    Type
REMARK                         _______ _______ _______ _____ _____    ______ ____
ROOT
ATOM      2  O   UNL     1     -15.294   6.099  34.120  0.00  0.00    -0.375 OA
ATOM      4  O   UNL     1     -18.442   5.769  30.474  0.00  0.00    -0.270 OA
ATOM      5  N   UNL     1     -17.105   4.629  32.026  0.00  0.00    -0.292 N 
ATOM      6  C   UNL     1     -15.223   3.739  33.504  0.00  0.00    +0.216 C 
ATOM      7  C   UNL     1     -16.154   3.547  32.304  0.00  0.00    +0.155 C 
ATOM      8  C   UNL     1     -17.456   5.542  33.115  0.00  0.00    +0.136 C 
ATOM      9  C   UNL     1     -14.506   5.088  33.500  0.00  0.00    +0.206 C 
ATOM     10  C   UNL     1     -16.369   6.588  33.325  0.00  0.00    +0.179 C 
ATOM     11  C   UNL     1     -17.667   4.857  30.759  0.00  0.00    +0.247 C 
ENDROOT
BRANCH  11  12
ATOM      1  F   UNL     1     -16.325   1.363  26.591  0.00  0.00    -0.205 F 
ATOM     12  C   UNL     1     -17.314   3.939  29.665  0.00  0.00    +0.037 A 
ATOM     14  C   UNL     1     -18.065   2.782  29.455  0.00  0.00    +0.016 A 
ATOM     15  C   UNL     1     -16.229   4.225  28.836  0.00  0.00    +0.016 A 
ATOM     18  C   UNL     1     -17.732   1.912  28.417  0.00  0.00    +0.039 A 
ATOM     19  C   UNL     1     -15.895   3.355  27.798  0.00  0.00    +0.039 A 
ATOM     22  C   UNL     1     -16.646   2.198  27.588  0.00  0.00    +0.123 A 
ENDBRANCH  11  12
BRANCH   6   3
ATOM      3  O   UNL     1     -14.251   2.695  33.443  0.00  0.00    -0.485 OA
BRANCH   3  13
ATOM     13  C   UNL     1     -14.269   1.908  32.325  0.00  0.00    +0.121 A 
ATOM     16  C   UNL     1     -13.624   2.330  31.163  0.00  0.00    +0.045 A 
ATOM     17  C   UNL     1     -14.934   0.681  32.347  0.00  0.00    +0.045 A 
ATOM     20  C   UNL     1     -13.644   1.526  30.022  0.00  0.00    +0.004 A 
ATOM     21  C   UNL     1     -14.954  -0.122  31.206  0.00  0.00    +0.004 A 
ATOM     23  C   UNL     1     -14.309   0.301  30.045  0.00  0.00    +0.000 A 
ENDBRANCH   3  13
ENDBRANCH   6   3
TORSDOF 3
ENDMDL
MODEL 5
REMARK VINA RESULT:      -5.8      7.307     11.018
REMARK  Name = 75367679
REMARK  3 active torsions:
REMARK  status: ('A' for Active; 'I' for Inactive)
REMARK    1  A    between atoms: O_3  and  C_6
REMARK    2  A    between atoms: O_3  and  C_13
REMARK    3  A    between atoms: C_11  and  C_12
REMARK                            x       y       z     vdW  Elec       q    Type
REMARK                         _______ _______ _______ _____ _____    ______ ____
ROOT
ATOM      2  O   UNL     1      -7.379 -10.106   7.091  0.00  0.00    -0.375 OA
ATOM      4  O   UNL     1     -10.463  -6.547   6.030  0.00  0.00    -0.270 OA
ATOM      5  N   UNL     1      -8.624  -7.238   7.309  0.00  0.00    -0.292 N 
ATOM      6  C   UNL     1      -6.973  -8.447   8.835  0.00  0.00    +0.216 C 
ATOM      7  C   UNL     1      -7.958  -7.296   8.615  0.00  0.00    +0.155 C 
ATOM      8  C   UNL     1      -7.995  -7.920   6.177  0.00  0.00    +0.136 C 
ATOM      9  C   UNL     1      -7.554  -9.813   8.474  0.00  0.00    +0.206 C 
ATOM     10  C   UNL     1      -8.269  -9.417   6.219  0.00  0.00    +0.179 C 
ATOM     11  C   UNL     1      -9.855  -6.592   7.098  0.00  0.00    +0.247 C 
ENDROOT
BRANCH  11  12
ATOM      1  F   UNL     1     -12.258  -3.982  11.432  0.00  0.00    -0.205 F 
ATOM     12  C   UNL     1     -10.486  -5.906   8.236  0.00  0.00    +0.037 A 
ATOM     14  C   UNL     1     -11.338  -6.609   9.089  0.00  0.00    +0.016 A 
ATOM     15  C   UNL     1     -10.234  -4.553   8.463  0.00  0.00    +0.016 A 
ATOM     18  C   UNL     1     -11.936  -5.960  10.168  0.00  0.00    +0.039 A 
ATOM     19  C   UNL     1     -10.832  -3.903   9.543  0.00  0.00    +0.039 A 
ATOM     22  C   UNL     1     -11.684  -4.606  10.395  0.00  0.00    +0.123 A 
ENDBRANCH  11  12
BRANCH   6   3
ATOM      3  O   UNL     1      -6.632  -8.438  10.222  0.00  0.00    -0.485 OA
BRANCH   3  13
ATOM     13  C   UNL     1      -5.412  -8.959  10.553  0.00  0.00    +0.121 A 
ATOM     16  C   UNL     1      -4.297  -8.686   9.761  0.00  0.00    +0.045 A 
ATOM     17  C   UNL     1      -5.282  -9.765  11.686  0.00  0.00    +0.045 A 
ATOM     20  C   UNL     1      -3.052  -9.219  10.100  0.00  0.00    +0.004 A 
ATOM     21  C   UNL     1      -4.037 -10.297  12.024  0.00  0.00    +0.004 A 
ATOM     23  C   UNL     1      -2.923 -10.024  11.231  0.00  0.00    +0.000 A 
ENDBRANCH   3  13
ENDBRANCH   6   3
TORSDOF 3
ENDMDL
MODEL 6
REMARK VINA RESULT:      -5.8      4.228      6.530
REMARK  Name = 75367679
REMARK  3 active torsions:
REMARK  status: ('A' for Active; 'I' for Inactive)
REMARK    1  A    between atoms: O_3  and  C_6
REMARK    2  A    between atoms: O_3  and  C_13
REMARK    3  A    between atoms: C_11  and  C_12
REMARK                            x       y       z     vdW  Elec       q    Type
REMARK                         _______ _______ _______ _____ _____    ______ ____
ROOT
ATOM      2  O   UNL     1      -2.308 -14.097  13.215  0.00  0.00    -0.375 OA
ATOM      4  O   UNL     1      -5.214 -15.243  16.895  0.00  0.00    -0.270 OA
ATOM      5  N   UNL     1      -4.733 -13.734  15.167  0.00  0.00    -0.292 N 
ATOM      6  C   UNL     1      -3.669 -12.095  13.525  0.00  0.00    +0.216 C 
ATOM      7  C   UNL     1      -4.589 -12.343  14.723  0.00  0.00    +0.155 C 
ATOM      8  C   UNL     1      -4.429 -14.803  14.214  0.00  0.00    +0.136 C 
ATOM      9  C   UNL     1      -2.297 -12.749  13.675  0.00  0.00    +0.206 C 
ATOM     10  C   UNL     1      -2.926 -15.024  14.101  0.00  0.00    +0.179 C 
ATOM     11  C   UNL     1      -5.113 -14.093  16.472  0.00  0.00    +0.247 C 
ENDROOT
BRANCH  11  12
ATOM      1  F   UNL     1      -6.280 -10.000  20.113  0.00  0.00    -0.205 F 
ATOM     12  C   UNL     1      -5.419 -13.018  17.429  0.00  0.00    +0.037 A 
ATOM     14  C   UNL     1      -4.420 -12.526  18.269  0.00  0.00    +0.016 A 
ATOM     15  C   UNL     1      -6.710 -12.490  17.496  0.00  0.00    +0.016 A 
ATOM     18  C   UNL     1      -4.710 -11.507  19.175  0.00  0.00    +0.039 A 
ATOM     19  C   UNL     1      -7.000 -11.471  18.403  0.00  0.00    +0.039 A 
ATOM     22  C   UNL     1      -6.001 -10.979  19.243  0.00  0.00    +0.123 A 
ENDBRANCH  11  12
BRANCH   6   3
ATOM      3  O   UNL     1      -3.501 -10.681  13.421  0.00  0.00    -0.485 OA
BRANCH   3  13
ATOM     13  C   UNL     1      -3.855 -10.110  12.229  0.00  0.00    +0.121 A 
ATOM     16  C   UNL     1      -2.899  -9.928  11.230  0.00  0.00    +0.045 A 
ATOM     17  C   UNL     1      -5.175  -9.709  12.013  0.00  0.00    +0.045 A 
ATOM     20  C   UNL     1      -3.261  -9.345  10.015  0.00  0.00    +0.004 A 
ATOM     21  C   UNL     1      -5.536  -9.126  10.798  0.00  0.00    +0.004 A 
ATOM     23  C   UNL     1      -4.579  -8.944   9.800  0.00  0.00    +0.000 A 
ENDBRANCH   3  13
ENDBRANCH   6   3
TORSDOF 3
ENDMDL
MODEL 7
REMARK VINA RESULT:      -5.8     24.099     25.678
REMARK  Name = 75367679
REMARK  3 active torsions:
REMARK  status: ('A' for Active; 'I' for Inactive)
REMARK    1  A    between atoms: O_3  and  C_6
REMARK    2  A    between atoms: O_3  and  C_13
REMARK    3  A    between atoms: C_11  and  C_12
REMARK                            x       y       z     vdW  Elec       q    Type
REMARK                         _______ _______ _______ _____ _____    ______ ____
ROOT
ATOM      2  O   UNL     1      -0.359  12.480   1.273  0.00  0.00    -0.375 OA
ATOM      4  O   UNL     1      -2.034  11.213   5.620  0.00  0.00    -0.270 OA
ATOM      5  N   UNL     1      -1.145  10.500   3.572  0.00  0.00    -0.292 N 
ATOM      6  C   UNL     1      -0.608  10.057   1.116  0.00  0.00    +0.216 C 
ATOM      7  C   UNL     1      -1.198   9.566   2.441  0.00  0.00    +0.155 C 
ATOM      8  C   UNL     1      -0.154  11.576   3.539  0.00  0.00    +0.136 C 
ATOM      9  C   UNL     1      -1.130  11.430   0.697  0.00  0.00    +0.206 C 
ATOM     10  C   UNL     1      -0.620  12.723   2.651  0.00  0.00    +0.179 C 
ATOM     11  C   UNL     1      -2.022  10.434   4.668  0.00  0.00    +0.247 C 
ENDROOT
BRANCH  11  12
ATOM      1  F   UNL     1      -5.813   6.313   4.795  0.00  0.00    -0.205 F 
ATOM     12  C   UNL     1      -3.017   9.352   4.701  0.00  0.00    +0.037 A 
ATOM     14  C   UNL     1      -2.694   8.125   5.280  0.00  0.00    +0.016 A 
ATOM     15  C   UNL     1      -4.285   9.552   4.153  0.00  0.00    +0.016 A 
ATOM     18  C   UNL     1      -3.638   7.098   5.312  0.00  0.00    +0.039 A 
ATOM     19  C   UNL     1      -5.229   8.525   4.185  0.00  0.00    +0.039 A 
ATOM     22  C   UNL     1      -4.906   7.298   4.765  0.00  0.00    +0.123 A 
ENDBRANCH  11  12
BRANCH   6   3
ATOM      3  O   UNL     1      -0.972   9.098   0.123  0.00  0.00    -0.485 OA
BRANCH   3  13
ATOM     13  C   UNL     1      -1.813   9.531  -0.865  0.00  0.00    +0.121 A 
ATOM     16  C   UNL     1      -1.290  10.073  -2.040  0.00  0.00    +0.045 A 
ATOM     17  C   UNL     1      -3.195   9.431  -0.698  0.00  0.00    +0.045 A 
ATOM     20  C   UNL     1      -2.149  10.515  -3.047  0.00  0.00    +0.004 A 
ATOM     21  C   UNL     1      -4.053   9.873  -1.705  0.00  0.00    +0.004 A 
ATOM     23  C   UNL     1      -3.530  10.415  -2.879  0.00  0.00    +0.000 A 
ENDBRANCH   3  13
ENDBRANCH   6   3
TORSDOF 3
ENDMDL
MODEL 8
REMARK VINA RESULT:      -5.7      3.586      5.622
REMARK  Name = 75367679
REMARK  3 active torsions:
REMARK  status: ('A' for Active; 'I' for Inactive)
REMARK    1  A    between atoms: O_3  and  C_6
REMARK    2  A    between atoms: O_3  and  C_13
REMARK    3  A    between atoms: C_11  and  C_12
REMARK                            x       y       z     vdW  Elec       q    Type
REMARK                         _______ _______ _______ _____ _____    ______ ____
ROOT
ATOM      2  O   UNL     1      -5.589 -15.454  15.417  0.00  0.00    -0.375 OA
ATOM      4  O   UNL     1      -2.205 -14.662  12.067  0.00  0.00    -0.270 OA
ATOM      5  N   UNL     1      -3.331 -13.847  13.955  0.00  0.00    -0.292 N 
ATOM      6  C   UNL     1      -5.038 -13.093  15.696  0.00  0.00    +0.216 C 
ATOM      7  C   UNL     1      -4.006 -12.730  14.625  0.00  0.00    +0.155 C 
ATOM      8  C   UNL     1      -3.291 -15.144  14.633  0.00  0.00    +0.136 C 
ATOM      9  C   UNL     1      -6.060 -14.124  15.221  0.00  0.00    +0.206 C 
ATOM     10  C   UNL     1      -4.612 -15.885  14.475  0.00  0.00    +0.179 C 
ATOM     11  C   UNL     1      -2.751 -13.745  12.679  0.00  0.00    +0.247 C 
ENDROOT
BRANCH  11  12
ATOM      1  F   UNL     1      -2.903  -8.782  10.087  0.00  0.00    -0.205 F 
ATOM     12  C   UNL     1      -2.791 -12.442  11.997  0.00  0.00    +0.037 A 
ATOM     14  C   UNL     1      -3.707 -12.219  10.969  0.00  0.00    +0.016 A 
ATOM     15  C   UNL     1      -1.912 -11.427  12.380  0.00  0.00    +0.016 A 
ATOM     18  C   UNL     1      -3.745 -10.984  10.324  0.00  0.00    +0.039 A 
ATOM     19  C   UNL     1      -1.950 -10.191  11.734  0.00  0.00    +0.039 A 
ATOM     22  C   UNL     1      -2.866  -9.969  10.706  0.00  0.00    +0.123 A 
ENDBRANCH  11  12
BRANCH   6   3
ATOM      3  O   UNL     1      -5.720 -11.886  16.037  0.00  0.00    -0.485 OA
BRANCH   3  13
ATOM     13  C   UNL     1      -5.826 -11.601  17.370  0.00  0.00    +0.121 A 
ATOM     16  C   UNL     1      -4.735 -11.802  18.217  0.00  0.00    +0.045 A 
ATOM     17  C   UNL     1      -7.027 -11.108  17.885  0.00  0.00    +0.045 A 
ATOM     20  C   UNL     1      -4.845 -11.511  19.577  0.00  0.00    +0.004 A 
ATOM     21  C   UNL     1      -7.135 -10.817  19.245  0.00  0.00    +0.004 A 
ATOM     23  C   UNL     1      -6.045 -11.019  20.090  0.00  0.00    +0.000 A 
ENDBRANCH   3  13
ENDBRANCH   6   3
TORSDOF 3
ENDMDL
MODEL 9
REMARK VINA RESULT:      -5.7     19.064     20.309
REMARK  Name = 75367679
REMARK  3 active torsions:
REMARK  status: ('A' for Active; 'I' for Inactive)
REMARK    1  A    between atoms: O_3  and  C_6
REMARK    2  A    between atoms: O_3  and  C_13
REMARK    3  A    between atoms: C_11  and  C_12
REMARK                            x       y       z     vdW  Elec       q    Type
REMARK                         _______ _______ _______ _____ _____    ______ ____
ROOT
ATOM      2  O   UNL     1     -11.911  10.687  14.911  0.00  0.00    -0.375 OA
ATOM      4  O   UNL     1      -9.782   9.350  19.033  0.00  0.00    -0.270 OA
ATOM      5  N   UNL     1     -11.328   8.813  17.354  0.00  0.00    -0.292 N 
ATOM      6  C   UNL     1     -13.225   8.767  15.646  0.00  0.00    +0.216 C 
ATOM      7  C   UNL     1     -12.657   8.306  16.991  0.00  0.00    +0.155 C 
ATOM      8  C   UNL     1     -10.448   9.285  16.285  0.00  0.00    +0.136 C 
ATOM      9  C   UNL     1     -13.163  10.281  15.454  0.00  0.00    +0.206 C 
ATOM     10  C   UNL     1     -10.832  10.690  15.840  0.00  0.00    +0.179 C 
ATOM     11  C   UNL     1     -10.873   8.902  18.681  0.00  0.00    +0.247 C 
ENDROOT
BRANCH  11  12
ATOM      1  F   UNL     1     -14.244   7.093  22.771  0.00  0.00    -0.205 F 
ATOM     12  C   UNL     1     -11.758   8.427  19.756  0.00  0.00    +0.037 A 
ATOM     14  C   UNL     1     -12.638   9.313  20.377  0.00  0.00    +0.016 A 
ATOM     15  C   UNL     1     -11.718   7.090  20.154  0.00  0.00    +0.016 A 
ATOM     18  C   UNL     1     -13.478   8.863  21.396  0.00  0.00    +0.039 A 
ATOM     19  C   UNL     1     -12.558   6.640  21.172  0.00  0.00    +0.039 A 
ATOM     22  C   UNL     1     -13.438   7.526  21.794  0.00  0.00    +0.123 A 
ENDBRANCH  11  12
BRANCH   6   3
ATOM      3  O   UNL     1     -14.590   8.349  15.610  0.00  0.00    -0.485 OA
BRANCH   3  13
ATOM     13  C   UNL     1     -14.920   7.424  14.658  0.00  0.00    +0.121 A 
ATOM     16  C   UNL     1     -14.134   7.289  13.513  0.00  0.00    +0.045 A 
ATOM     17  C   UNL     1     -16.045   6.615  14.832  0.00  0.00    +0.045 A 
ATOM     20  C   UNL     1     -14.473   6.346  12.542  0.00  0.00    +0.004 A 
ATOM     21  C   UNL     1     -16.382   5.673  13.861  0.00  0.00    +0.004 A 
ATOM     23  C   UNL     1     -15.596   5.538  12.716  0.00  0.00    +0.000 A 
ENDBRANCH   3  13
ENDBRANCH   6   3
TORSDOF 3
ENDMDL
MODEL 10
REMARK VINA RESULT:      -5.7      1.987      3.018
REMARK  Name = 75367679
REMARK  3 active torsions:
REMARK  status: ('A' for Active; 'I' for Inactive)
REMARK    1  A    between atoms: O_3  and  C_6
REMARK    2  A    between atoms: O_3  and  C_13
REMARK    3  A    between atoms: C_11  and  C_12
REMARK                            x       y       z     vdW  Elec       q    Type
REMARK                         _______ _______ _______ _____ _____    ______ ____
ROOT
ATOM      2  O   UNL     1     -11.751 -11.263  18.404  0.00  0.00    -0.375 OA
ATOM      4  O   UNL     1      -7.474 -12.390  20.339  0.00  0.00    -0.270 OA
ATOM      5  N   UNL     1      -8.682 -10.940  18.949  0.00  0.00    -0.292 N 
ATOM      6  C   UNL     1     -10.173  -9.863  17.178  0.00  0.00    +0.216 C 
ATOM      7  C   UNL     1      -8.768 -10.198  17.685  0.00  0.00    +0.155 C 
ATOM      8  C   UNL     1      -9.823 -10.887  19.864  0.00  0.00    +0.136 C 
ATOM      9  C   UNL     1     -11.106 -11.072  17.149  0.00  0.00    +0.206 C 
ATOM     10  C   UNL     1     -10.929 -11.834  19.416  0.00  0.00    +0.179 C 
ATOM     11  C   UNL     1      -7.575 -11.728  19.307  0.00  0.00    +0.247 C 
ENDROOT
BRANCH  11  12
ATOM      1  F   UNL     1      -3.211 -11.924  15.802  0.00  0.00    -0.205 F 
ATOM     12  C   UNL     1      -6.429 -11.780  18.387  0.00  0.00    +0.037 A 
ATOM     14  C   UNL     1      -6.324 -12.818  17.462  0.00  0.00    +0.016 A 
ATOM     15  C   UNL     1      -5.446 -10.790  18.439  0.00  0.00    +0.016 A 
ATOM     18  C   UNL     1      -5.238 -12.867  16.588  0.00  0.00    +0.039 A 
ATOM     19  C   UNL     1      -4.359 -10.840  17.566  0.00  0.00    +0.039 A 
ATOM     22  C   UNL     1      -4.255 -11.878  16.640  0.00  0.00    +0.123 A 
ENDBRANCH  11  12
BRANCH   6   3
ATOM      3  O   UNL     1     -10.023  -9.360  15.851  0.00  0.00    -0.485 OA
BRANCH   3  13
ATOM     13  C   UNL     1     -10.703  -8.212  15.552  0.00  0.00    +0.121 A 
ATOM     16  C   UNL     1     -10.656  -7.125  16.426  0.00  0.00    +0.045 A 
ATOM     17  C   UNL     1     -11.445  -8.126  14.373  0.00  0.00    +0.045 A 
ATOM     20  C   UNL     1     -11.351  -5.954  16.121  0.00  0.00    +0.004 A 
ATOM     21  C   UNL     1     -12.139  -6.955  14.068  0.00  0.00    +0.004 A 
ATOM     23  C   UNL     1     -12.092  -5.870  14.943  0.00  0.00    +0.000 A 
ENDBRANCH   3  13
ENDBRANCH   6   3
TORSDOF 3
ENDMDL
