REMARK  Name = 40777135
REMARK  6 active torsions:
REMARK  status: ('A' for Active; 'I' for Inactive)
REMARK    1  A    between atoms: N_4  and  C_15
REMARK    2  A    between atoms: N_7  and  C_25
REMARK    3  A    between atoms: C_9  and  C_16
REMARK    4  A    between atoms: C_10  and  C_15
REMARK    5  A    between atoms: C_18  and  C_21
REMARK    6  A    between atoms: C_19  and  C_22
REMARK                            x       y       z     vdW  Elec       q    Type
REMARK                         _______ _______ _______ _____ _____    ______ ____
ROOT
ATOM      3  N   UNL     1       0.412   2.496   1.337  0.00  0.00    -0.297 NA
ATOM      8  C   UNL     1      -0.228   2.516  -1.187  0.00  0.00    +0.002 C 
ATOM      9  C   UNL     1      -1.463   2.154  -0.316  0.00  0.00    +0.055 C 
ATOM     10  C   UNL     1       1.386   1.686   0.559  0.00  0.00    +0.074 C 
ATOM     11  C   UNL     1       0.910   1.515  -0.899  0.00  0.00    +0.024 C 
ATOM     12  C   UNL     1       0.258   3.904  -0.716  0.00  0.00    +0.019 C 
ATOM     13  C   UNL     1      -0.960   1.965   1.144  0.00  0.00    +0.094 C 
ATOM     14  C   UNL     1       0.450   3.882   0.810  0.00  0.00    +0.085 C 
ENDROOT
BRANCH   9  16
ATOM      5  N   UNL     1      -1.994   0.376  -1.909  0.00  0.00    -0.237 NA
ATOM      6  N   UNL     1      -3.915  -1.054  -1.645  0.00  0.00    -0.232 NA
ATOM     16  C   UNL     1      -2.354   1.008  -0.773  0.00  0.00    +0.050 A 
ATOM     17  C   UNL     1      -3.466   0.672  -0.028  0.00  0.00    +0.052 A 
ATOM     18  C   UNL     1      -4.217  -0.378  -0.517  0.00  0.00    +0.076 A 
ATOM     19  C   UNL     1      -2.807  -0.631  -2.282  0.00  0.00    +0.127 A 
ATOM     22  C   UNL     1      -2.442  -1.353  -3.535  0.00  0.00    +0.088 C 
BRANCH  18  21
ATOM      1 BR   UNL     1      -3.742  -2.660   1.673  0.00  0.00    -0.050 Br
ATOM     21  C   UNL     1      -5.405  -0.826   0.169  0.00  0.00    +0.014 A 
ATOM     23  C   UNL     1      -5.363  -1.816   1.151  0.00  0.00    +0.027 A 
ATOM     24  C   UNL     1      -6.622  -0.238  -0.178  0.00  0.00    +0.011 A 
ATOM     26  C   UNL     1      -6.538  -2.217   1.787  0.00  0.00    +0.016 A 
ATOM     27  C   UNL     1      -7.796  -0.640   0.458  0.00  0.00    +0.001 A 
ATOM     28  C   UNL     1      -7.755  -1.629   1.440  0.00  0.00    +0.001 A 
ENDBRANCH  18  21
ENDBRANCH   9  16
BRANCH  10  15
ATOM     15  C   UNL     1       1.686   0.341   1.223  0.00  0.00    +0.124 C 
BRANCH  15   4
ATOM      2  O   UNL     1       4.508   0.503   1.685  0.00  0.00    -0.253 OA
ATOM      4  N   UNL     1       2.711  -0.362   0.513  0.00  0.00    -0.298 N 
ATOM      7  N   UNL     1       4.843  -1.036  -0.057  0.00  0.00    -0.269 N 
ATOM     20  C   UNL     1       4.082  -0.232   0.797  0.00  0.00    +0.304 C 
ATOM     34  H   UNL     1       2.432  -0.984  -0.239  0.00  0.00    +0.150 HD
ATOM     35  H   UNL     1       4.331  -1.586  -0.742  0.00  0.00    +0.156 HD
BRANCH   7  25
ATOM     25  C   UNL     1       6.249  -1.181  -0.087  0.00  0.00    +0.035 A 
ATOM     29  C   UNL     1       6.842  -2.036  -1.017  0.00  0.00    +0.023 A 
ATOM     30  C   UNL     1       7.044  -0.470   0.812  0.00  0.00    +0.023 A 
ATOM     31  C   UNL     1       8.229  -2.179  -1.047  0.00  0.00    +0.002 A 
ATOM     32  C   UNL     1       8.431  -0.614   0.782  0.00  0.00    +0.002 A 
ATOM     33  C   UNL     1       9.024  -1.468  -0.147  0.00  0.00    +0.000 A 
ENDBRANCH   7  25
ENDBRANCH  15   4
ENDBRANCH  10  15
TORSDOF 5
