MODEL 1
REMARK VINA RESULT:      -6.5      0.000      0.000
REMARK  Name = 40777337
REMARK  9 active torsions:
REMARK  status: ('A' for Active; 'I' for Inactive)
REMARK    1  A    between atoms: N_7  and  C_23
REMARK    2  A    between atoms: N_7  and  C_24
REMARK    3  A    between atoms: N_7  and  C_25
REMARK    4  A    between atoms: C_8  and  C_12
REMARK    5  A    between atoms: C_9  and  C_14
REMARK    6  A    between atoms: C_12  and  C_15
REMARK    7  A    between atoms: C_14  and  C_16
REMARK    8  A    between atoms: C_22  and  C_23
REMARK    9  A    between atoms: C_24  and  C_26
REMARK                            x       y       z     vdW  Elec       q    Type
REMARK                         _______ _______ _______ _____ _____    ______ ____
ROOT
ATOM      4  N   UNL     1      -6.809 -11.590  20.036  0.00  0.00    -0.316 NA
ATOM      8  C   UNL     1      -6.888 -10.932  17.161  0.00  0.00    +0.004 C 
ATOM      9  C   UNL     1      -5.566 -11.050  17.955  0.00  0.00    +0.012 C 
ATOM     10  C   UNL     1      -7.973 -11.765  17.863  0.00  0.00    +0.019 C 
ATOM     11  C   UNL     1      -5.772 -10.743  19.448  0.00  0.00    +0.085 C 
ATOM     13  C   UNL     1      -8.091 -11.434  19.350  0.00  0.00    +0.081 C 
ATOM     32  H   UNL     1      -6.922 -11.353  21.021  0.00  0.00    +0.122 HD
ENDROOT
BRANCH   8  12
ATOM     12  C   UNL     1      -7.361  -9.489  16.948  0.00  0.00    +0.100 C 
BRANCH  12  15
ATOM      1  O   UNL     1      -8.042  -9.779  14.695  0.00  0.00    -0.276 OA
ATOM      2  O   UNL     1     -12.371  -8.856  16.901  0.00  0.00    -0.377 OA
ATOM      5  N   UNL     1      -9.652  -8.996  16.173  0.00  0.00    -0.297 N 
ATOM     15  C   UNL     1      -8.374  -9.436  15.832  0.00  0.00    +0.216 C 
ATOM     17  C   UNL     1     -10.697  -8.920  15.152  0.00  0.00    +0.136 C 
ATOM     18  C   UNL     1     -10.047  -8.463  17.481  0.00  0.00    +0.136 C 
ATOM     20  C   UNL     1     -12.000  -9.504  15.682  0.00  0.00    +0.179 C 
ATOM     21  C   UNL     1     -11.381  -9.061  17.914  0.00  0.00    +0.179 C 
ENDBRANCH  12  15
ENDBRANCH   8  12
BRANCH   9  14
ATOM     14  C   UNL     1      -4.441 -10.188  17.379  0.00  0.00    +0.064 C 
BRANCH  14  16
ATOM      3  O   UNL     1      -1.925 -11.615  15.236  0.00  0.00    -0.358 OA
ATOM      6  N   UNL     1      -2.327 -10.798  16.285  0.00  0.00    -0.083 NA
ATOM     16  C   UNL     1      -3.655 -10.937  16.342  0.00  0.00    +0.084 A 
ATOM     19  C   UNL     1      -4.142 -11.818  15.361  0.00  0.00    +0.072 A 
ATOM     22  C   UNL     1      -3.014 -12.216  14.692  0.00  0.00    +0.151 A 
BRANCH  22  23
ATOM     23  C   UNL     1      -2.768 -13.121  13.563  0.00  0.00    +0.161 C 
BRANCH  23   7
ATOM      7  N   UNL     1      -3.340 -12.635  12.296  0.00  0.00    -0.294 NA
ATOM     25  C   UNL     1      -3.313 -13.696  11.295  0.00  0.00    +0.105 C 
BRANCH   7  24
ATOM     24  C   UNL     1      -2.606 -11.464  11.830  0.00  0.00    +0.119 C 
BRANCH  24  26
ATOM     26  C   UNL     1      -3.528 -10.390  11.318  0.00  0.00    -0.033 A 
ATOM     27  C   UNL     1      -4.655 -10.028  12.057  0.00  0.00    +0.005 A 
ATOM     28  C   UNL     1      -3.255  -9.755  10.106  0.00  0.00    +0.005 A 
ATOM     29  C   UNL     1      -5.509  -9.033  11.583  0.00  0.00    +0.000 A 
ATOM     30  C   UNL     1      -4.110  -8.760   9.633  0.00  0.00    +0.000 A 
ATOM     31  C   UNL     1      -5.237  -8.399  10.371  0.00  0.00    +0.000 A 
ENDBRANCH  24  26
ENDBRANCH   7  24
ENDBRANCH  23   7
ENDBRANCH  22  23
ENDBRANCH  14  16
ENDBRANCH   9  14
TORSDOF 8
ENDMDL
MODEL 2
REMARK VINA RESULT:      -6.1     27.173     29.582
REMARK  Name = 40777337
REMARK  9 active torsions:
REMARK  status: ('A' for Active; 'I' for Inactive)
REMARK    1  A    between atoms: N_7  and  C_23
REMARK    2  A    between atoms: N_7  and  C_24
REMARK    3  A    between atoms: N_7  and  C_25
REMARK    4  A    between atoms: C_8  and  C_12
REMARK    5  A    between atoms: C_9  and  C_14
REMARK    6  A    between atoms: C_12  and  C_15
REMARK    7  A    between atoms: C_14  and  C_16
REMARK    8  A    between atoms: C_22  and  C_23
REMARK    9  A    between atoms: C_24  and  C_26
REMARK                            x       y       z     vdW  Elec       q    Type
REMARK                         _______ _______ _______ _____ _____    ______ ____
ROOT
ATOM      4  N   UNL     1      16.903  11.362  14.427  0.00  0.00    -0.316 NA
ATOM      8  C   UNL     1      14.330  12.774  14.737  0.00  0.00    +0.004 C 
ATOM      9  C   UNL     1      14.559  11.332  15.249  0.00  0.00    +0.012 C 
ATOM     10  C   UNL     1      15.683  13.499  14.654  0.00  0.00    +0.019 C 
ATOM     11  C   UNL     1      15.649  10.609  14.439  0.00  0.00    +0.085 C 
ATOM     13  C   UNL     1      16.726  12.702  13.870  0.00  0.00    +0.081 C 
ATOM     32  H   UNL     1      17.595  10.856  13.876  0.00  0.00    +0.122 HD
ENDROOT
BRANCH   8  12
ATOM     12  C   UNL     1      13.589  12.848  13.396  0.00  0.00    +0.100 C 
BRANCH  12  15
ATOM      1  O   UNL     1      12.673  14.983  13.873  0.00  0.00    -0.276 OA
ATOM      2  O   UNL     1       8.827  12.741  11.719  0.00  0.00    -0.377 OA
ATOM      5  N   UNL     1      11.190  13.361  13.123  0.00  0.00    -0.297 N 
ATOM     15  C   UNL     1      12.449  13.832  13.490  0.00  0.00    +0.216 C 
ATOM     17  C   UNL     1      10.030  14.252  13.180  0.00  0.00    +0.136 C 
ATOM     18  C   UNL     1      10.867  11.971  12.786  0.00  0.00    +0.136 C 
ATOM     20  C   UNL     1       9.190  14.109  11.918  0.00  0.00    +0.179 C 
ATOM     21  C   UNL     1       9.986  11.921  11.542  0.00  0.00    +0.179 C 
ENDBRANCH  12  15
ENDBRANCH   8  12
BRANCH   9  14
ATOM     14  C   UNL     1      13.277  10.499  15.290  0.00  0.00    +0.064 C 
BRANCH  14  16
ATOM      3  O   UNL     1      13.014   7.986  17.854  0.00  0.00    -0.358 OA
ATOM      6  N   UNL     1      13.092   8.383  16.525  0.00  0.00    -0.083 NA
ATOM     16  C   UNL     1      13.174   9.717  16.567  0.00  0.00    +0.084 A 
ATOM     19  C   UNL     1      13.152  10.211  17.882  0.00  0.00    +0.072 A 
ATOM     22  C   UNL     1      13.050   9.083  18.653  0.00  0.00    +0.151 A 
BRANCH  22  23
ATOM     23  C   UNL     1      12.977   8.843  20.099  0.00  0.00    +0.161 C 
BRANCH  23   7
ATOM      7  N   UNL     1      13.439   7.500  20.488  0.00  0.00    -0.294 NA
ATOM     25  C   UNL     1      12.359   6.768  21.139  0.00  0.00    +0.105 C 
BRANCH   7  24
ATOM     24  C   UNL     1      14.599   7.604  21.367  0.00  0.00    +0.119 C 
BRANCH  24  26
ATOM     26  C   UNL     1      15.837   7.029  20.734  0.00  0.00    -0.033 A 
ATOM     27  C   UNL     1      17.062   7.114  21.395  0.00  0.00    +0.005 A 
ATOM     28  C   UNL     1      15.760   6.409  19.486  0.00  0.00    +0.005 A 
ATOM     29  C   UNL     1      18.210   6.581  20.808  0.00  0.00    +0.000 A 
ATOM     30  C   UNL     1      16.907   5.876  18.900  0.00  0.00    +0.000 A 
ATOM     31  C   UNL     1      18.133   5.962  19.561  0.00  0.00    +0.000 A 
ENDBRANCH  24  26
ENDBRANCH   7  24
ENDBRANCH  23   7
ENDBRANCH  22  23
ENDBRANCH  14  16
ENDBRANCH   9  14
TORSDOF 8
ENDMDL
MODEL 3
REMARK VINA RESULT:      -6.1      1.944      3.237
REMARK  Name = 40777337
REMARK  9 active torsions:
REMARK  status: ('A' for Active; 'I' for Inactive)
REMARK    1  A    between atoms: N_7  and  C_23
REMARK    2  A    between atoms: N_7  and  C_24
REMARK    3  A    between atoms: N_7  and  C_25
REMARK    4  A    between atoms: C_8  and  C_12
REMARK    5  A    between atoms: C_9  and  C_14
REMARK    6  A    between atoms: C_12  and  C_15
REMARK    7  A    between atoms: C_14  and  C_16
REMARK    8  A    between atoms: C_22  and  C_23
REMARK    9  A    between atoms: C_24  and  C_26
REMARK                            x       y       z     vdW  Elec       q    Type
REMARK                         _______ _______ _______ _____ _____    ______ ____
ROOT
ATOM      4  N   UNL     1      -8.584  -8.801  14.983  0.00  0.00    -0.316 NA
ATOM      8  C   UNL     1      -8.667  -9.624  17.816  0.00  0.00    +0.004 C 
ATOM      9  C   UNL     1      -7.442  -9.880  16.907  0.00  0.00    +0.012 C 
ATOM     10  C   UNL     1      -9.463  -8.431  17.263  0.00  0.00    +0.019 C 
ATOM     11  C   UNL     1      -7.846  -9.983  15.426  0.00  0.00    +0.085 C 
ATOM     13  C   UNL     1      -9.792  -8.586  15.778  0.00  0.00    +0.081 C 
ATOM     32  H   UNL     1      -8.840  -8.909  14.003  0.00  0.00    +0.122 HD
ENDROOT
BRANCH   8  12
ATOM     12  C   UNL     1      -9.574 -10.847  17.998  0.00  0.00    +0.100 C 
BRANCH  12  15
ATOM      1  O   UNL     1      -9.604 -10.774  20.367  0.00  0.00    -0.276 OA
ATOM      2  O   UNL     1     -14.345  -9.844  19.313  0.00  0.00    -0.377 OA
ATOM      5  N   UNL     1     -11.665 -10.716  19.302  0.00  0.00    -0.297 N 
ATOM     15  C   UNL     1     -10.274 -10.778  19.332  0.00  0.00    +0.216 C 
ATOM     17  C   UNL     1     -12.422 -10.641  20.552  0.00  0.00    +0.136 C 
ATOM     18  C   UNL     1     -12.497 -10.845  18.100  0.00  0.00    +0.136 C 
ATOM     20  C   UNL     1     -13.514  -9.585  20.447  0.00  0.00    +0.179 C 
ATOM     21  C   UNL     1     -13.590  -9.784  18.099  0.00  0.00    +0.179 C 
ENDBRANCH  12  15
ENDBRANCH   8  12
BRANCH   9  14
ATOM     14  C   UNL     1      -6.627 -11.103  17.328  0.00  0.00    +0.064 C 
BRANCH  14  16
ATOM      3  O   UNL     1      -3.284 -10.412  16.184  0.00  0.00    -0.358 OA
ATOM      6  N   UNL     1      -4.422 -10.099  16.917  0.00  0.00    -0.083 NA
ATOM     16  C   UNL     1      -5.271 -11.106  16.685  0.00  0.00    +0.084 A 
ATOM     19  C   UNL     1      -4.728 -12.072  15.820  0.00  0.00    +0.072 A 
ATOM     22  C   UNL     1      -3.478 -11.589  15.534  0.00  0.00    +0.151 A 
BRANCH  22  23
ATOM     23  C   UNL     1      -2.366 -12.072  14.707  0.00  0.00    +0.161 C 
BRANCH  23   7
ATOM      7  N   UNL     1      -2.721 -12.215  13.285  0.00  0.00    -0.294 NA
ATOM     25  C   UNL     1      -2.331 -13.535  12.802  0.00  0.00    +0.105 C 
BRANCH   7  24
ATOM     24  C   UNL     1      -2.081 -11.165  12.500  0.00  0.00    +0.119 C 
BRANCH  24  26
ATOM     26  C   UNL     1      -3.084 -10.350  11.728  0.00  0.00    -0.033 A 
ATOM     27  C   UNL     1      -2.678  -9.621  10.611  0.00  0.00    +0.005 A 
ATOM     28  C   UNL     1      -4.420 -10.325  12.130  0.00  0.00    +0.005 A 
ATOM     29  C   UNL     1      -3.607  -8.866   9.895  0.00  0.00    +0.000 A 
ATOM     30  C   UNL     1      -5.349  -9.570  11.414  0.00  0.00    +0.000 A 
ATOM     31  C   UNL     1      -4.942  -8.840  10.297  0.00  0.00    +0.000 A 
ENDBRANCH  24  26
ENDBRANCH   7  24
ENDBRANCH  23   7
ENDBRANCH  22  23
ENDBRANCH  14  16
ENDBRANCH   9  14
TORSDOF 8
ENDMDL
MODEL 4
REMARK VINA RESULT:      -6.1     27.694     30.082
REMARK  Name = 40777337
REMARK  9 active torsions:
REMARK  status: ('A' for Active; 'I' for Inactive)
REMARK    1  A    between atoms: N_7  and  C_23
REMARK    2  A    between atoms: N_7  and  C_24
REMARK    3  A    between atoms: N_7  and  C_25
REMARK    4  A    between atoms: C_8  and  C_12
REMARK    5  A    between atoms: C_9  and  C_14
REMARK    6  A    between atoms: C_12  and  C_15
REMARK    7  A    between atoms: C_14  and  C_16
REMARK    8  A    between atoms: C_22  and  C_23
REMARK    9  A    between atoms: C_24  and  C_26
REMARK                            x       y       z     vdW  Elec       q    Type
REMARK                         _______ _______ _______ _____ _____    ______ ____
ROOT
ATOM      4  N   UNL     1      13.855   6.348  20.893  0.00  0.00    -0.316 NA
ATOM      8  C   UNL     1      13.557   9.220  20.288  0.00  0.00    +0.004 C 
ATOM      9  C   UNL     1      12.806   8.529  21.450  0.00  0.00    +0.012 C 
ATOM     10  C   UNL     1      14.829   8.420  19.965  0.00  0.00    +0.019 C 
ATOM     11  C   UNL     1      12.593   7.030  21.176  0.00  0.00    +0.085 C 
ATOM     13  C   UNL     1      14.545   6.935  19.745  0.00  0.00    +0.081 C 
ATOM     32  H   UNL     1      13.673   5.362  20.709  0.00  0.00    +0.122 HD
ENDROOT
BRANCH   8  12
ATOM     12  C   UNL     1      12.706   9.423  19.028  0.00  0.00    +0.100 C 
BRANCH  12  15
ATOM      1  O   UNL     1      13.355  11.689  18.770  0.00  0.00    -0.276 OA
ATOM      2  O   UNL     1      14.935   9.739  14.508  0.00  0.00    -0.377 OA
ATOM      5  N   UNL     1      13.566  10.329  16.900  0.00  0.00    -0.297 N 
ATOM     15  C   UNL     1      13.235  10.587  18.229  0.00  0.00    +0.216 C 
ATOM     17  C   UNL     1      14.092  11.402  16.055  0.00  0.00    +0.136 C 
ATOM     18  C   UNL     1      13.320   9.069  16.191  0.00  0.00    +0.136 C 
ATOM     20  C   UNL     1      15.289  10.907  15.254  0.00  0.00    +0.179 C 
ATOM     21  C   UNL     1      14.547   8.672  15.379  0.00  0.00    +0.179 C 
ENDBRANCH  12  15
ENDBRANCH   8  12
BRANCH   9  14
ATOM     14  C   UNL     1      11.479   9.207  21.794  0.00  0.00    +0.064 C 
BRANCH  14  16
ATOM      3  O   UNL     1      12.679  11.890  23.872  0.00  0.00    -0.358 OA
ATOM      6  N   UNL     1      12.843  10.949  22.863  0.00  0.00    -0.083 NA
ATOM     16  C   UNL     1      11.671  10.308  22.795  0.00  0.00    +0.084 A 
ATOM     19  C   UNL     1      10.741  10.797  23.729  0.00  0.00    +0.072 A 
ATOM     22  C   UNL     1      11.424  11.790  24.381  0.00  0.00    +0.151 A 
BRANCH  22  23
ATOM     23  C   UNL     1      11.080  12.718  25.465  0.00  0.00    +0.161 C 
BRANCH  23   7
ATOM      7  N   UNL     1      11.679  14.052  25.297  0.00  0.00    -0.294 NA
ATOM     25  C   UNL     1      12.417  14.425  26.499  0.00  0.00    +0.105 C 
BRANCH   7  24
ATOM     24  C   UNL     1      10.642  15.034  24.999  0.00  0.00    +0.119 C 
BRANCH  24  26
ATOM     26  C   UNL     1      10.265  15.029  23.542  0.00  0.00    -0.033 A 
ATOM     27  C   UNL     1      11.260  15.056  22.565  0.00  0.00    +0.005 A 
ATOM     28  C   UNL     1       8.921  14.997  23.169  0.00  0.00    +0.005 A 
ATOM     29  C   UNL     1      10.911  15.051  21.215  0.00  0.00    +0.000 A 
ATOM     30  C   UNL     1       8.573  14.992  21.818  0.00  0.00    +0.000 A 
ATOM     31  C   UNL     1       9.568  15.019  20.841  0.00  0.00    +0.000 A 
ENDBRANCH  24  26
ENDBRANCH   7  24
ENDBRANCH  23   7
ENDBRANCH  22  23
ENDBRANCH  14  16
ENDBRANCH   9  14
TORSDOF 8
ENDMDL
MODEL 5
REMARK VINA RESULT:      -6.0      2.420      4.053
REMARK  Name = 40777337
REMARK  9 active torsions:
REMARK  status: ('A' for Active; 'I' for Inactive)
REMARK    1  A    between atoms: N_7  and  C_23
REMARK    2  A    between atoms: N_7  and  C_24
REMARK    3  A    between atoms: N_7  and  C_25
REMARK    4  A    between atoms: C_8  and  C_12
REMARK    5  A    between atoms: C_9  and  C_14
REMARK    6  A    between atoms: C_12  and  C_15
REMARK    7  A    between atoms: C_14  and  C_16
REMARK    8  A    between atoms: C_22  and  C_23
REMARK    9  A    between atoms: C_24  and  C_26
REMARK                            x       y       z     vdW  Elec       q    Type
REMARK                         _______ _______ _______ _____ _____    ______ ____
ROOT
ATOM      4  N   UNL     1      -9.070  -8.413  15.104  0.00  0.00    -0.316 NA
ATOM      8  C   UNL     1      -8.654  -9.731  17.711  0.00  0.00    +0.004 C 
ATOM      9  C   UNL     1      -7.642  -9.844  16.546  0.00  0.00    +0.012 C 
ATOM     10  C   UNL     1      -9.474  -8.442  17.541  0.00  0.00    +0.019 C 
ATOM     11  C   UNL     1      -8.327  -9.671  15.180  0.00  0.00    +0.085 C 
ATOM     13  C   UNL     1     -10.089  -8.320  16.148  0.00  0.00    +0.081 C 
ATOM     32  H   UNL     1      -9.515  -8.338  14.190  0.00  0.00    +0.122 HD
ENDROOT
BRANCH   8  12
ATOM     12  C   UNL     1      -9.576 -10.948  17.855  0.00  0.00    +0.100 C 
BRANCH  12  15
ATOM      1  O   UNL     1      -9.471 -10.873  20.223  0.00  0.00    -0.276 OA
ATOM      2  O   UNL     1      -9.398 -15.750  19.407  0.00  0.00    -0.377 OA
ATOM      5  N   UNL     1      -9.146 -12.948  19.235  0.00  0.00    -0.297 N 
ATOM     15  C   UNL     1      -9.393 -11.577  19.214  0.00  0.00    +0.216 C 
ATOM     17  C   UNL     1      -8.961 -13.639  20.512  0.00  0.00    +0.136 C 
ATOM     18  C   UNL     1      -8.923 -13.791  18.055  0.00  0.00    +0.136 C 
ATOM     20  C   UNL     1      -9.753 -14.940  20.531  0.00  0.00    +0.179 C 
ATOM     21  C   UNL     1      -9.712 -15.089  18.178  0.00  0.00    +0.179 C 
ENDBRANCH  12  15
ENDBRANCH   8  12
BRANCH   9  14
ATOM     14  C   UNL     1      -6.831 -11.140  16.580  0.00  0.00    +0.064 C 
BRANCH  14  16
ATOM      3  O   UNL     1      -3.313 -10.381  16.498  0.00  0.00    -0.358 OA
ATOM      6  N   UNL     1      -4.527 -10.512  17.160  0.00  0.00    -0.083 NA
ATOM     16  C   UNL     1      -5.395 -10.896  16.218  0.00  0.00    +0.084 A 
ATOM     19  C   UNL     1      -4.790 -11.022  14.956  0.00  0.00    +0.072 A 
ATOM     22  C   UNL     1      -3.482 -10.686  15.186  0.00  0.00    +0.151 A 
BRANCH  22  23
ATOM     23  C   UNL     1      -2.290 -10.600  14.334  0.00  0.00    +0.161 C 
BRANCH  23   7
ATOM      7  N   UNL     1      -2.393 -11.409  13.108  0.00  0.00    -0.294 NA
ATOM     25  C   UNL     1      -1.706 -12.683  13.290  0.00  0.00    +0.105 C 
BRANCH   7  24
ATOM     24  C   UNL     1      -1.837 -10.677  11.975  0.00  0.00    +0.119 C 
BRANCH  24  26
ATOM     26  C   UNL     1      -2.864 -10.439  10.901  0.00  0.00    -0.033 A 
ATOM     27  C   UNL     1      -3.683 -11.485  10.476  0.00  0.00    +0.005 A 
ATOM     28  C   UNL     1      -2.999  -9.173  10.332  0.00  0.00    +0.005 A 
ATOM     29  C   UNL     1      -4.635 -11.266   9.481  0.00  0.00    +0.000 A 
ATOM     30  C   UNL     1      -3.951  -8.953   9.336  0.00  0.00    +0.000 A 
ATOM     31  C   UNL     1      -4.769 -10.000   8.911  0.00  0.00    +0.000 A 
ENDBRANCH  24  26
ENDBRANCH   7  24
ENDBRANCH  23   7
ENDBRANCH  22  23
ENDBRANCH  14  16
ENDBRANCH   9  14
TORSDOF 8
ENDMDL
MODEL 6
REMARK VINA RESULT:      -6.0      1.525      2.037
REMARK  Name = 40777337
REMARK  9 active torsions:
REMARK  status: ('A' for Active; 'I' for Inactive)
REMARK    1  A    between atoms: N_7  and  C_23
REMARK    2  A    between atoms: N_7  and  C_24
REMARK    3  A    between atoms: N_7  and  C_25
REMARK    4  A    between atoms: C_8  and  C_12
REMARK    5  A    between atoms: C_9  and  C_14
REMARK    6  A    between atoms: C_12  and  C_15
REMARK    7  A    between atoms: C_14  and  C_16
REMARK    8  A    between atoms: C_22  and  C_23
REMARK    9  A    between atoms: C_24  and  C_26
REMARK                            x       y       z     vdW  Elec       q    Type
REMARK                         _______ _______ _______ _____ _____    ______ ____
ROOT
ATOM      4  N   UNL     1      -8.229 -13.659  19.601  0.00  0.00    -0.316 NA
ATOM      8  C   UNL     1      -8.220 -11.459  17.635  0.00  0.00    +0.004 C 
ATOM      9  C   UNL     1      -6.960 -11.871  18.433  0.00  0.00    +0.012 C 
ATOM     10  C   UNL     1      -9.177 -12.658  17.550  0.00  0.00    +0.019 C 
ATOM     11  C   UNL     1      -7.329 -12.520  19.779  0.00  0.00    +0.085 C 
ATOM     13  C   UNL     1      -9.464 -13.274  18.919  0.00  0.00    +0.081 C 
ATOM     32  H   UNL     1      -8.456 -14.056  20.512  0.00  0.00    +0.122 HD
ENDROOT
BRANCH   8  12
ATOM     12  C   UNL     1      -8.938 -10.226  18.198  0.00  0.00    +0.100 C 
BRANCH  12  15
ATOM      1  O   UNL     1      -7.849  -8.800  16.648  0.00  0.00    -0.276 OA
ATOM      2  O   UNL     1     -12.595  -7.708  15.793  0.00  0.00    -0.377 OA
ATOM      5  N   UNL     1     -10.132  -8.485  16.921  0.00  0.00    -0.297 N 
ATOM     15  C   UNL     1      -8.915  -9.107  17.187  0.00  0.00    +0.216 C 
ATOM     17  C   UNL     1     -10.199  -7.393  15.949  0.00  0.00    +0.136 C 
ATOM     18  C   UNL     1     -11.390  -8.737  17.631  0.00  0.00    +0.136 C 
ATOM     20  C   UNL     1     -11.396  -7.578  15.025  0.00  0.00    +0.179 C 
ATOM     21  C   UNL     1     -12.541  -8.861  16.639  0.00  0.00    +0.179 C 
ENDBRANCH  12  15
ENDBRANCH   8  12
BRANCH   9  14
ATOM     14  C   UNL     1      -5.979 -10.718  18.643  0.00  0.00    +0.064 C 
BRANCH  14  16
ATOM      3  O   UNL     1      -2.761 -11.319  17.144  0.00  0.00    -0.358 OA
ATOM      6  N   UNL     1      -3.638 -11.338  18.221  0.00  0.00    -0.083 NA
ATOM     16  C   UNL     1      -4.785 -10.845  17.742  0.00  0.00    +0.084 A 
ATOM     19  C   UNL     1      -4.690 -10.501  16.383  0.00  0.00    +0.072 A 
ATOM     22  C   UNL     1      -3.399 -10.819  16.054  0.00  0.00    +0.151 A 
BRANCH  22  23
ATOM     23  C   UNL     1      -2.612 -10.729  14.819  0.00  0.00    +0.161 C 
BRANCH  23   7
ATOM      7  N   UNL     1      -3.027 -11.703  13.795  0.00  0.00    -0.294 NA
ATOM     25  C   UNL     1      -3.016 -13.051  14.354  0.00  0.00    +0.105 C 
BRANCH   7  24
ATOM     24  C   UNL     1      -2.147 -11.616  12.634  0.00  0.00    +0.119 C 
BRANCH  24  26
ATOM     26  C   UNL     1      -2.854 -11.042  11.436  0.00  0.00    -0.033 A 
ATOM     27  C   UNL     1      -2.681  -9.700  11.101  0.00  0.00    +0.005 A 
ATOM     28  C   UNL     1      -3.682 -11.854  10.659  0.00  0.00    +0.005 A 
ATOM     29  C   UNL     1      -3.336  -9.168   9.991  0.00  0.00    +0.000 A 
ATOM     30  C   UNL     1      -4.337 -11.322   9.548  0.00  0.00    +0.000 A 
ATOM     31  C   UNL     1      -4.164  -9.978   9.215  0.00  0.00    +0.000 A 
ENDBRANCH  24  26
ENDBRANCH   7  24
ENDBRANCH  23   7
ENDBRANCH  22  23
ENDBRANCH  14  16
ENDBRANCH   9  14
TORSDOF 8
ENDMDL
MODEL 7
REMARK VINA RESULT:      -5.9     27.829     30.222
REMARK  Name = 40777337
REMARK  9 active torsions:
REMARK  status: ('A' for Active; 'I' for Inactive)
REMARK    1  A    between atoms: N_7  and  C_23
REMARK    2  A    between atoms: N_7  and  C_24
REMARK    3  A    between atoms: N_7  and  C_25
REMARK    4  A    between atoms: C_8  and  C_12
REMARK    5  A    between atoms: C_9  and  C_14
REMARK    6  A    between atoms: C_12  and  C_15
REMARK    7  A    between atoms: C_14  and  C_16
REMARK    8  A    between atoms: C_22  and  C_23
REMARK    9  A    between atoms: C_24  and  C_26
REMARK                            x       y       z     vdW  Elec       q    Type
REMARK                         _______ _______ _______ _____ _____    ______ ____
ROOT
ATOM      4  N   UNL     1      14.068   6.502  20.223  0.00  0.00    -0.316 NA
ATOM      8  C   UNL     1      13.443   9.367  19.894  0.00  0.00    +0.004 C 
ATOM      9  C   UNL     1      12.658   8.446  20.857  0.00  0.00    +0.012 C 
ATOM     10  C   UNL     1      14.846   8.781  19.669  0.00  0.00    +0.019 C 
ATOM     11  C   UNL     1      12.696   6.979  20.396  0.00  0.00    +0.085 C 
ATOM     13  C   UNL     1      14.805   7.311  19.253  0.00  0.00    +0.081 C 
ATOM     32  H   UNL     1      14.053   5.532  19.910  0.00  0.00    +0.122 HD
ENDROOT
BRANCH   8  12
ATOM     12  C   UNL     1      12.735   9.617  18.556  0.00  0.00    +0.100 C 
BRANCH  12  15
ATOM      1  O   UNL     1      13.465  11.871  18.455  0.00  0.00    -0.276 OA
ATOM      2  O   UNL     1      15.318  10.065  14.240  0.00  0.00    -0.377 OA
ATOM      5  N   UNL     1      13.784  10.590  16.545  0.00  0.00    -0.297 N 
ATOM     15  C   UNL     1      13.357  10.798  17.855  0.00  0.00    +0.216 C 
ATOM     17  C   UNL     1      14.403  11.682  15.794  0.00  0.00    +0.136 C 
ATOM     18  C   UNL     1      13.559   9.371  15.761  0.00  0.00    +0.136 C 
ATOM     20  C   UNL     1      15.645  11.187  15.065  0.00  0.00    +0.179 C 
ATOM     21  C   UNL     1      14.834   8.973  15.027  0.00  0.00    +0.179 C 
ENDBRANCH  12  15
ENDBRANCH   8  12
BRANCH   9  14
ATOM     14  C   UNL     1      11.216   8.902  21.082  0.00  0.00    +0.064 C 
BRANCH  14  16
ATOM      3  O   UNL     1      10.831  10.838  24.092  0.00  0.00    -0.358 OA
ATOM      6  N   UNL     1      10.810   9.640  23.390  0.00  0.00    -0.083 NA
ATOM     16  C   UNL     1      11.137   9.967  22.136  0.00  0.00    +0.084 A 
ATOM     19  C   UNL     1      11.372  11.345  21.989  0.00  0.00    +0.072 A 
ATOM     22  C   UNL     1      11.167  11.847  23.247  0.00  0.00    +0.151 A 
BRANCH  22  23
ATOM     23  C   UNL     1      11.237  13.193  23.829  0.00  0.00    +0.161 C 
BRANCH  23   7
ATOM      7  N   UNL     1      12.415  13.392  24.690  0.00  0.00    -0.294 NA
ATOM     25  C   UNL     1      12.022  14.044  25.934  0.00  0.00    +0.105 C 
BRANCH   7  24
ATOM     24  C   UNL     1      13.423  14.179  23.987  0.00  0.00    +0.119 C 
BRANCH  24  26
ATOM     26  C   UNL     1      14.308  13.319  23.126  0.00  0.00    -0.033 A 
ATOM     27  C   UNL     1      14.834  12.132  23.634  0.00  0.00    +0.005 A 
ATOM     28  C   UNL     1      14.601  13.708  21.818  0.00  0.00    +0.005 A 
ATOM     29  C   UNL     1      15.654  11.334  22.836  0.00  0.00    +0.000 A 
ATOM     30  C   UNL     1      15.421  12.911  21.020  0.00  0.00    +0.000 A 
ATOM     31  C   UNL     1      15.948  11.723  21.530  0.00  0.00    +0.000 A 
ENDBRANCH  24  26
ENDBRANCH   7  24
ENDBRANCH  23   7
ENDBRANCH  22  23
ENDBRANCH  14  16
ENDBRANCH   9  14
TORSDOF 8
ENDMDL
MODEL 8
REMARK VINA RESULT:      -5.9      1.767      2.194
REMARK  Name = 40777337
REMARK  9 active torsions:
REMARK  status: ('A' for Active; 'I' for Inactive)
REMARK    1  A    between atoms: N_7  and  C_23
REMARK    2  A    between atoms: N_7  and  C_24
REMARK    3  A    between atoms: N_7  and  C_25
REMARK    4  A    between atoms: C_8  and  C_12
REMARK    5  A    between atoms: C_9  and  C_14
REMARK    6  A    between atoms: C_12  and  C_15
REMARK    7  A    between atoms: C_14  and  C_16
REMARK    8  A    between atoms: C_22  and  C_23
REMARK    9  A    between atoms: C_24  and  C_26
REMARK                            x       y       z     vdW  Elec       q    Type
REMARK                         _______ _______ _______ _____ _____    ______ ____
ROOT
ATOM      4  N   UNL     1      -6.548 -14.042  17.558  0.00  0.00    -0.316 NA
ATOM      8  C   UNL     1      -6.626 -11.235  16.651  0.00  0.00    +0.004 C 
ATOM      9  C   UNL     1      -5.303 -12.008  16.860  0.00  0.00    +0.012 C 
ATOM     10  C   UNL     1      -7.758 -12.239  16.379  0.00  0.00    +0.019 C 
ATOM     11  C   UNL     1      -5.460 -13.128  17.904  0.00  0.00    +0.085 C 
ATOM     13  C   UNL     1      -7.826 -13.342  17.434  0.00  0.00    +0.081 C 
ATOM     32  H   UNL     1      -6.626 -14.762  18.274  0.00  0.00    +0.122 HD
ENDROOT
BRANCH   8  12
ATOM     12  C   UNL     1      -6.993 -10.301  17.811  0.00  0.00    +0.100 C 
BRANCH  12  15
ATOM      1  O   UNL     1      -8.400  -8.845  16.577  0.00  0.00    -0.276 OA
ATOM      2  O   UNL     1     -11.668 -11.045  19.567  0.00  0.00    -0.377 OA
ATOM      5  N   UNL     1      -9.363  -9.931  18.389  0.00  0.00    -0.297 N 
ATOM     15  C   UNL     1      -8.310  -9.621  17.531  0.00  0.00    +0.216 C 
ATOM     17  C   UNL     1     -10.677  -9.319  18.186  0.00  0.00    +0.136 C 
ATOM     18  C   UNL     1      -9.259 -10.748  19.603  0.00  0.00    +0.136 C 
ATOM     20  C   UNL     1     -11.774 -10.368  18.312  0.00  0.00    +0.179 C 
ATOM     21  C   UNL     1     -10.419 -11.735  19.675  0.00  0.00    +0.179 C 
ENDBRANCH  12  15
ENDBRANCH   8  12
BRANCH   9  14
ATOM     14  C   UNL     1      -4.127 -11.099  17.219  0.00  0.00    +0.064 C 
BRANCH  14  16
ATOM      3  O   UNL     1      -1.488 -10.237  14.927  0.00  0.00    -0.358 OA
ATOM      6  N   UNL     1      -2.030 -10.317  16.204  0.00  0.00    -0.083 NA
ATOM     16  C   UNL     1      -3.241 -10.858  16.032  0.00  0.00    +0.084 A 
ATOM     19  C   UNL     1      -3.513 -11.135  14.681  0.00  0.00    +0.072 A 
ATOM     22  C   UNL     1      -2.380 -10.726  14.029  0.00  0.00    +0.151 A 
BRANCH  22  23
ATOM     23  C   UNL     1      -1.965 -10.717  12.621  0.00  0.00    +0.161 C 
BRANCH  23   7
ATOM      7  N   UNL     1      -3.099 -10.769  11.682  0.00  0.00    -0.294 NA
ATOM     25  C   UNL     1      -3.204 -12.102  11.099  0.00  0.00    +0.105 C 
BRANCH   7  24
ATOM     24  C   UNL     1      -2.936  -9.759  10.642  0.00  0.00    +0.119 C 
BRANCH  24  26
ATOM     26  C   UNL     1      -4.245  -9.414   9.985  0.00  0.00    -0.033 A 
ATOM     27  C   UNL     1      -5.242  -8.768  10.715  0.00  0.00    +0.005 A 
ATOM     28  C   UNL     1      -4.460  -9.738   8.645  0.00  0.00    +0.005 A 
ATOM     29  C   UNL     1      -6.455  -8.447  10.106  0.00  0.00    +0.000 A 
ATOM     30  C   UNL     1      -5.673  -9.417   8.036  0.00  0.00    +0.000 A 
ATOM     31  C   UNL     1      -6.671  -8.772   8.767  0.00  0.00    +0.000 A 
ENDBRANCH  24  26
ENDBRANCH   7  24
ENDBRANCH  23   7
ENDBRANCH  22  23
ENDBRANCH  14  16
ENDBRANCH   9  14
TORSDOF 8
ENDMDL
MODEL 9
REMARK VINA RESULT:      -5.9      1.928      2.958
REMARK  Name = 40777337
REMARK  9 active torsions:
REMARK  status: ('A' for Active; 'I' for Inactive)
REMARK    1  A    between atoms: N_7  and  C_23
REMARK    2  A    between atoms: N_7  and  C_24
REMARK    3  A    between atoms: N_7  and  C_25
REMARK    4  A    between atoms: C_8  and  C_12
REMARK    5  A    between atoms: C_9  and  C_14
REMARK    6  A    between atoms: C_12  and  C_15
REMARK    7  A    between atoms: C_14  and  C_16
REMARK    8  A    between atoms: C_22  and  C_23
REMARK    9  A    between atoms: C_24  and  C_26
REMARK                            x       y       z     vdW  Elec       q    Type
REMARK                         _______ _______ _______ _____ _____    ______ ____
ROOT
ATOM      4  N   UNL     1      -9.731 -12.019  15.583  0.00  0.00    -0.316 NA
ATOM      8  C   UNL     1      -9.022  -9.156  15.669  0.00  0.00    +0.004 C 
ATOM      9  C   UNL     1      -8.081 -10.266  16.194  0.00  0.00    +0.012 C 
ATOM     10  C   UNL     1      -9.972  -9.756  14.620  0.00  0.00    +0.019 C 
ATOM     11  C   UNL     1      -8.867 -11.509  16.647  0.00  0.00    +0.085 C 
ATOM     13  C   UNL     1     -10.685 -11.009  15.127  0.00  0.00    +0.081 C 
ATOM     32  H   UNL     1     -10.240 -12.835  15.922  0.00  0.00    +0.122 HD
ENDROOT
BRANCH   8  12
ATOM     12  C   UNL     1      -9.811  -8.436  16.770  0.00  0.00    +0.100 C 
BRANCH  12  15
ATOM      1  O   UNL     1     -10.063  -6.360  15.652  0.00  0.00    -0.276 OA
ATOM      2  O   UNL     1     -14.724  -8.014  15.681  0.00  0.00    -0.377 OA
ATOM      5  N   UNL     1     -12.017  -7.464  16.244  0.00  0.00    -0.297 N 
ATOM     15  C   UNL     1     -10.633  -7.322  16.172  0.00  0.00    +0.216 C 
ATOM     17  C   UNL     1     -12.890  -6.432  15.683  0.00  0.00    +0.136 C 
ATOM     18  C   UNL     1     -12.727  -8.528  16.962  0.00  0.00    +0.136 C 
ATOM     20  C   UNL     1     -14.014  -7.069  14.877  0.00  0.00    +0.179 C 
ATOM     21  C   UNL     1     -13.863  -9.075  16.105  0.00  0.00    +0.179 C 
ENDBRANCH  12  15
ENDBRANCH   8  12
BRANCH   9  14
ATOM     14  C   UNL     1      -7.148  -9.785  17.306  0.00  0.00    +0.064 C 
BRANCH  14  16
ATOM      3  O   UNL     1      -3.813 -11.128  17.494  0.00  0.00    -0.358 OA
ATOM      6  N   UNL     1      -5.060 -10.853  18.041  0.00  0.00    -0.083 NA
ATOM     16  C   UNL     1      -5.736 -10.234  17.067  0.00  0.00    +0.084 A 
ATOM     19  C   UNL     1      -4.972 -10.093  15.896  0.00  0.00    +0.072 A 
ATOM     22  C   UNL     1      -3.772 -10.670  16.217  0.00  0.00    +0.151 A 
BRANCH  22  23
ATOM     23  C   UNL     1      -2.517 -10.880  15.485  0.00  0.00    +0.161 C 
BRANCH  23   7
ATOM      7  N   UNL     1      -2.712 -11.514  14.170  0.00  0.00    -0.294 NA
ATOM     25  C   UNL     1      -2.248 -12.897  14.207  0.00  0.00    +0.105 C 
BRANCH   7  24
ATOM     24  C   UNL     1      -2.008 -10.758  13.140  0.00  0.00    +0.119 C 
BRANCH  24  26
ATOM     26  C   UNL     1      -2.948 -10.224  12.094  0.00  0.00    -0.033 A 
ATOM     27  C   UNL     1      -4.325 -10.264  12.309  0.00  0.00    +0.005 A 
ATOM     28  C   UNL     1      -2.443  -9.687  10.909  0.00  0.00    +0.005 A 
ATOM     29  C   UNL     1      -5.198  -9.768  11.340  0.00  0.00    +0.000 A 
ATOM     30  C   UNL     1      -3.315  -9.191   9.940  0.00  0.00    +0.000 A 
ATOM     31  C   UNL     1      -4.693  -9.232  10.156  0.00  0.00    +0.000 A 
ENDBRANCH  24  26
ENDBRANCH   7  24
ENDBRANCH  23   7
ENDBRANCH  22  23
ENDBRANCH  14  16
ENDBRANCH   9  14
TORSDOF 8
ENDMDL
MODEL 10
REMARK VINA RESULT:      -5.9     24.904     28.077
REMARK  Name = 40777337
REMARK  9 active torsions:
REMARK  status: ('A' for Active; 'I' for Inactive)
REMARK    1  A    between atoms: N_7  and  C_23
REMARK    2  A    between atoms: N_7  and  C_24
REMARK    3  A    between atoms: N_7  and  C_25
REMARK    4  A    between atoms: C_8  and  C_12
REMARK    5  A    between atoms: C_9  and  C_14
REMARK    6  A    between atoms: C_12  and  C_15
REMARK    7  A    between atoms: C_14  and  C_16
REMARK    8  A    between atoms: C_22  and  C_23
REMARK    9  A    between atoms: C_24  and  C_26
REMARK                            x       y       z     vdW  Elec       q    Type
REMARK                         _______ _______ _______ _____ _____    ______ ____
ROOT
ATOM      4  N   UNL     1      14.860   8.642   1.948  0.00  0.00    -0.316 NA
ATOM      8  C   UNL     1      13.097   7.085   3.730  0.00  0.00    +0.004 C 
ATOM      9  C   UNL     1      12.743   7.379   2.253  0.00  0.00    +0.012 C 
ATOM     10  C   UNL     1      14.623   7.152   3.905  0.00  0.00    +0.019 C 
ATOM     11  C   UNL     1      13.410   8.673   1.756  0.00  0.00    +0.085 C 
ATOM     13  C   UNL     1      15.218   8.446   3.352  0.00  0.00    +0.081 C 
ATOM     32  H   UNL     1      15.264   9.517   1.616  0.00  0.00    +0.122 HD
ENDROOT
BRANCH   8  12
ATOM     12  C   UNL     1      12.393   8.006   4.734  0.00  0.00    +0.100 C 
BRANCH  12  15
ATOM      1  O   UNL     1      12.755   6.643   6.641  0.00  0.00    -0.276 OA
ATOM      2  O   UNL     1       7.933   7.652   7.075  0.00  0.00    -0.377 OA
ATOM      5  N   UNL     1      10.549   7.170   6.145  0.00  0.00    -0.297 N 
ATOM     15  C   UNL     1      11.924   7.209   5.926  0.00  0.00    +0.216 C 
ATOM     17  C   UNL     1      10.009   6.423   7.282  0.00  0.00    +0.136 C 
ATOM     18  C   UNL     1       9.528   7.722   5.248  0.00  0.00    +0.136 C 
ATOM     20  C   UNL     1       8.945   7.244   7.998  0.00  0.00    +0.179 C 
ATOM     21  C   UNL     1       8.480   8.486   6.049  0.00  0.00    +0.179 C 
ENDBRANCH  12  15
ENDBRANCH   8  12
BRANCH   9  14
ATOM     14  C   UNL     1      11.237   7.417   1.993  0.00  0.00    +0.064 C 
BRANCH  14  16
ATOM      3  O   UNL     1       9.830   4.684   0.117  0.00  0.00    -0.358 OA
ATOM      6  N   UNL     1       9.985   5.424   1.283  0.00  0.00    -0.083 NA
ATOM     16  C   UNL     1      10.835   6.405   0.959  0.00  0.00    +0.084 A 
ATOM     19  C   UNL     1      11.246   6.332  -0.383  0.00  0.00    +0.072 A 
ATOM     22  C   UNL     1      10.587   5.234  -0.868  0.00  0.00    +0.151 A 
BRANCH  22  23
ATOM     23  C   UNL     1      10.540   4.572  -2.177  0.00  0.00    +0.161 C 
BRANCH  23   7
ATOM      7  N   UNL     1      11.831   3.986  -2.577  0.00  0.00    -0.294 NA
ATOM     25  C   UNL     1      11.756   3.500  -3.950  0.00  0.00    +0.105 C 
BRANCH   7  24
ATOM     24  C   UNL     1      12.197   2.909  -1.663  0.00  0.00    +0.119 C 
BRANCH  24  26
ATOM     26  C   UNL     1      13.215   3.355  -0.648  0.00  0.00    -0.033 A 
ATOM     27  C   UNL     1      14.371   4.014  -1.064  0.00  0.00    +0.005 A 
ATOM     28  C   UNL     1      13.000   3.111   0.709  0.00  0.00    +0.005 A 
ATOM     29  C   UNL     1      15.315   4.429  -0.124  0.00  0.00    +0.000 A 
ATOM     30  C   UNL     1      13.944   3.526   1.649  0.00  0.00    +0.000 A 
ATOM     31  C   UNL     1      15.101   4.184   1.233  0.00  0.00    +0.000 A 
ENDBRANCH  24  26
ENDBRANCH   7  24
ENDBRANCH  23   7
ENDBRANCH  22  23
ENDBRANCH  14  16
ENDBRANCH   9  14
TORSDOF 8
ENDMDL
