MODEL 1
REMARK VINA RESULT:      -6.7      0.000      0.000
REMARK  Name = 26744586
REMARK  8 active torsions:
REMARK  status: ('A' for Active; 'I' for Inactive)
REMARK    1  A    between atoms: O_3  and  C_11
REMARK    2  A    between atoms: O_5  and  C_16
REMARK    3  A    between atoms: O_5  and  C_26
REMARK    4  A    between atoms: N_6  and  C_13
REMARK    5  A    between atoms: C_9  and  C_14
REMARK    6  A    between atoms: C_13  and  C_15
REMARK    7  A    between atoms: C_17  and  C_19
REMARK    8  A    between atoms: C_19  and  C_23
REMARK                            x       y       z     vdW  Elec       q    Type
REMARK                         _______ _______ _______ _____ _____    ______ ____
ROOT
ATOM      6  N   UNL     1      15.936   6.904  19.510  0.00  0.00    -0.284 NA
ATOM      9  C   UNL     1      16.128   6.907  20.975  0.00  0.00    +0.149 C 
ATOM     10  C   UNL     1      17.597   6.492  21.180  0.00  0.00    +0.061 C 
ATOM     11  C   UNL     1      18.132   6.231  19.778  0.00  0.00    +0.130 C 
ATOM     12  C   UNL     1      16.883   5.932  18.971  0.00  0.00    +0.116 C 
ENDROOT
BRANCH   9  14
ATOM      4  O   UNL     1      16.730   9.230  21.444  0.00  0.00    -0.336 OA
ATOM      7  N   UNL     1      14.752   8.608  22.291  0.00  0.00    -0.194 NA
ATOM      8  N   UNL     1      16.217  10.355  22.103  0.00  0.00    -0.061 NA
ATOM     14  C   UNL     1      15.806   8.247  21.603  0.00  0.00    +0.245 A 
ATOM     17  C   UNL     1      15.050   9.908  22.577  0.00  0.00    +0.176 A 
BRANCH  17  19
ATOM     19  C   UNL     1      14.148  10.764  23.354  0.00  0.00    +0.116 C 
BRANCH  19  23
ATOM      1 CL   UNL     1      11.080  10.588  23.739  0.00  0.00    -0.083 Cl
ATOM      2  F   UNL     1      10.948  14.205  20.209  0.00  0.00    -0.205 F 
ATOM     23  C   UNL     1      13.258  11.680  22.519  0.00  0.00    -0.021 A 
ATOM     24  C   UNL     1      11.868  11.657  22.638  0.00  0.00    +0.047 A 
ATOM     25  C   UNL     1      13.867  12.555  21.619  0.00  0.00    +0.008 A 
ATOM     27  C   UNL     1      11.088  12.510  21.857  0.00  0.00    +0.058 A 
ATOM     28  C   UNL     1      13.087  13.407  20.839  0.00  0.00    +0.039 A 
ATOM     29  C   UNL     1      11.697  13.385  20.958  0.00  0.00    +0.125 A 
ENDBRANCH  19  23
ENDBRANCH  17  19
ENDBRANCH   9  14
BRANCH  11   3
ATOM      3  O   UNL     1      19.033   5.141  19.778  0.00  0.00    -0.390 OA
ATOM     30  H   UNL     1      19.718   5.328  20.442  0.00  0.00    +0.210 HD
ENDBRANCH  11   3
BRANCH   6  13
ATOM     13  C   UNL     1      14.564   6.612  19.112  0.00  0.00    +0.124 C 
BRANCH  13  15
ATOM     15  C   UNL     1      13.692   7.837  19.169  0.00  0.00    +0.008 A 
ATOM     16  C   UNL     1      12.385   7.761  19.652  0.00  0.00    +0.124 A 
ATOM     18  C   UNL     1      14.204   9.060  18.733  0.00  0.00    +0.008 A 
ATOM     20  C   UNL     1      11.591   8.907  19.697  0.00  0.00    +0.046 A 
ATOM     21  C   UNL     1      13.409  10.206  18.778  0.00  0.00    +0.001 A 
ATOM     22  C   UNL     1      12.102  10.129  19.260  0.00  0.00    +0.004 A 
BRANCH  16   5
ATOM      5  O   UNL     1      11.869   6.576  20.082  0.00  0.00    -0.495 OA
ATOM     26  C   UNL     1      11.500   6.492  21.457  0.00  0.00    +0.277 C 
ENDBRANCH  16   5
ENDBRANCH  13  15
ENDBRANCH   6  13
TORSDOF 7
ENDMDL
MODEL 2
REMARK VINA RESULT:      -6.4      2.419      4.766
REMARK  Name = 26744586
REMARK  8 active torsions:
REMARK  status: ('A' for Active; 'I' for Inactive)
REMARK    1  A    between atoms: O_3  and  C_11
REMARK    2  A    between atoms: O_5  and  C_16
REMARK    3  A    between atoms: O_5  and  C_26
REMARK    4  A    between atoms: N_6  and  C_13
REMARK    5  A    between atoms: C_9  and  C_14
REMARK    6  A    between atoms: C_13  and  C_15
REMARK    7  A    between atoms: C_17  and  C_19
REMARK    8  A    between atoms: C_19  and  C_23
REMARK                            x       y       z     vdW  Elec       q    Type
REMARK                         _______ _______ _______ _____ _____    ______ ____
ROOT
ATOM      6  N   UNL     1      13.368   8.001  19.973  0.00  0.00    -0.284 NA
ATOM      9  C   UNL     1      12.250   8.861  19.535  0.00  0.00    +0.149 C 
ATOM     10  C   UNL     1      11.044   8.398  20.374  0.00  0.00    +0.061 C 
ATOM     11  C   UNL     1      11.571   7.245  21.218  0.00  0.00    +0.130 C 
ATOM     12  C   UNL     1      12.771   6.749  20.433  0.00  0.00    +0.116 C 
ENDROOT
BRANCH   9  14
ATOM      4  O   UNL     1      13.147  10.958  18.654  0.00  0.00    -0.336 OA
ATOM      7  N   UNL     1      12.316  11.118  20.728  0.00  0.00    -0.194 NA
ATOM      8  N   UNL     1      13.321  12.293  19.041  0.00  0.00    -0.061 NA
ATOM     14  C   UNL     1      12.549  10.336  19.704  0.00  0.00    +0.245 A 
ATOM     17  C   UNL     1      12.807  12.308  20.275  0.00  0.00    +0.176 A 
BRANCH  17  19
ATOM     19  C   UNL     1      12.774  13.527  21.088  0.00  0.00    +0.116 C 
BRANCH  19  23
ATOM      1 CL   UNL     1      14.587  12.915  23.524  0.00  0.00    -0.083 Cl
ATOM      2  F   UNL     1      10.243  12.949  26.112  0.00  0.00    -0.205 F 
ATOM     23  C   UNL     1      12.120  13.366  22.457  0.00  0.00    -0.021 A 
ATOM     24  C   UNL     1      12.872  13.090  23.599  0.00  0.00    +0.047 A 
ATOM     25  C   UNL     1      10.735  13.500  22.549  0.00  0.00    +0.008 A 
ATOM     27  C   UNL     1      12.237  12.949  24.833  0.00  0.00    +0.058 A 
ATOM     28  C   UNL     1      10.101  13.359  23.783  0.00  0.00    +0.039 A 
ATOM     29  C   UNL     1      10.852  13.083  24.925  0.00  0.00    +0.125 A 
ENDBRANCH  19  23
ENDBRANCH  17  19
ENDBRANCH   9  14
BRANCH  11   3
ATOM      3  O   UNL     1      10.586   6.240  21.366  0.00  0.00    -0.390 OA
ATOM     30  H   UNL     1      10.659   5.646  20.601  0.00  0.00    +0.210 HD
ENDBRANCH  11   3
BRANCH   6  13
ATOM     13  C   UNL     1      14.366   7.782  18.934  0.00  0.00    +0.124 C 
BRANCH  13  15
ATOM     15  C   UNL     1      15.720   7.473  19.514  0.00  0.00    +0.008 A 
ATOM     16  C   UNL     1      16.369   8.390  20.341  0.00  0.00    +0.124 A 
ATOM     18  C   UNL     1      16.326   6.251  19.217  0.00  0.00    +0.008 A 
ATOM     20  C   UNL     1      17.624   8.086  20.869  0.00  0.00    +0.046 A 
ATOM     21  C   UNL     1      17.580   5.947  19.745  0.00  0.00    +0.001 A 
ATOM     22  C   UNL     1      18.229   6.865  20.572  0.00  0.00    +0.004 A 
BRANCH  16   5
ATOM      5  O   UNL     1      15.793   9.587  20.641  0.00  0.00    -0.495 OA
ATOM     26  C   UNL     1      15.625   9.896  22.023  0.00  0.00    +0.277 C 
ENDBRANCH  16   5
ENDBRANCH  13  15
ENDBRANCH   6  13
TORSDOF 7
ENDMDL
MODEL 3
REMARK VINA RESULT:      -6.3      3.103      5.107
REMARK  Name = 26744586
REMARK  8 active torsions:
REMARK  status: ('A' for Active; 'I' for Inactive)
REMARK    1  A    between atoms: O_3  and  C_11
REMARK    2  A    between atoms: O_5  and  C_16
REMARK    3  A    between atoms: O_5  and  C_26
REMARK    4  A    between atoms: N_6  and  C_13
REMARK    5  A    between atoms: C_9  and  C_14
REMARK    6  A    between atoms: C_13  and  C_15
REMARK    7  A    between atoms: C_17  and  C_19
REMARK    8  A    between atoms: C_19  and  C_23
REMARK                            x       y       z     vdW  Elec       q    Type
REMARK                         _______ _______ _______ _____ _____    ______ ____
ROOT
ATOM      6  N   UNL     1      12.849   8.084  20.862  0.00  0.00    -0.284 NA
ATOM      9  C   UNL     1      11.483   8.643  20.823  0.00  0.00    +0.149 C 
ATOM     10  C   UNL     1      10.571   7.489  21.276  0.00  0.00    +0.061 C 
ATOM     11  C   UNL     1      11.509   6.310  21.501  0.00  0.00    +0.130 C 
ATOM     12  C   UNL     1      12.713   6.645  20.641  0.00  0.00    +0.116 C 
ENDROOT
BRANCH   9  14
ATOM      4  O   UNL     1      10.961   9.678  22.976  0.00  0.00    -0.336 OA
ATOM      7  N   UNL     1      11.513  11.138  21.369  0.00  0.00    -0.194 NA
ATOM      8  N   UNL     1      10.890  10.949  23.562  0.00  0.00    -0.061 NA
ATOM     14  C   UNL     1      11.335   9.880  21.685  0.00  0.00    +0.245 A 
ATOM     17  C   UNL     1      11.228  11.755  22.551  0.00  0.00    +0.176 A 
BRANCH  17  19
ATOM     19  C   UNL     1      11.289  13.212  22.707  0.00  0.00    +0.116 C 
BRANCH  19  23
ATOM      1 CL   UNL     1      14.282  13.185  23.502  0.00  0.00    -0.083 Cl
ATOM      2  F   UNL     1      12.596  15.008  27.907  0.00  0.00    -0.205 F 
ATOM     23  C   UNL     1      11.673  13.691  24.104  0.00  0.00    -0.021 A 
ATOM     24  C   UNL     1      13.000  13.707  24.532  0.00  0.00    +0.047 A 
ATOM     25  C   UNL     1      10.658  14.118  24.960  0.00  0.00    +0.008 A 
ATOM     27  C   UNL     1      13.311  14.152  25.817  0.00  0.00    +0.058 A 
ATOM     28  C   UNL     1      10.969  14.562  26.244  0.00  0.00    +0.039 A 
ATOM     29  C   UNL     1      12.297  14.579  26.673  0.00  0.00    +0.125 A 
ENDBRANCH  19  23
ENDBRANCH  17  19
ENDBRANCH   9  14
BRANCH  11   3
ATOM      3  O   UNL     1      10.899   5.098  21.102  0.00  0.00    -0.390 OA
ATOM     30  H   UNL     1      10.407   4.754  21.866  0.00  0.00    +0.210 HD
ENDBRANCH  11   3
BRANCH   6  13
ATOM     13  C   UNL     1      13.751   8.703  19.898  0.00  0.00    +0.124 C 
BRANCH  13  15
ATOM     15  C   UNL     1      15.125   8.915  20.475  0.00  0.00    +0.008 A 
ATOM     16  C   UNL     1      16.149   7.999  20.235  0.00  0.00    +0.124 A 
ATOM     18  C   UNL     1      15.369  10.045  21.257  0.00  0.00    +0.008 A 
ATOM     20  C   UNL     1      17.417   8.212  20.777  0.00  0.00    +0.046 A 
ATOM     21  C   UNL     1      16.636  10.257  21.800  0.00  0.00    +0.001 A 
ATOM     22  C   UNL     1      17.660   9.340  21.559  0.00  0.00    +0.004 A 
BRANCH  16   5
ATOM      5  O   UNL     1      15.929   6.891  19.473  0.00  0.00    -0.495 OA
ATOM     26  C   UNL     1      17.054   6.059  19.201  0.00  0.00    +0.277 C 
ENDBRANCH  16   5
ENDBRANCH  13  15
ENDBRANCH   6  13
TORSDOF 7
ENDMDL
MODEL 4
REMARK VINA RESULT:      -6.3     26.031     28.536
REMARK  Name = 26744586
REMARK  8 active torsions:
REMARK  status: ('A' for Active; 'I' for Inactive)
REMARK    1  A    between atoms: O_3  and  C_11
REMARK    2  A    between atoms: O_5  and  C_16
REMARK    3  A    between atoms: O_5  and  C_26
REMARK    4  A    between atoms: N_6  and  C_13
REMARK    5  A    between atoms: C_9  and  C_14
REMARK    6  A    between atoms: C_13  and  C_15
REMARK    7  A    between atoms: C_17  and  C_19
REMARK    8  A    between atoms: C_19  and  C_23
REMARK                            x       y       z     vdW  Elec       q    Type
REMARK                         _______ _______ _______ _____ _____    ______ ____
ROOT
ATOM      6  N   UNL     1      -3.244 -10.621  14.186  0.00  0.00    -0.284 NA
ATOM      9  C   UNL     1      -3.531 -11.368  15.428  0.00  0.00    +0.149 C 
ATOM     10  C   UNL     1      -2.392 -10.986  16.390  0.00  0.00    +0.061 C 
ATOM     11  C   UNL     1      -1.489 -10.060  15.585  0.00  0.00    +0.130 C 
ATOM     12  C   UNL     1      -1.796 -10.429  14.146  0.00  0.00    +0.116 C 
ENDROOT
BRANCH   9  14
ATOM      4  O   UNL     1      -4.953 -10.141  16.993  0.00  0.00    -0.336 OA
ATOM      7  N   UNL     1      -6.068 -11.549  15.654  0.00  0.00    -0.194 NA
ATOM      8  N   UNL     1      -6.305 -10.025  17.345  0.00  0.00    -0.061 NA
ATOM     14  C   UNL     1      -4.902 -11.057  15.991  0.00  0.00    +0.245 A 
ATOM     17  C   UNL     1      -6.897 -10.886  16.512  0.00  0.00    +0.176 A 
BRANCH  17  19
ATOM     19  C   UNL     1      -8.347 -11.103  16.522  0.00  0.00    +0.116 C 
BRANCH  19  23
ATOM      1 CL   UNL     1      -9.868 -10.511  19.154  0.00  0.00    -0.083 Cl
ATOM      2  F   UNL     1     -11.415  -6.357  16.721  0.00  0.00    -0.205 F 
ATOM     23  C   UNL     1      -9.184  -9.830  16.606  0.00  0.00    -0.021 A 
ATOM     24  C   UNL     1      -9.896  -9.497  17.758  0.00  0.00    +0.047 A 
ATOM     25  C   UNL     1      -9.227  -8.991  15.492  0.00  0.00    +0.008 A 
ATOM     27  C   UNL     1     -10.649  -8.324  17.796  0.00  0.00    +0.058 A 
ATOM     28  C   UNL     1      -9.980  -7.819  15.531  0.00  0.00    +0.039 A 
ATOM     29  C   UNL     1     -10.692  -7.485  16.683  0.00  0.00    +0.125 A 
ENDBRANCH  19  23
ENDBRANCH  17  19
ENDBRANCH   9  14
BRANCH  11   3
ATOM      3  O   UNL     1      -0.129 -10.279  15.906  0.00  0.00    -0.390 OA
ATOM     30  H   UNL     1       0.337  -9.434  15.790  0.00  0.00    +0.210 HD
ENDBRANCH  11   3
BRANCH   6  13
ATOM     13  C   UNL     1      -3.742 -11.286  12.988  0.00  0.00    +0.124 C 
BRANCH  13  15
ATOM     15  C   UNL     1      -4.051 -10.303  11.891  0.00  0.00    +0.008 A 
ATOM     16  C   UNL     1      -5.245  -9.581  11.895  0.00  0.00    +0.124 A 
ATOM     18  C   UNL     1      -3.129 -10.119  10.860  0.00  0.00    +0.008 A 
ATOM     20  C   UNL     1      -5.515  -8.674  10.870  0.00  0.00    +0.046 A 
ATOM     21  C   UNL     1      -3.399  -9.213   9.835  0.00  0.00    +0.001 A 
ATOM     22  C   UNL     1      -4.593  -8.490   9.840  0.00  0.00    +0.004 A 
BRANCH  16   5
ATOM      5  O   UNL     1      -6.157  -9.748  12.893  0.00  0.00    -0.495 OA
ATOM     26  C   UNL     1      -7.473 -10.137  12.509  0.00  0.00    +0.277 C 
ENDBRANCH  16   5
ENDBRANCH  13  15
ENDBRANCH   6  13
TORSDOF 7
ENDMDL
MODEL 5
REMARK VINA RESULT:      -6.3     27.159     28.936
REMARK  Name = 26744586
REMARK  8 active torsions:
REMARK  status: ('A' for Active; 'I' for Inactive)
REMARK    1  A    between atoms: O_3  and  C_11
REMARK    2  A    between atoms: O_5  and  C_16
REMARK    3  A    between atoms: O_5  and  C_26
REMARK    4  A    between atoms: N_6  and  C_13
REMARK    5  A    between atoms: C_9  and  C_14
REMARK    6  A    between atoms: C_13  and  C_15
REMARK    7  A    between atoms: C_17  and  C_19
REMARK    8  A    between atoms: C_19  and  C_23
REMARK                            x       y       z     vdW  Elec       q    Type
REMARK                         _______ _______ _______ _____ _____    ______ ____
ROOT
ATOM      6  N   UNL     1      -5.765 -10.902  16.563  0.00  0.00    -0.284 NA
ATOM      9  C   UNL     1      -4.422 -10.870  17.176  0.00  0.00    +0.149 C 
ATOM     10  C   UNL     1      -4.484 -11.905  18.315  0.00  0.00    +0.061 C 
ATOM     11  C   UNL     1      -5.913 -12.430  18.293  0.00  0.00    +0.130 C 
ATOM     12  C   UNL     1      -6.690 -11.317  17.615  0.00  0.00    +0.116 C 
ENDROOT
BRANCH   9  14
ATOM      4  O   UNL     1      -2.061 -10.798  16.544  0.00  0.00    -0.336 OA
ATOM      7  N   UNL     1      -3.395 -11.718  14.998  0.00  0.00    -0.194 NA
ATOM      8  N   UNL     1      -1.228 -11.160  15.477  0.00  0.00    -0.061 NA
ATOM     14  C   UNL     1      -3.319 -11.161  16.180  0.00  0.00    +0.245 A 
ATOM     17  C   UNL     1      -2.089 -11.696  14.605  0.00  0.00    +0.176 A 
BRANCH  17  19
ATOM     19  C   UNL     1      -1.653 -12.225  13.309  0.00  0.00    +0.116 C 
BRANCH  19  23
ATOM      1 CL   UNL     1      -3.494 -13.998  11.561  0.00  0.00    -0.083 Cl
ATOM      2  F   UNL     1      -4.125  -9.777   8.851  0.00  0.00    -0.205 F 
ATOM     23  C   UNL     1      -2.334 -11.593  12.099  0.00  0.00    -0.021 A 
ATOM     24  C   UNL     1      -3.177 -12.329  11.266  0.00  0.00    +0.047 A 
ATOM     25  C   UNL     1      -2.095 -10.244  11.833  0.00  0.00    +0.008 A 
ATOM     27  C   UNL     1      -3.781 -11.715  10.169  0.00  0.00    +0.058 A 
ATOM     28  C   UNL     1      -2.699  -9.631  10.737  0.00  0.00    +0.039 A 
ATOM     29  C   UNL     1      -3.543 -10.367   9.904  0.00  0.00    +0.125 A 
ENDBRANCH  19  23
ENDBRANCH  17  19
ENDBRANCH   9  14
BRANCH  11   3
ATOM      3  O   UNL     1      -6.380 -12.673  19.607  0.00  0.00    -0.390 OA
ATOM     30  H   UNL     1      -7.322 -12.437  19.629  0.00  0.00    +0.210 HD
ENDBRANCH  11   3
BRANCH   6  13
ATOM     13  C   UNL     1      -6.152  -9.631  15.963  0.00  0.00    +0.124 C 
BRANCH  13  15
ATOM     15  C   UNL     1      -6.721  -9.816  14.581  0.00  0.00    +0.008 A 
ATOM     16  C   UNL     1      -8.099  -9.877  14.379  0.00  0.00    +0.124 A 
ATOM     18  C   UNL     1      -5.851  -9.926  13.495  0.00  0.00    +0.008 A 
ATOM     20  C   UNL     1      -8.608 -10.049  13.091  0.00  0.00    +0.046 A 
ATOM     21  C   UNL     1      -6.360 -10.098  12.208  0.00  0.00    +0.001 A 
ATOM     22  C   UNL     1      -7.739 -10.159  12.006  0.00  0.00    +0.004 A 
BRANCH  16   5
ATOM      5  O   UNL     1      -8.963  -9.772  15.427  0.00  0.00    -0.495 OA
ATOM     26  C   UNL     1      -9.763  -8.593  15.490  0.00  0.00    +0.277 C 
ENDBRANCH  16   5
ENDBRANCH  13  15
ENDBRANCH   6  13
TORSDOF 7
ENDMDL
MODEL 6
REMARK VINA RESULT:      -6.2      4.099      6.546
REMARK  Name = 26744586
REMARK  8 active torsions:
REMARK  status: ('A' for Active; 'I' for Inactive)
REMARK    1  A    between atoms: O_3  and  C_11
REMARK    2  A    between atoms: O_5  and  C_16
REMARK    3  A    between atoms: O_5  and  C_26
REMARK    4  A    between atoms: N_6  and  C_13
REMARK    5  A    between atoms: C_9  and  C_14
REMARK    6  A    between atoms: C_13  and  C_15
REMARK    7  A    between atoms: C_17  and  C_19
REMARK    8  A    between atoms: C_19  and  C_23
REMARK                            x       y       z     vdW  Elec       q    Type
REMARK                         _______ _______ _______ _____ _____    ______ ____
ROOT
ATOM      6  N   UNL     1      13.638   8.189  19.674  0.00  0.00    -0.284 NA
ATOM      9  C   UNL     1      12.991   7.884  18.382  0.00  0.00    +0.149 C 
ATOM     10  C   UNL     1      11.483   8.051  18.647  0.00  0.00    +0.061 C 
ATOM     11  C   UNL     1      11.380   8.405  20.125  0.00  0.00    +0.130 C 
ATOM     12  C   UNL     1      12.666   7.855  20.713  0.00  0.00    +0.116 C 
ENDROOT
BRANCH   9  14
ATOM      4  O   UNL     1      13.779   8.147  16.083  0.00  0.00    -0.336 OA
ATOM      7  N   UNL     1      13.689  10.061  17.244  0.00  0.00    -0.194 NA
ATOM      8  N   UNL     1      14.216   9.154  15.211  0.00  0.00    -0.061 NA
ATOM     14  C   UNL     1      13.489   8.767  17.257  0.00  0.00    +0.245 A 
ATOM     17  C   UNL     1      14.135  10.251  15.969  0.00  0.00    +0.176 A 
BRANCH  17  19
ATOM     19  C   UNL     1      14.503  11.576  15.460  0.00  0.00    +0.116 C 
BRANCH  19  23
ATOM      1 CL   UNL     1      15.378  13.005  18.065  0.00  0.00    -0.083 Cl
ATOM      2  F   UNL     1      19.981  12.876  15.978  0.00  0.00    -0.205 F 
ATOM     23  C   UNL     1      15.974  11.940  15.629  0.00  0.00    -0.021 A 
ATOM     24  C   UNL     1      16.442  12.584  16.774  0.00  0.00    +0.047 A 
ATOM     25  C   UNL     1      16.860  11.614  14.601  0.00  0.00    +0.008 A 
ATOM     27  C   UNL     1      17.796  12.900  16.891  0.00  0.00    +0.058 A 
ATOM     28  C   UNL     1      18.212  11.930  14.719  0.00  0.00    +0.039 A 
ATOM     29  C   UNL     1      18.681  12.573  15.864  0.00  0.00    +0.125 A 
ENDBRANCH  19  23
ENDBRANCH  17  19
ENDBRANCH   9  14
BRANCH  11   3
ATOM      3  O   UNL     1      10.238   7.807  20.707  0.00  0.00    -0.390 OA
ATOM     30  H   UNL     1      10.307   6.848  20.565  0.00  0.00    +0.210 HD
ENDBRANCH  11   3
BRANCH   6  13
ATOM     13  C   UNL     1      14.903   7.490  19.862  0.00  0.00    +0.124 C 
BRANCH  13  15
ATOM     15  C   UNL     1      16.004   8.427  20.283  0.00  0.00    +0.008 A 
ATOM     16  C   UNL     1      17.204   7.933  20.793  0.00  0.00    +0.124 A 
ATOM     18  C   UNL     1      15.812   9.803  20.157  0.00  0.00    +0.008 A 
ATOM     20  C   UNL     1      18.213   8.817  21.178  0.00  0.00    +0.046 A 
ATOM     21  C   UNL     1      16.820  10.686  20.543  0.00  0.00    +0.001 A 
ATOM     22  C   UNL     1      18.022  10.192  21.053  0.00  0.00    +0.004 A 
BRANCH  16   5
ATOM      5  O   UNL     1      17.409   6.593  20.922  0.00  0.00    -0.495 OA
ATOM     26  C   UNL     1      18.530   6.040  20.237  0.00  0.00    +0.277 C 
ENDBRANCH  16   5
ENDBRANCH  13  15
ENDBRANCH   6  13
TORSDOF 7
ENDMDL
MODEL 7
REMARK VINA RESULT:      -6.2     26.198     28.841
REMARK  Name = 26744586
REMARK  8 active torsions:
REMARK  status: ('A' for Active; 'I' for Inactive)
REMARK    1  A    between atoms: O_3  and  C_11
REMARK    2  A    between atoms: O_5  and  C_16
REMARK    3  A    between atoms: O_5  and  C_26
REMARK    4  A    between atoms: N_6  and  C_13
REMARK    5  A    between atoms: C_9  and  C_14
REMARK    6  A    between atoms: C_13  and  C_15
REMARK    7  A    between atoms: C_17  and  C_19
REMARK    8  A    between atoms: C_19  and  C_23
REMARK                            x       y       z     vdW  Elec       q    Type
REMARK                         _______ _______ _______ _____ _____    ______ ____
ROOT
ATOM      6  N   UNL     1      -3.247 -10.564  14.012  0.00  0.00    -0.284 NA
ATOM      9  C   UNL     1      -3.632 -11.289  15.239  0.00  0.00    +0.149 C 
ATOM     10  C   UNL     1      -2.544 -10.930  16.268  0.00  0.00    +0.061 C 
ATOM     11  C   UNL     1      -1.567 -10.038  15.513  0.00  0.00    +0.130 C 
ATOM     12  C   UNL     1      -1.794 -10.413  14.060  0.00  0.00    +0.116 C 
ENDROOT
BRANCH   9  14
ATOM      4  O   UNL     1      -5.986 -11.879  15.540  0.00  0.00    -0.336 OA
ATOM      7  N   UNL     1      -5.455  -9.830  16.273  0.00  0.00    -0.194 NA
ATOM      8  N   UNL     1      -7.171 -11.327  16.045  0.00  0.00    -0.061 NA
ATOM     14  C   UNL     1      -5.026 -10.933  15.713  0.00  0.00    +0.245 A 
ATOM     17  C   UNL     1      -6.776 -10.118  16.457  0.00  0.00    +0.176 A 
BRANCH  17  19
ATOM     19  C   UNL     1      -7.706  -9.164  17.069  0.00  0.00    +0.116 C 
BRANCH  19  23
ATOM      1 CL   UNL     1     -10.636  -8.170  16.920  0.00  0.00    -0.083 Cl
ATOM      2  F   UNL     1     -11.424 -11.542  20.604  0.00  0.00    -0.205 F 
ATOM     23  C   UNL     1      -8.733  -9.787  18.011  0.00  0.00    -0.021 A 
ATOM     24  C   UNL     1     -10.070  -9.390  18.001  0.00  0.00    +0.047 A 
ATOM     25  C   UNL     1      -8.305 -10.775  18.897  0.00  0.00    +0.008 A 
ATOM     27  C   UNL     1     -10.979  -9.983  18.877  0.00  0.00    +0.058 A 
ATOM     28  C   UNL     1      -9.213 -11.367  19.773  0.00  0.00    +0.039 A 
ATOM     29  C   UNL     1     -10.551 -10.972  19.763  0.00  0.00    +0.125 A 
ENDBRANCH  19  23
ENDBRANCH  17  19
ENDBRANCH   9  14
BRANCH  11   3
ATOM      3  O   UNL     1      -0.236 -10.292  15.920  0.00  0.00    -0.390 OA
ATOM     30  H   UNL     1       0.082 -11.058  15.414  0.00  0.00    +0.210 HD
ENDBRANCH  11   3
BRANCH   6  13
ATOM     13  C   UNL     1      -3.688 -11.226  12.791  0.00  0.00    +0.124 C 
BRANCH  13  15
ATOM     15  C   UNL     1      -4.060 -10.236  11.720  0.00  0.00    +0.008 A 
ATOM     16  C   UNL     1      -5.275  -9.553  11.771  0.00  0.00    +0.124 A 
ATOM     18  C   UNL     1      -3.174 -10.005  10.667  0.00  0.00    +0.008 A 
ATOM     20  C   UNL     1      -5.604  -8.638  10.769  0.00  0.00    +0.046 A 
ATOM     21  C   UNL     1      -3.502  -9.091   9.666  0.00  0.00    +0.001 A 
ATOM     22  C   UNL     1      -4.718  -8.407   9.718  0.00  0.00    +0.004 A 
BRANCH  16   5
ATOM      5  O   UNL     1      -6.153  -9.766  12.791  0.00  0.00    -0.495 OA
ATOM     26  C   UNL     1      -7.347 -10.479  12.479  0.00  0.00    +0.277 C 
ENDBRANCH  16   5
ENDBRANCH  13  15
ENDBRANCH   6  13
TORSDOF 7
ENDMDL
MODEL 8
REMARK VINA RESULT:      -6.2     26.041     28.822
REMARK  Name = 26744586
REMARK  8 active torsions:
REMARK  status: ('A' for Active; 'I' for Inactive)
REMARK    1  A    between atoms: O_3  and  C_11
REMARK    2  A    between atoms: O_5  and  C_16
REMARK    3  A    between atoms: O_5  and  C_26
REMARK    4  A    between atoms: N_6  and  C_13
REMARK    5  A    between atoms: C_9  and  C_14
REMARK    6  A    between atoms: C_13  and  C_15
REMARK    7  A    between atoms: C_17  and  C_19
REMARK    8  A    between atoms: C_19  and  C_23
REMARK                            x       y       z     vdW  Elec       q    Type
REMARK                         _______ _______ _______ _____ _____    ______ ____
ROOT
ATOM      6  N   UNL     1      -4.130 -10.246  10.815  0.00  0.00    -0.284 NA
ATOM      9  C   UNL     1      -5.140  -9.394  11.475  0.00  0.00    +0.149 C 
ATOM     10  C   UNL     1      -6.132  -9.023  10.358  0.00  0.00    +0.061 C 
ATOM     11  C   UNL     1      -5.571  -9.672   9.099  0.00  0.00    +0.130 C 
ATOM     12  C   UNL     1      -4.095  -9.836   9.413  0.00  0.00    +0.116 C 
ENDROOT
BRANCH   9  14
ATOM      4  O   UNL     1      -6.214 -11.364  12.447  0.00  0.00    -0.336 OA
ATOM      7  N   UNL     1      -6.062  -9.621  13.845  0.00  0.00    -0.194 NA
ATOM      8  N   UNL     1      -6.795 -11.780  13.652  0.00  0.00    -0.061 NA
ATOM     14  C   UNL     1      -5.808 -10.083  12.646  0.00  0.00    +0.245 A 
ATOM     17  C   UNL     1      -6.668 -10.697  14.425  0.00  0.00    +0.176 A 
BRANCH  17  19
ATOM     19  C   UNL     1      -7.151 -10.670  15.809  0.00  0.00    +0.116 C 
BRANCH  19  23
ATOM      1 CL   UNL     1      -8.056 -10.954  18.758  0.00  0.00    -0.083 Cl
ATOM      2  F   UNL     1      -3.186 -12.013  19.611  0.00  0.00    -0.205 F 
ATOM     23  C   UNL     1      -6.104 -11.032  16.858  0.00  0.00    -0.021 A 
ATOM     24  C   UNL     1      -6.437 -11.177  18.205  0.00  0.00    +0.047 A 
ATOM     25  C   UNL     1      -4.785 -11.217  16.442  0.00  0.00    +0.008 A 
ATOM     27  C   UNL     1      -5.451 -11.508  19.135  0.00  0.00    +0.058 A 
ATOM     28  C   UNL     1      -3.800 -11.548  17.371  0.00  0.00    +0.039 A 
ATOM     29  C   UNL     1      -4.133 -11.693  18.718  0.00  0.00    +0.125 A 
ENDBRANCH  19  23
ENDBRANCH  17  19
ENDBRANCH   9  14
BRANCH  11   3
ATOM      3  O   UNL     1      -5.780  -8.845   7.970  0.00  0.00    -0.390 OA
ATOM     30  H   UNL     1      -6.228  -8.040   8.278  0.00  0.00    +0.210 HD
ENDBRANCH  11   3
BRANCH   6  13
ATOM     13  C   UNL     1      -2.816 -10.168  11.441  0.00  0.00    +0.124 C 
BRANCH  13  15
ATOM     15  C   UNL     1      -2.536 -11.368  12.306  0.00  0.00    +0.008 A 
ATOM     16  C   UNL     1      -1.952 -11.220  13.565  0.00  0.00    +0.124 A 
ATOM     18  C   UNL     1      -2.866 -12.639  11.836  0.00  0.00    +0.008 A 
ATOM     20  C   UNL     1      -1.700 -12.343  14.353  0.00  0.00    +0.046 A 
ATOM     21  C   UNL     1      -2.613 -13.762  12.624  0.00  0.00    +0.001 A 
ATOM     22  C   UNL     1      -2.030 -13.613  13.883  0.00  0.00    +0.004 A 
BRANCH  16   5
ATOM      5  O   UNL     1      -1.623  -9.986  14.040  0.00  0.00    -0.495 OA
ATOM     26  C   UNL     1      -1.136  -9.916  15.378  0.00  0.00    +0.277 C 
ENDBRANCH  16   5
ENDBRANCH  13  15
ENDBRANCH   6  13
TORSDOF 7
ENDMDL
MODEL 9
REMARK VINA RESULT:      -6.1     18.661     20.276
REMARK  Name = 26744586
REMARK  8 active torsions:
REMARK  status: ('A' for Active; 'I' for Inactive)
REMARK    1  A    between atoms: O_3  and  C_11
REMARK    2  A    between atoms: O_5  and  C_16
REMARK    3  A    between atoms: O_5  and  C_26
REMARK    4  A    between atoms: N_6  and  C_13
REMARK    5  A    between atoms: C_9  and  C_14
REMARK    6  A    between atoms: C_13  and  C_15
REMARK    7  A    between atoms: C_17  and  C_19
REMARK    8  A    between atoms: C_19  and  C_23
REMARK                            x       y       z     vdW  Elec       q    Type
REMARK                         _______ _______ _______ _____ _____    ______ ____
ROOT
ATOM      6  N   UNL     1      13.572   3.883  -0.588  0.00  0.00    -0.284 NA
ATOM      9  C   UNL     1      13.884   3.680   0.841  0.00  0.00    +0.149 C 
ATOM     10  C   UNL     1      15.187   4.466   1.075  0.00  0.00    +0.061 C 
ATOM     11  C   UNL     1      15.554   5.036  -0.289  0.00  0.00    +0.130 C 
ATOM     12  C   UNL     1      14.848   4.111  -1.262  0.00  0.00    +0.116 C 
ENDROOT
BRANCH   9  14
ATOM      4  O   UNL     1      11.942   3.151   2.229  0.00  0.00    -0.336 OA
ATOM      7  N   UNL     1      12.448   5.332   2.157  0.00  0.00    -0.194 NA
ATOM      8  N   UNL     1      10.994   3.798   3.033  0.00  0.00    -0.061 NA
ATOM     14  C   UNL     1      12.759   4.126   1.753  0.00  0.00    +0.245 A 
ATOM     17  C   UNL     1      11.359   5.080   2.939  0.00  0.00    +0.176 A 
BRANCH  17  19
ATOM     19  C   UNL     1      10.632   6.147   3.634  0.00  0.00    +0.116 C 
BRANCH  19  23
ATOM      1 CL   UNL     1      13.036   7.340   5.181  0.00  0.00    -0.083 Cl
ATOM      2  F   UNL     1      10.559   5.695   9.270  0.00  0.00    -0.205 F 
ATOM     23  C   UNL     1      10.641   6.040   5.156  0.00  0.00    -0.021 A 
ATOM     24  C   UNL     1      11.689   6.554   5.919  0.00  0.00    +0.047 A 
ATOM     25  C   UNL     1       9.566   5.409   5.782  0.00  0.00    +0.008 A 
ATOM     27  C   UNL     1      11.661   6.437   7.309  0.00  0.00    +0.058 A 
ATOM     28  C   UNL     1       9.539   5.292   7.171  0.00  0.00    +0.039 A 
ATOM     29  C   UNL     1      10.586   5.806   7.935  0.00  0.00    +0.125 A 
ENDBRANCH  19  23
ENDBRANCH  17  19
ENDBRANCH   9  14
BRANCH  11   3
ATOM      3  O   UNL     1      16.956   5.027  -0.477  0.00  0.00    -0.390 OA
ATOM     30  H   UNL     1      17.361   5.389   0.329  0.00  0.00    +0.210 HD
ENDBRANCH  11   3
BRANCH   6  13
ATOM     13  C   UNL     1      12.831   2.774  -1.177  0.00  0.00    +0.124 C 
BRANCH  13  15
ATOM     15  C   UNL     1      11.947   3.229  -2.307  0.00  0.00    +0.008 A 
ATOM     16  C   UNL     1      10.751   3.901  -2.051  0.00  0.00    +0.124 A 
ATOM     18  C   UNL     1      12.334   2.970  -3.622  0.00  0.00    +0.008 A 
ATOM     20  C   UNL     1       9.944   4.314  -3.110  0.00  0.00    +0.046 A 
ATOM     21  C   UNL     1      11.526   3.384  -4.682  0.00  0.00    +0.001 A 
ATOM     22  C   UNL     1      10.331   4.057  -4.425  0.00  0.00    +0.004 A 
BRANCH  16   5
ATOM      5  O   UNL     1      10.358   4.161  -0.773  0.00  0.00    -0.495 OA
ATOM     26  C   UNL     1       9.925   5.489  -0.487  0.00  0.00    +0.277 C 
ENDBRANCH  16   5
ENDBRANCH  13  15
ENDBRANCH   6  13
TORSDOF 7
ENDMDL
MODEL 10
REMARK VINA RESULT:      -6.0      2.909      5.439
REMARK  Name = 26744586
REMARK  8 active torsions:
REMARK  status: ('A' for Active; 'I' for Inactive)
REMARK    1  A    between atoms: O_3  and  C_11
REMARK    2  A    between atoms: O_5  and  C_16
REMARK    3  A    between atoms: O_5  and  C_26
REMARK    4  A    between atoms: N_6  and  C_13
REMARK    5  A    between atoms: C_9  and  C_14
REMARK    6  A    between atoms: C_13  and  C_15
REMARK    7  A    between atoms: C_17  and  C_19
REMARK    8  A    between atoms: C_19  and  C_23
REMARK                            x       y       z     vdW  Elec       q    Type
REMARK                         _______ _______ _______ _____ _____    ______ ____
ROOT
ATOM      6  N   UNL     1      18.277   9.993  21.300  0.00  0.00    -0.284 NA
ATOM      9  C   UNL     1      17.648  10.954  22.228  0.00  0.00    +0.149 C 
ATOM     10  C   UNL     1      18.258  12.318  21.857  0.00  0.00    +0.061 C 
ATOM     11  C   UNL     1      19.253  12.015  20.743  0.00  0.00    +0.130 C 
ATOM     12  C   UNL     1      19.583  10.548  20.951  0.00  0.00    +0.116 C 
ENDROOT
BRANCH   9  14
ATOM      4  O   UNL     1      15.461  11.348  23.248  0.00  0.00    -0.336 OA
ATOM      7  N   UNL     1      15.365  10.601  21.139  0.00  0.00    -0.194 NA
ATOM      8  N   UNL     1      14.100  11.254  22.930  0.00  0.00    -0.061 NA
ATOM     14  C   UNL     1      16.136  10.946  22.140  0.00  0.00    +0.245 A 
ATOM     17  C   UNL     1      14.126  10.806  21.671  0.00  0.00    +0.176 A 
BRANCH  17  19
ATOM     19  C   UNL     1      12.898  10.552  20.912  0.00  0.00    +0.116 C 
BRANCH  19  23
ATOM      1 CL   UNL     1      10.631  10.192  22.991  0.00  0.00    -0.083 Cl
ATOM      2  F   UNL     1      10.770   5.351  21.540  0.00  0.00    -0.205 F 
ATOM     23  C   UNL     1      12.303   9.160  21.104  0.00  0.00    -0.021 A 
ATOM     24  C   UNL     1      11.280   8.922  22.022  0.00  0.00    +0.047 A 
ATOM     25  C   UNL     1      12.809   8.112  20.335  0.00  0.00    +0.008 A 
ATOM     27  C   UNL     1      10.763   7.634  22.169  0.00  0.00    +0.058 A 
ATOM     28  C   UNL     1      12.292   6.826  20.482  0.00  0.00    +0.039 A 
ATOM     29  C   UNL     1      11.268   6.587  21.399  0.00  0.00    +0.125 A 
ENDBRANCH  19  23
ENDBRANCH  17  19
ENDBRANCH   9  14
BRANCH  11   3
ATOM      3  O   UNL     1      20.400  12.834  20.857  0.00  0.00    -0.390 OA
ATOM     30  H   UNL     1      21.092  12.307  21.290  0.00  0.00    +0.210 HD
ENDBRANCH  11   3
BRANCH   6  13
ATOM     13  C   UNL     1      18.383   8.648  21.852  0.00  0.00    +0.124 C 
BRANCH  13  15
ATOM     15  C   UNL     1      17.937   7.601  20.866  0.00  0.00    +0.008 A 
ATOM     16  C   UNL     1      18.808   6.595  20.449  0.00  0.00    +0.124 A 
ATOM     18  C   UNL     1      16.634   7.647  20.367  0.00  0.00    +0.008 A 
ATOM     20  C   UNL     1      18.377   5.634  19.534  0.00  0.00    +0.046 A 
ATOM     21  C   UNL     1      16.203   6.686  19.452  0.00  0.00    +0.001 A 
ATOM     22  C   UNL     1      17.076   5.679  19.036  0.00  0.00    +0.004 A 
BRANCH  16   5
ATOM      5  O   UNL     1      20.083   6.536  20.925  0.00  0.00    -0.495 OA
ATOM     26  C   UNL     1      20.804   5.328  20.696  0.00  0.00    +0.277 C 
ENDBRANCH  16   5
ENDBRANCH  13  15
ENDBRANCH   6  13
TORSDOF 7
ENDMDL
