MODEL 1
REMARK VINA RESULT:      -6.3      0.000      0.000
REMARK  Name = 38030122
REMARK  11 active torsions:
REMARK  status: ('A' for Active; 'I' for Inactive)
REMARK    1  A    between atoms: O_1  and  C_14
REMARK    2  A    between atoms: O_3  and  C_24
REMARK    3  A    between atoms: O_3  and  C_29
REMARK    4  A    between atoms: N_5  and  C_23
REMARK    5  A    between atoms: C_6  and  C_10
REMARK    6  A    between atoms: C_8  and  C_14
REMARK    7  A    between atoms: C_9  and  C_13
REMARK    8  A    between atoms: C_10  and  C_15
REMARK    9  A    between atoms: C_10  and  C_16
REMARK   10  A    between atoms: C_11  and  C_17
REMARK   11  A    between atoms: C_13  and  C_18
REMARK                            x       y       z     vdW  Elec       q    Type
REMARK                         _______ _______ _______ _____ _____    ______ ____
ROOT
ATOM      2  O   UNL     1      17.965   5.530  19.005  0.00  0.00    -0.276 OA
ATOM      4  N   UNL     1      16.719   7.084  20.198  0.00  0.00    -0.298 N 
ATOM      5  N   UNL     1      14.077   7.698  20.979  0.00  0.00    -0.324 N 
ATOM     18  C   UNL     1      17.809   6.239  20.001  0.00  0.00    +0.216 C 
ATOM     19  C   UNL     1      16.497   7.939  21.365  0.00  0.00    +0.126 C 
ATOM     20  C   UNL     1      15.678   7.191  19.178  0.00  0.00    +0.126 C 
ATOM     21  C   UNL     1      15.136   7.650  21.996  0.00  0.00    +0.124 C 
ATOM     22  C   UNL     1      14.305   6.886  19.773  0.00  0.00    +0.124 C 
ENDROOT
BRANCH   5  23
ATOM     23  C   UNL     1      12.753   7.924  21.370  0.00  0.00    +0.072 A 
ATOM     24  C   UNL     1      12.290   9.222  21.590  0.00  0.00    +0.141 A 
ATOM     25  C   UNL     1      11.893   6.840  21.539  0.00  0.00    +0.027 A 
ATOM     26  C   UNL     1      10.968   9.434  21.980  0.00  0.00    +0.047 A 
ATOM     27  C   UNL     1      10.571   7.052  21.928  0.00  0.00    +0.002 A 
ATOM     28  C   UNL     1      10.108   8.348  22.149  0.00  0.00    +0.004 A 
BRANCH  24   3
ATOM      3  O   UNL     1      13.114  10.295  21.431  0.00  0.00    -0.493 OA
ATOM     29  C   UNL     1      12.813  11.190  20.362  0.00  0.00    +0.277 C 
ENDBRANCH  24   3
ENDBRANCH   5  23
BRANCH  18  13
ATOM     13  C   UNL     1      18.845   6.213  21.096  0.00  0.00    +0.103 C 
BRANCH  13   9
ATOM      6  C   UNL     1      21.867   5.384  21.823  0.00  0.00    +0.001 C 
ATOM      7  C   UNL     1      21.256   5.751  20.462  0.00  0.00    +0.012 C 
ATOM      8  C   UNL     1      22.480   6.637  22.497  0.00  0.00    +0.040 C 
ATOM      9  C   UNL     1      20.156   6.823  20.588  0.00  0.00    +0.023 C 
ATOM     11  C   UNL     1      20.594   7.977  21.468  0.00  0.00    -0.073 C 
ATOM     12  C   UNL     1      21.642   7.880  22.304  0.00  0.00    -0.022 C 
ATOM     17  C   UNL     1      19.826   9.262  21.330  0.00  0.00    +0.039 C 
BRANCH   6  10
ATOM     10  C   UNL     1      22.906   4.272  21.641  0.00  0.00    -0.013 C 
ATOM     15  C   UNL     1      22.230   2.982  21.188  0.00  0.00    +0.007 C 
ATOM     16  C   UNL     1      23.976   4.701  20.643  0.00  0.00    +0.007 C 
ENDBRANCH   6  10
BRANCH   8  14
ATOM     14  C   UNL     1      22.710   6.404  23.994  0.00  0.00    +0.163 C 
BRANCH  14   1
ATOM      1  O   UNL     1      21.537   5.833  24.539  0.00  0.00    -0.394 OA
ATOM     30  H   UNL     1      20.839   6.507  24.490  0.00  0.00    +0.209 HD
ENDBRANCH  14   1
ENDBRANCH   8  14
ENDBRANCH  13   9
ENDBRANCH  18  13
TORSDOF 7
ENDMDL
MODEL 2
REMARK VINA RESULT:      -6.2     26.643     31.380
REMARK  Name = 38030122
REMARK  11 active torsions:
REMARK  status: ('A' for Active; 'I' for Inactive)
REMARK    1  A    between atoms: O_1  and  C_14
REMARK    2  A    between atoms: O_3  and  C_24
REMARK    3  A    between atoms: O_3  and  C_29
REMARK    4  A    between atoms: N_5  and  C_23
REMARK    5  A    between atoms: C_6  and  C_10
REMARK    6  A    between atoms: C_8  and  C_14
REMARK    7  A    between atoms: C_9  and  C_13
REMARK    8  A    between atoms: C_10  and  C_15
REMARK    9  A    between atoms: C_10  and  C_16
REMARK   10  A    between atoms: C_11  and  C_17
REMARK   11  A    between atoms: C_13  and  C_18
REMARK                            x       y       z     vdW  Elec       q    Type
REMARK                         _______ _______ _______ _____ _____    ______ ____
ROOT
ATOM      2  O   UNL     1      -7.389 -13.379  17.831  0.00  0.00    -0.276 OA
ATOM      4  N   UNL     1      -5.921 -11.770  17.027  0.00  0.00    -0.298 N 
ATOM      5  N   UNL     1      -4.493 -11.009  14.715  0.00  0.00    -0.324 N 
ATOM     18  C   UNL     1      -7.046 -12.199  17.728  0.00  0.00    +0.216 C 
ATOM     19  C   UNL     1      -5.481 -10.381  16.881  0.00  0.00    +0.126 C 
ATOM     20  C   UNL     1      -5.045 -12.741  16.376  0.00  0.00    +0.126 C 
ATOM     21  C   UNL     1      -5.326 -10.016  15.406  0.00  0.00    +0.124 C 
ATOM     22  C   UNL     1      -4.887 -12.416  14.892  0.00  0.00    +0.124 C 
ENDROOT
BRANCH   5  23
ATOM     23  C   UNL     1      -3.845 -10.660  13.524  0.00  0.00    +0.072 A 
ATOM     24  C   UNL     1      -2.452 -10.664  13.448  0.00  0.00    +0.141 A 
ATOM     25  C   UNL     1      -4.604 -10.307  12.410  0.00  0.00    +0.027 A 
ATOM     26  C   UNL     1      -1.818 -10.315  12.255  0.00  0.00    +0.047 A 
ATOM     27  C   UNL     1      -3.971  -9.957  11.217  0.00  0.00    +0.002 A 
ATOM     28  C   UNL     1      -2.578  -9.961  11.139  0.00  0.00    +0.004 A 
BRANCH  24   3
ATOM      3  O   UNL     1      -1.692 -11.006  14.525  0.00  0.00    -0.493 OA
ATOM     29  C   UNL     1      -1.114  -9.938  15.274  0.00  0.00    +0.277 C 
ENDBRANCH  24   3
ENDBRANCH   5  23
BRANCH  18  13
ATOM     13  C   UNL     1      -7.877 -11.128  18.388  0.00  0.00    +0.103 C 
BRANCH  13   9
ATOM      6  C   UNL     1      -9.218  -9.736  15.817  0.00  0.00    +0.001 C 
ATOM      7  C   UNL     1      -9.394 -11.163  16.358  0.00  0.00    +0.012 C 
ATOM      8  C   UNL     1     -10.314  -8.802  16.388  0.00  0.00    +0.040 C 
ATOM      9  C   UNL     1      -9.326 -11.215  17.896  0.00  0.00    +0.023 C 
ATOM     11  C   UNL     1     -10.180 -10.139  18.534  0.00  0.00    -0.073 C 
ATOM     12  C   UNL     1     -10.625  -9.076  17.842  0.00  0.00    -0.022 C 
ATOM     17  C   UNL     1     -10.553 -10.337  19.977  0.00  0.00    +0.039 C 
BRANCH   6  10
ATOM     10  C   UNL     1      -9.232  -9.757  14.285  0.00  0.00    -0.013 C 
ATOM     15  C   UNL     1      -8.336 -10.874  13.760  0.00  0.00    +0.007 C 
ATOM     16  C   UNL     1     -10.658  -9.920  13.767  0.00  0.00    +0.007 C 
ENDBRANCH   6  10
BRANCH   8  14
ATOM     14  C   UNL     1      -9.930  -7.328  16.217  0.00  0.00    +0.163 C 
BRANCH  14   1
ATOM      1  O   UNL     1     -10.834  -6.544  16.969  0.00  0.00    -0.394 OA
ATOM     30  H   UNL     1     -10.308  -6.029  17.604  0.00  0.00    +0.209 HD
ENDBRANCH  14   1
ENDBRANCH   8  14
ENDBRANCH  13   9
ENDBRANCH  18  13
TORSDOF 7
ENDMDL
MODEL 3
REMARK VINA RESULT:      -6.1     27.975     30.866
REMARK  Name = 38030122
REMARK  11 active torsions:
REMARK  status: ('A' for Active; 'I' for Inactive)
REMARK    1  A    between atoms: O_1  and  C_14
REMARK    2  A    between atoms: O_3  and  C_24
REMARK    3  A    between atoms: O_3  and  C_29
REMARK    4  A    between atoms: N_5  and  C_23
REMARK    5  A    between atoms: C_6  and  C_10
REMARK    6  A    between atoms: C_8  and  C_14
REMARK    7  A    between atoms: C_9  and  C_13
REMARK    8  A    between atoms: C_10  and  C_15
REMARK    9  A    between atoms: C_10  and  C_16
REMARK   10  A    between atoms: C_11  and  C_17
REMARK   11  A    between atoms: C_13  and  C_18
REMARK                            x       y       z     vdW  Elec       q    Type
REMARK                         _______ _______ _______ _____ _____    ______ ____
ROOT
ATOM      2  O   UNL     1      -1.891 -11.046  16.125  0.00  0.00    -0.276 OA
ATOM      4  N   UNL     1      -3.288 -10.619  14.320  0.00  0.00    -0.298 N 
ATOM      5  N   UNL     1      -3.885 -11.497  11.705  0.00  0.00    -0.324 N 
ATOM     18  C   UNL     1      -3.011 -10.795  15.675  0.00  0.00    +0.216 C 
ATOM     19  C   UNL     1      -4.601 -10.321  13.747  0.00  0.00    +0.126 C 
ATOM     20  C   UNL     1      -2.215 -10.706  13.333  0.00  0.00    +0.126 C 
ATOM     21  C   UNL     1      -4.973 -11.351  12.682  0.00  0.00    +0.124 C 
ATOM     22  C   UNL     1      -2.546 -11.746  12.264  0.00  0.00    +0.124 C 
ENDROOT
BRANCH   5  23
ATOM     23  C   UNL     1      -4.163 -12.006  10.432  0.00  0.00    +0.072 A 
ATOM     24  C   UNL     1      -4.669 -11.176   9.431  0.00  0.00    +0.141 A 
ATOM     25  C   UNL     1      -3.928 -13.355  10.167  0.00  0.00    +0.027 A 
ATOM     26  C   UNL     1      -4.941 -11.696   8.166  0.00  0.00    +0.047 A 
ATOM     27  C   UNL     1      -4.201 -13.875   8.902  0.00  0.00    +0.002 A 
ATOM     28  C   UNL     1      -4.707 -13.046   7.901  0.00  0.00    +0.004 A 
BRANCH  24   3
ATOM      3  O   UNL     1      -4.905  -9.856   9.669  0.00  0.00    -0.493 OA
ATOM     29  C   UNL     1      -3.945  -8.926   9.170  0.00  0.00    +0.277 C 
ENDBRANCH  24   3
ENDBRANCH   5  23
BRANCH  18  13
ATOM     13  C   UNL     1      -4.176 -10.663  16.622  0.00  0.00    +0.103 C 
BRANCH  13   9
ATOM      6  C   UNL     1      -7.168 -11.823  16.856  0.00  0.00    +0.001 C 
ATOM      7  C   UNL     1      -5.897 -12.500  16.321  0.00  0.00    +0.012 C 
ATOM      8  C   UNL     1      -7.360 -12.145  18.359  0.00  0.00    +0.040 C 
ATOM      9  C   UNL     1      -4.634 -12.053  17.081  0.00  0.00    +0.023 C 
ATOM     11  C   UNL     1      -4.839 -12.087  18.582  0.00  0.00    -0.073 C 
ATOM     12  C   UNL     1      -6.063 -12.143  19.134  0.00  0.00    -0.022 C 
ATOM     17  C   UNL     1      -3.601 -12.105  19.434  0.00  0.00    +0.039 C 
BRANCH   6  10
ATOM     10  C   UNL     1      -8.377 -12.258  16.022  0.00  0.00    -0.013 C 
ATOM     15  C   UNL     1      -8.127 -11.988  14.542  0.00  0.00    +0.007 C 
ATOM     16  C   UNL     1      -8.684 -13.733  16.258  0.00  0.00    +0.007 C 
ENDBRANCH   6  10
BRANCH   8  14
ATOM     14  C   UNL     1      -8.348 -11.172  19.011  0.00  0.00    +0.163 C 
BRANCH  14   1
ATOM      1  O   UNL     1      -7.695 -10.537  20.092  0.00  0.00    -0.394 OA
ATOM     30  H   UNL     1      -7.054 -11.171  20.455  0.00  0.00    +0.209 HD
ENDBRANCH  14   1
ENDBRANCH   8  14
ENDBRANCH  13   9
ENDBRANCH  18  13
TORSDOF 7
ENDMDL
MODEL 4
REMARK VINA RESULT:      -5.9     27.120     30.619
REMARK  Name = 38030122
REMARK  11 active torsions:
REMARK  status: ('A' for Active; 'I' for Inactive)
REMARK    1  A    between atoms: O_1  and  C_14
REMARK    2  A    between atoms: O_3  and  C_24
REMARK    3  A    between atoms: O_3  and  C_29
REMARK    4  A    between atoms: N_5  and  C_23
REMARK    5  A    between atoms: C_6  and  C_10
REMARK    6  A    between atoms: C_8  and  C_14
REMARK    7  A    between atoms: C_9  and  C_13
REMARK    8  A    between atoms: C_10  and  C_15
REMARK    9  A    between atoms: C_10  and  C_16
REMARK   10  A    between atoms: C_11  and  C_17
REMARK   11  A    between atoms: C_13  and  C_18
REMARK                            x       y       z     vdW  Elec       q    Type
REMARK                         _______ _______ _______ _____ _____    ______ ____
ROOT
ATOM      2  O   UNL     1      -3.724 -11.604  18.499  0.00  0.00    -0.276 OA
ATOM      4  N   UNL     1      -5.888 -12.124  17.837  0.00  0.00    -0.298 N 
ATOM      5  N   UNL     1      -8.575 -11.331  18.174  0.00  0.00    -0.324 N 
ATOM     18  C   UNL     1      -4.529 -11.907  17.616  0.00  0.00    +0.216 C 
ATOM     19  C   UNL     1      -6.874 -12.483  16.817  0.00  0.00    +0.126 C 
ATOM     20  C   UNL     1      -6.439 -12.022  19.185  0.00  0.00    +0.126 C 
ATOM     21  C   UNL     1      -8.037 -11.492  16.817  0.00  0.00    +0.124 C 
ATOM     22  C   UNL     1      -7.592 -11.021  19.224  0.00  0.00    +0.124 C 
ENDROOT
BRANCH   5  23
ATOM     23  C   UNL     1      -9.882 -10.862  18.349  0.00  0.00    +0.072 A 
ATOM     24  C   UNL     1     -10.228  -9.567  17.963  0.00  0.00    +0.141 A 
ATOM     25  C   UNL     1     -10.842 -11.702  18.912  0.00  0.00    +0.027 A 
ATOM     26  C   UNL     1     -11.535  -9.112  18.142  0.00  0.00    +0.047 A 
ATOM     27  C   UNL     1     -12.148 -11.247  19.092  0.00  0.00    +0.002 A 
ATOM     28  C   UNL     1     -12.495  -9.952  18.707  0.00  0.00    +0.004 A 
BRANCH  24   3
ATOM      3  O   UNL     1      -9.306  -8.730  17.410  0.00  0.00    -0.493 OA
ATOM     29  C   UNL     1      -9.796  -7.702  16.551  0.00  0.00    +0.277 C 
ENDBRANCH  24   3
ENDBRANCH   5  23
BRANCH  18  13
ATOM     13  C   UNL     1      -4.046 -12.057  16.196  0.00  0.00    +0.103 C 
BRANCH  13   9
ATOM      6  C   UNL     1      -4.720 -11.041  13.219  0.00  0.00    +0.001 C 
ATOM      7  C   UNL     1      -4.915 -10.323  14.563  0.00  0.00    +0.012 C 
ATOM      8  C   UNL     1      -3.350 -10.667  12.599  0.00  0.00    +0.040 C 
ATOM      9  C   UNL     1      -3.809 -10.675  15.577  0.00  0.00    +0.023 C 
ATOM     11  C   UNL     1      -2.429 -10.589  14.956  0.00  0.00    -0.073 C 
ATOM     12  C   UNL     1      -2.244 -10.572  13.625  0.00  0.00    -0.022 C 
ATOM     17  C   UNL     1      -1.267 -10.474  15.903  0.00  0.00    +0.039 C 
BRANCH   6  10
ATOM     10  C   UNL     1      -5.881 -10.703  12.278  0.00  0.00    -0.013 C 
ATOM     15  C   UNL     1      -7.215 -11.034  12.939  0.00  0.00    +0.007 C 
ATOM     16  C   UNL     1      -5.828  -9.233  11.874  0.00  0.00    +0.007 C 
ENDBRANCH   6  10
BRANCH   8  14
ATOM     14  C   UNL     1      -2.948 -11.662  11.505  0.00  0.00    +0.163 C 
BRANCH  14   1
ATOM      1  O   UNL     1      -2.282 -12.748  12.116  0.00  0.00    -0.394 OA
ATOM     30  H   UNL     1      -2.158 -12.520  13.053  0.00  0.00    +0.209 HD
ENDBRANCH  14   1
ENDBRANCH   8  14
ENDBRANCH  13   9
ENDBRANCH  18  13
TORSDOF 7
ENDMDL
MODEL 5
REMARK VINA RESULT:      -5.9     18.147     20.755
REMARK  Name = 38030122
REMARK  11 active torsions:
REMARK  status: ('A' for Active; 'I' for Inactive)
REMARK    1  A    between atoms: O_1  and  C_14
REMARK    2  A    between atoms: O_3  and  C_24
REMARK    3  A    between atoms: O_3  and  C_29
REMARK    4  A    between atoms: N_5  and  C_23
REMARK    5  A    between atoms: C_6  and  C_10
REMARK    6  A    between atoms: C_8  and  C_14
REMARK    7  A    between atoms: C_9  and  C_13
REMARK    8  A    between atoms: C_10  and  C_15
REMARK    9  A    between atoms: C_10  and  C_16
REMARK   10  A    between atoms: C_11  and  C_17
REMARK   11  A    between atoms: C_13  and  C_18
REMARK                            x       y       z     vdW  Elec       q    Type
REMARK                         _______ _______ _______ _____ _____    ______ ____
ROOT
ATOM      2  O   UNL     1       8.624   8.122   0.413  0.00  0.00    -0.276 OA
ATOM      4  N   UNL     1       9.940   7.678   2.274  0.00  0.00    -0.298 N 
ATOM      5  N   UNL     1       9.793   6.797   4.951  0.00  0.00    -0.324 N 
ATOM     18  C   UNL     1       9.638   7.631   0.914  0.00  0.00    +0.216 C 
ATOM     19  C   UNL     1      11.131   7.107   2.906  0.00  0.00    +0.126 C 
ATOM     20  C   UNL     1       9.045   8.362   3.203  0.00  0.00    +0.126 C 
ATOM     21  C   UNL     1      10.738   6.150   4.031  0.00  0.00    +0.124 C 
ATOM     22  C   UNL     1       8.615   7.423   4.329  0.00  0.00    +0.124 C 
ENDROOT
BRANCH   5  23
ATOM     23  C   UNL     1       9.659   6.313   6.257  0.00  0.00    +0.072 A 
ATOM     24  C   UNL     1       9.290   7.169   7.296  0.00  0.00    +0.141 A 
ATOM     25  C   UNL     1       9.897   4.964   6.516  0.00  0.00    +0.027 A 
ATOM     26  C   UNL     1       9.160   6.674   8.593  0.00  0.00    +0.047 A 
ATOM     27  C   UNL     1       9.766   4.470   7.814  0.00  0.00    +0.002 A 
ATOM     28  C   UNL     1       9.398   5.324   8.852  0.00  0.00    +0.004 A 
BRANCH  24   3
ATOM      3  O   UNL     1       9.054   8.490   7.064  0.00  0.00    -0.493 OA
ATOM     29  C   UNL     1       9.444   9.407   8.085  0.00  0.00    +0.277 C 
ENDBRANCH  24   3
ENDBRANCH   5  23
BRANCH  18  13
ATOM     13  C   UNL     1      10.633   6.925   0.028  0.00  0.00    +0.103 C 
BRANCH  13   9
ATOM      6  C   UNL     1      12.433   4.263  -0.121  0.00  0.00    +0.001 C 
ATOM      7  C   UNL     1      11.079   4.489   0.570  0.00  0.00    +0.012 C 
ATOM      8  C   UNL     1      12.223   3.713  -1.554  0.00  0.00    +0.040 C 
ATOM      9  C   UNL     1      10.187   5.477  -0.206  0.00  0.00    +0.023 C 
ATOM     11  C   UNL     1      10.146   5.155  -1.686  0.00  0.00    -0.073 C 
ATOM     12  C   UNL     1      11.055   4.354  -2.268  0.00  0.00    -0.022 C 
ATOM     17  C   UNL     1       9.007   5.738  -2.474  0.00  0.00    +0.039 C 
BRANCH   6  10
ATOM     10  C   UNL     1      13.298   3.325   0.727  0.00  0.00    -0.013 C 
ATOM     15  C   UNL     1      14.648   3.969   1.024  0.00  0.00    +0.007 C 
ATOM     16  C   UNL     1      12.577   2.960   2.021  0.00  0.00    +0.007 C 
ENDBRANCH   6  10
BRANCH   8  14
ATOM     14  C   UNL     1      13.490   3.874  -2.400  0.00  0.00    +0.163 C 
BRANCH  14   1
ATOM      1  O   UNL     1      13.230   3.360  -3.691  0.00  0.00    -0.394 OA
ATOM     30  H   UNL     1      13.970   2.773  -3.921  0.00  0.00    +0.209 HD
ENDBRANCH  14   1
ENDBRANCH   8  14
ENDBRANCH  13   9
ENDBRANCH  18  13
TORSDOF 7
ENDMDL
MODEL 6
REMARK VINA RESULT:      -5.8      5.545      9.152
REMARK  Name = 38030122
REMARK  11 active torsions:
REMARK  status: ('A' for Active; 'I' for Inactive)
REMARK    1  A    between atoms: O_1  and  C_14
REMARK    2  A    between atoms: O_3  and  C_24
REMARK    3  A    between atoms: O_3  and  C_29
REMARK    4  A    between atoms: N_5  and  C_23
REMARK    5  A    between atoms: C_6  and  C_10
REMARK    6  A    between atoms: C_8  and  C_14
REMARK    7  A    between atoms: C_9  and  C_13
REMARK    8  A    between atoms: C_10  and  C_15
REMARK    9  A    between atoms: C_10  and  C_16
REMARK   10  A    between atoms: C_11  and  C_17
REMARK   11  A    between atoms: C_13  and  C_18
REMARK                            x       y       z     vdW  Elec       q    Type
REMARK                         _______ _______ _______ _____ _____    ______ ____
ROOT
ATOM      2  O   UNL     1      14.057  12.627  19.217  0.00  0.00    -0.276 OA
ATOM      4  N   UNL     1      14.102  11.937  17.001  0.00  0.00    -0.298 N 
ATOM      5  N   UNL     1      15.649  12.098  14.646  0.00  0.00    -0.324 N 
ATOM     18  C   UNL     1      13.905  11.747  18.367  0.00  0.00    +0.216 C 
ATOM     19  C   UNL     1      13.933  10.920  15.962  0.00  0.00    +0.126 C 
ATOM     20  C   UNL     1      14.491  13.249  16.489  0.00  0.00    +0.126 C 
ATOM     21  C   UNL     1      15.206  10.783  15.128  0.00  0.00    +0.124 C 
ATOM     22  C   UNL     1      15.775  13.150  15.668  0.00  0.00    +0.124 C 
ENDROOT
BRANCH   5  23
ATOM     23  C   UNL     1      16.482  12.179  13.524  0.00  0.00    +0.072 A 
ATOM     24  C   UNL     1      15.948  12.097  12.237  0.00  0.00    +0.141 A 
ATOM     25  C   UNL     1      17.855  12.342  13.700  0.00  0.00    +0.027 A 
ATOM     26  C   UNL     1      16.788  12.179  11.127  0.00  0.00    +0.047 A 
ATOM     27  C   UNL     1      18.696  12.424  12.590  0.00  0.00    +0.002 A 
ATOM     28  C   UNL     1      18.163  12.342  11.304  0.00  0.00    +0.004 A 
BRANCH  24   3
ATOM      3  O   UNL     1      14.609  11.936  12.044  0.00  0.00    -0.493 OA
ATOM     29  C   UNL     1      13.954  12.898  11.218  0.00  0.00    +0.277 C 
ENDBRANCH  24   3
ENDBRANCH   5  23
BRANCH  18  13
ATOM     13  C   UNL     1      13.481  10.367  18.800  0.00  0.00    +0.103 C 
BRANCH  13   9
ATOM      6  C   UNL     1      14.194   7.622  20.319  0.00  0.00    +0.001 C 
ATOM      7  C   UNL     1      14.853   9.004  20.439  0.00  0.00    +0.012 C 
ATOM      8  C   UNL     1      13.089   7.455  21.392  0.00  0.00    +0.040 C 
ATOM      9  C   UNL     1      13.837  10.151  20.275  0.00  0.00    +0.023 C 
ATOM     11  C   UNL     1      12.591   9.921  21.105  0.00  0.00    -0.073 C 
ATOM     12  C   UNL     1      12.280   8.713  21.608  0.00  0.00    -0.022 C 
ATOM     17  C   UNL     1      11.733  11.123  21.386  0.00  0.00    +0.039 C 
BRANCH   6  10
ATOM     10  C   UNL     1      15.260   6.527  20.426  0.00  0.00    -0.013 C 
ATOM     15  C   UNL     1      16.000   6.374  19.101  0.00  0.00    +0.007 C 
ATOM     16  C   UNL     1      16.235   6.843  21.556  0.00  0.00    +0.007 C 
ENDBRANCH   6  10
BRANCH   8  14
ATOM     14  C   UNL     1      12.148   6.297  21.042  0.00  0.00    +0.163 C 
BRANCH  14   1
ATOM      1  O   UNL     1      11.995   6.258  19.637  0.00  0.00    -0.394 OA
ATOM     30  H   UNL     1      11.454   7.026  19.385  0.00  0.00    +0.209 HD
ENDBRANCH  14   1
ENDBRANCH   8  14
ENDBRANCH  13   9
ENDBRANCH  18  13
TORSDOF 7
ENDMDL
MODEL 7
REMARK VINA RESULT:      -5.7     27.534     30.683
REMARK  Name = 38030122
REMARK  11 active torsions:
REMARK  status: ('A' for Active; 'I' for Inactive)
REMARK    1  A    between atoms: O_1  and  C_14
REMARK    2  A    between atoms: O_3  and  C_24
REMARK    3  A    between atoms: O_3  and  C_29
REMARK    4  A    between atoms: N_5  and  C_23
REMARK    5  A    between atoms: C_6  and  C_10
REMARK    6  A    between atoms: C_8  and  C_14
REMARK    7  A    between atoms: C_9  and  C_13
REMARK    8  A    between atoms: C_10  and  C_15
REMARK    9  A    between atoms: C_10  and  C_16
REMARK   10  A    between atoms: C_11  and  C_17
REMARK   11  A    between atoms: C_13  and  C_18
REMARK                            x       y       z     vdW  Elec       q    Type
REMARK                         _______ _______ _______ _____ _____    ______ ____
ROOT
ATOM      2  O   UNL     1      -3.515 -10.267  16.590  0.00  0.00    -0.276 OA
ATOM      4  N   UNL     1      -5.668 -11.132  16.654  0.00  0.00    -0.298 N 
ATOM      5  N   UNL     1      -8.176 -10.784  17.902  0.00  0.00    -0.324 N 
ATOM     18  C   UNL     1      -4.513 -10.698  16.008  0.00  0.00    +0.216 C 
ATOM     19  C   UNL     1      -6.872 -11.649  16.000  0.00  0.00    +0.126 C 
ATOM     20  C   UNL     1      -5.745 -11.118  18.113  0.00  0.00    +0.126 C 
ATOM     21  C   UNL     1      -8.105 -10.859  16.436  0.00  0.00    +0.124 C 
ATOM     22  C   UNL     1      -6.958 -10.316  18.582  0.00  0.00    +0.124 C 
ENDROOT
BRANCH   5  23
ATOM     23  C   UNL     1      -9.405 -10.532  18.522  0.00  0.00    +0.072 A 
ATOM     24  C   UNL     1      -9.772 -11.228  19.675  0.00  0.00    +0.141 A 
ATOM     25  C   UNL     1     -10.264  -9.578  17.980  0.00  0.00    +0.027 A 
ATOM     26  C   UNL     1     -11.000 -10.968  20.284  0.00  0.00    +0.047 A 
ATOM     27  C   UNL     1     -11.491  -9.318  18.589  0.00  0.00    +0.002 A 
ATOM     28  C   UNL     1     -11.860 -10.013  19.741  0.00  0.00    +0.004 A 
BRANCH  24   3
ATOM      3  O   UNL     1      -8.947 -12.164  20.221  0.00  0.00    -0.493 OA
ATOM     29  C   UNL     1      -9.477 -13.479  20.381  0.00  0.00    +0.277 C 
ENDBRANCH  24   3
ENDBRANCH   5  23
BRANCH  18  13
ATOM     13  C   UNL     1      -4.515 -10.772  14.502  0.00  0.00    +0.103 C 
BRANCH  13   9
ATOM      6  C   UNL     1      -3.268 -10.738  11.537  0.00  0.00    +0.001 C 
ATOM      7  C   UNL     1      -2.574 -10.524  12.891  0.00  0.00    +0.012 C 
ATOM      8  C   UNL     1      -3.184 -12.227  11.117  0.00  0.00    +0.040 C 
ATOM      9  C   UNL     1      -3.198 -11.382  14.008  0.00  0.00    +0.023 C 
ATOM     11  C   UNL     1      -3.397 -12.818  13.569  0.00  0.00    -0.073 C 
ATOM     12  C   UNL     1      -3.374 -13.180  12.275  0.00  0.00    -0.022 C 
ATOM     17  C   UNL     1      -3.577 -13.840  14.657  0.00  0.00    +0.039 C 
BRANCH   6  10
ATOM     10  C   UNL     1      -2.647  -9.815  10.484  0.00  0.00    -0.013 C 
ATOM     15  C   UNL     1      -3.683  -8.817   9.975  0.00  0.00    +0.007 C 
ATOM     16  C   UNL     1      -1.436  -9.088  11.060  0.00  0.00    +0.007 C 
ENDBRANCH   6  10
BRANCH   8  14
ATOM     14  C   UNL     1      -4.203 -12.550  10.018  0.00  0.00    +0.163 C 
BRANCH  14   1
ATOM      1  O   UNL     1      -5.458 -12.030  10.410  0.00  0.00    -0.394 OA
ATOM     30  H   UNL     1      -5.301 -11.440  11.166  0.00  0.00    +0.209 HD
ENDBRANCH  14   1
ENDBRANCH   8  14
ENDBRANCH  13   9
ENDBRANCH  18  13
TORSDOF 7
ENDMDL
MODEL 8
REMARK VINA RESULT:      -5.7     31.174     34.179
REMARK  Name = 38030122
REMARK  11 active torsions:
REMARK  status: ('A' for Active; 'I' for Inactive)
REMARK    1  A    between atoms: O_1  and  C_14
REMARK    2  A    between atoms: O_3  and  C_24
REMARK    3  A    between atoms: O_3  and  C_29
REMARK    4  A    between atoms: N_5  and  C_23
REMARK    5  A    between atoms: C_6  and  C_10
REMARK    6  A    between atoms: C_8  and  C_14
REMARK    7  A    between atoms: C_9  and  C_13
REMARK    8  A    between atoms: C_10  and  C_15
REMARK    9  A    between atoms: C_10  and  C_16
REMARK   10  A    between atoms: C_11  and  C_17
REMARK   11  A    between atoms: C_13  and  C_18
REMARK                            x       y       z     vdW  Elec       q    Type
REMARK                         _______ _______ _______ _____ _____    ______ ____
ROOT
ATOM      2  O   UNL     1     -16.017   5.568  34.546  0.00  0.00    -0.276 OA
ATOM      4  N   UNL     1     -15.123   4.252  32.855  0.00  0.00    -0.298 N 
ATOM      5  N   UNL     1     -15.709   3.198  30.303  0.00  0.00    -0.324 N 
ATOM     18  C   UNL     1     -15.070   5.254  33.821  0.00  0.00    +0.216 C 
ATOM     19  C   UNL     1     -14.023   3.851  31.975  0.00  0.00    +0.126 C 
ATOM     20  C   UNL     1     -16.347   3.477  32.665  0.00  0.00    +0.126 C 
ATOM     21  C   UNL     1     -14.449   3.925  30.510  0.00  0.00    +0.124 C 
ATOM     22  C   UNL     1     -16.812   3.549  31.212  0.00  0.00    +0.124 C 
ENDROOT
BRANCH   5  23
ATOM     23  C   UNL     1     -16.041   2.741  29.023  0.00  0.00    +0.072 A 
ATOM     24  C   UNL     1     -16.144   1.374  28.762  0.00  0.00    +0.141 A 
ATOM     25  C   UNL     1     -16.272   3.665  28.004  0.00  0.00    +0.027 A 
ATOM     26  C   UNL     1     -16.476   0.932  27.481  0.00  0.00    +0.047 A 
ATOM     27  C   UNL     1     -16.604   3.223  26.724  0.00  0.00    +0.002 A 
ATOM     28  C   UNL     1     -16.706   1.857  26.462  0.00  0.00    +0.004 A 
BRANCH  24   3
ATOM      3  O   UNL     1     -15.922   0.455  29.743  0.00  0.00    -0.493 OA
ATOM     29  C   UNL     1     -14.614  -0.107  29.820  0.00  0.00    +0.277 C 
ENDBRANCH  24   3
ENDBRANCH   5  23
BRANCH  18  13
ATOM     13  C   UNL     1     -13.758   5.984  33.962  0.00  0.00    +0.103 C 
BRANCH  13   9
ATOM      6  C   UNL     1     -13.479   8.786  32.407  0.00  0.00    +0.001 C 
ATOM      7  C   UNL     1     -14.569   8.315  33.383  0.00  0.00    +0.012 C 
ATOM      8  C   UNL     1     -12.373   9.561  33.166  0.00  0.00    +0.040 C 
ATOM      9  C   UNL     1     -14.005   7.402  34.489  0.00  0.00    +0.023 C 
ATOM     11  C   UNL     1     -12.746   7.978  35.106  0.00  0.00    -0.073 C 
ATOM     12  C   UNL     1     -12.038   8.951  34.508  0.00  0.00    -0.022 C 
ATOM     17  C   UNL     1     -12.346   7.440  36.452  0.00  0.00    +0.039 C 
BRANCH   6  10
ATOM     10  C   UNL     1     -14.109   9.636  31.298  0.00  0.00    -0.013 C 
ATOM     15  C   UNL     1     -15.389   8.981  30.790  0.00  0.00    +0.007 C 
ATOM     16  C   UNL     1     -14.387  11.048  31.802  0.00  0.00    +0.007 C 
ENDBRANCH   6  10
BRANCH   8  14
ATOM     14  C   UNL     1     -11.098   9.672  32.323  0.00  0.00    +0.163 C 
BRANCH  14   1
ATOM      1  O   UNL     1     -10.861   8.421  31.710  0.00  0.00    -0.394 OA
ATOM     30  H   UNL     1     -11.152   8.494  30.785  0.00  0.00    +0.209 HD
ENDBRANCH  14   1
ENDBRANCH   8  14
ENDBRANCH  13   9
ENDBRANCH  18  13
TORSDOF 7
ENDMDL
MODEL 9
REMARK VINA RESULT:      -5.6     26.894     30.483
REMARK  Name = 38030122
REMARK  11 active torsions:
REMARK  status: ('A' for Active; 'I' for Inactive)
REMARK    1  A    between atoms: O_1  and  C_14
REMARK    2  A    between atoms: O_3  and  C_24
REMARK    3  A    between atoms: O_3  and  C_29
REMARK    4  A    between atoms: N_5  and  C_23
REMARK    5  A    between atoms: C_6  and  C_10
REMARK    6  A    between atoms: C_8  and  C_14
REMARK    7  A    between atoms: C_9  and  C_13
REMARK    8  A    between atoms: C_10  and  C_15
REMARK    9  A    between atoms: C_10  and  C_16
REMARK   10  A    between atoms: C_11  and  C_17
REMARK   11  A    between atoms: C_13  and  C_18
REMARK                            x       y       z     vdW  Elec       q    Type
REMARK                         _______ _______ _______ _____ _____    ______ ____
ROOT
ATOM      2  O   UNL     1      -2.256 -10.798  12.100  0.00  0.00    -0.276 OA
ATOM      4  N   UNL     1      -4.092  -9.647  11.267  0.00  0.00    -0.298 N 
ATOM      5  N   UNL     1      -5.758  -9.448   8.997  0.00  0.00    -0.324 N 
ATOM     18  C   UNL     1      -3.387 -10.331  12.254  0.00  0.00    +0.216 C 
ATOM     19  C   UNL     1      -5.434  -9.080  11.411  0.00  0.00    +0.126 C 
ATOM     20  C   UNL     1      -3.490  -9.420   9.956  0.00  0.00    +0.126 C 
ATOM     21  C   UNL     1      -6.366  -9.615  10.324  0.00  0.00    +0.124 C 
ATOM     22  C   UNL     1      -4.388  -9.965   8.847  0.00  0.00    +0.124 C 
ENDROOT
BRANCH   5  23
ATOM     23  C   UNL     1      -6.574  -9.428   7.861  0.00  0.00    +0.072 A 
ATOM     24  C   UNL     1      -7.457  -8.370   7.641  0.00  0.00    +0.141 A 
ATOM     25  C   UNL     1      -6.498 -10.476   6.944  0.00  0.00    +0.027 A 
ATOM     26  C   UNL     1      -8.265  -8.362   6.504  0.00  0.00    +0.047 A 
ATOM     27  C   UNL     1      -7.306 -10.468   5.807  0.00  0.00    +0.002 A 
ATOM     28  C   UNL     1      -8.190  -9.411   5.587  0.00  0.00    +0.004 A 
BRANCH  24   3
ATOM      3  O   UNL     1      -7.547  -7.337   8.524  0.00  0.00    -0.493 OA
ATOM     29  C   UNL     1      -8.245  -6.172   8.089  0.00  0.00    +0.277 C 
ENDBRANCH  24   3
ENDBRANCH   5  23
BRANCH  18  13
ATOM     13  C   UNL     1      -4.078 -10.496  13.584  0.00  0.00    +0.103 C 
BRANCH  13   9
ATOM      6  C   UNL     1      -5.091 -12.178  16.132  0.00  0.00    +0.001 C 
ATOM      7  C   UNL     1      -4.189 -12.617  14.968  0.00  0.00    +0.012 C 
ATOM      8  C   UNL     1      -4.233 -11.671  17.318  0.00  0.00    +0.040 C 
ATOM      9  C   UNL     1      -3.289 -11.472  14.464  0.00  0.00    +0.023 C 
ATOM     11  C   UNL     1      -2.612 -10.745  15.608  0.00  0.00    -0.073 C 
ATOM     12  C   UNL     1      -3.038 -10.856  16.878  0.00  0.00    -0.022 C 
ATOM     17  C   UNL     1      -1.402  -9.921  15.264  0.00  0.00    +0.039 C 
BRANCH   6  10
ATOM     10  C   UNL     1      -6.004 -13.337  16.546  0.00  0.00    -0.013 C 
ATOM     15  C   UNL     1      -7.115 -13.530  15.520  0.00  0.00    +0.007 C 
ATOM     16  C   UNL     1      -5.195 -14.619  16.714  0.00  0.00    +0.007 C 
ENDBRANCH   6  10
BRANCH   8  14
ATOM     14  C   UNL     1      -5.077 -10.851  18.300  0.00  0.00    +0.163 C 
BRANCH  14   1
ATOM      1  O   UNL     1      -5.161 -11.566  19.517  0.00  0.00    -0.394 OA
ATOM     30  H   UNL     1      -4.433 -12.210  19.523  0.00  0.00    +0.209 HD
ENDBRANCH  14   1
ENDBRANCH   8  14
ENDBRANCH  13   9
ENDBRANCH  18  13
TORSDOF 7
ENDMDL
MODEL 10
REMARK VINA RESULT:      -5.6      2.308      8.728
REMARK  Name = 38030122
REMARK  11 active torsions:
REMARK  status: ('A' for Active; 'I' for Inactive)
REMARK    1  A    between atoms: O_1  and  C_14
REMARK    2  A    between atoms: O_3  and  C_24
REMARK    3  A    between atoms: O_3  and  C_29
REMARK    4  A    between atoms: N_5  and  C_23
REMARK    5  A    between atoms: C_6  and  C_10
REMARK    6  A    between atoms: C_8  and  C_14
REMARK    7  A    between atoms: C_9  and  C_13
REMARK    8  A    between atoms: C_10  and  C_15
REMARK    9  A    between atoms: C_10  and  C_16
REMARK   10  A    between atoms: C_11  and  C_17
REMARK   11  A    between atoms: C_13  and  C_18
REMARK                            x       y       z     vdW  Elec       q    Type
REMARK                         _______ _______ _______ _____ _____    ______ ____
ROOT
ATOM      2  O   UNL     1      16.886   5.596  18.372  0.00  0.00    -0.276 OA
ATOM      4  N   UNL     1      17.682   6.317  20.430  0.00  0.00    -0.298 N 
ATOM      5  N   UNL     1      19.878   7.606  21.645  0.00  0.00    -0.324 N 
ATOM     18  C   UNL     1      16.699   6.153  19.456  0.00  0.00    +0.216 C 
ATOM     19  C   UNL     1      17.501   6.971  21.727  0.00  0.00    +0.126 C 
ATOM     20  C   UNL     1      19.028   5.793  20.213  0.00  0.00    +0.126 C 
ATOM     21  C   UNL     1      18.519   8.095  21.912  0.00  0.00    +0.124 C 
ATOM     22  C   UNL     1      20.070   6.899  20.369  0.00  0.00    +0.124 C 
ENDROOT
BRANCH   5  23
ATOM     23  C   UNL     1      20.976   8.289  22.181  0.00  0.00    +0.072 A 
ATOM     24  C   UNL     1      21.477   7.951  23.438  0.00  0.00    +0.141 A 
ATOM     25  C   UNL     1      21.570   9.315  21.446  0.00  0.00    +0.027 A 
ATOM     26  C   UNL     1      22.572   8.639  23.961  0.00  0.00    +0.047 A 
ATOM     27  C   UNL     1      22.665  10.003  21.969  0.00  0.00    +0.002 A 
ATOM     28  C   UNL     1      23.166   9.666  23.226  0.00  0.00    +0.004 A 
BRANCH  24   3
ATOM      3  O   UNL     1      20.911   6.952  24.172  0.00  0.00    -0.493 OA
ATOM     29  C   UNL     1      21.265   6.882  25.552  0.00  0.00    +0.277 C 
ENDBRANCH  24   3
ENDBRANCH   5  23
BRANCH  18  13
ATOM     13  C   UNL     1      15.334   6.704  19.778  0.00  0.00    +0.103 C 
BRANCH  13   9
ATOM      6  C   UNL     1      13.676   9.220  20.904  0.00  0.00    +0.001 C 
ATOM      7  C   UNL     1      15.073   9.178  20.266  0.00  0.00    +0.012 C 
ATOM      8  C   UNL     1      12.598   9.509  19.829  0.00  0.00    +0.040 C 
ATOM      9  C   UNL     1      15.179   8.102  19.168  0.00  0.00    +0.023 C 
ATOM     11  C   UNL     1      14.001   8.151  18.217  0.00  0.00    -0.073 C 
ATOM     12  C   UNL     1      12.862   8.796  18.522  0.00  0.00    -0.022 C 
ATOM     17  C   UNL     1      14.180   7.480  16.883  0.00  0.00    +0.039 C 
BRANCH   6  10
ATOM     10  C   UNL     1      13.650  10.262  22.027  0.00  0.00    -0.013 C 
ATOM     15  C   UNL     1      14.911  10.155  22.880  0.00  0.00    +0.007 C 
ATOM     16  C   UNL     1      13.507  11.666  21.449  0.00  0.00    +0.007 C 
ENDBRANCH   6  10
BRANCH   8  14
ATOM     14  C   UNL     1      11.199   9.145  20.336  0.00  0.00    +0.163 C 
BRANCH  14   1
ATOM      1  O   UNL     1      10.509   8.481  19.296  0.00  0.00    -0.394 OA
ATOM     30  H   UNL     1      10.917   8.756  18.458  0.00  0.00    +0.209 HD
ENDBRANCH  14   1
ENDBRANCH   8  14
ENDBRANCH  13   9
ENDBRANCH  18  13
TORSDOF 7
ENDMDL
