MODEL 1
REMARK VINA RESULT:      -7.1      0.000      0.000
REMARK  Name = 75367099
REMARK  8 active torsions:
REMARK  status: ('A' for Active; 'I' for Inactive)
REMARK    1  A    between atoms: S_1  and  N_8
REMARK    2  A    between atoms: S_1  and  C_19
REMARK    3  A    between atoms: O_3  and  C_10
REMARK    4  A    between atoms: N_6  and  C_9
REMARK    5  A    between atoms: N_6  and  C_11
REMARK    6  A    between atoms: N_8  and  C_16
REMARK    7  A    between atoms: C_12  and  C_16
REMARK    8  A    between atoms: C_24  and  C_25
REMARK                            x       y       z     vdW  Elec       q    Type
REMARK                         _______ _______ _______ _____ _____    ______ ____
ROOT
ATOM      2  O   UNL     1     -16.331   1.553  25.224  0.00  0.00    -0.371 OA
ATOM      9  C   UNL     1     -17.201   2.098  27.365  0.00  0.00    +0.111 C 
ATOM     10  C   UNL     1     -16.464   3.303  26.809  0.00  0.00    +0.164 C 
ATOM     12  C   UNL     1     -16.458   2.981  25.321  0.00  0.00    +0.164 C 
ATOM     13  C   UNL     1     -16.639   0.978  26.506  0.00  0.00    +0.181 C 
ENDROOT
BRANCH  10   3
ATOM      3  O   UNL     1     -17.127   4.522  27.081  0.00  0.00    -0.388 OA
ATOM     28  H   UNL     1     -17.780   4.366  27.785  0.00  0.00    +0.210 HD
ENDBRANCH  10   3
BRANCH   9   6
ATOM      6  N   UNL     1     -16.982   1.887  28.786  0.00  0.00    -0.306 NA
ATOM     26  H   UNL     1     -17.438   1.026  29.087  0.00  0.00    +0.123 HD
BRANCH   6  11
ATOM      7  N   UNL     1     -13.397   1.556  31.053  0.00  0.00    -0.316 NA
ATOM     11  C   UNL     1     -15.554   1.820  29.087  0.00  0.00    +0.056 C 
ATOM     14  C   UNL     1     -15.152   2.969  30.017  0.00  0.00    +0.034 C 
ATOM     15  C   UNL     1     -15.190   0.474  29.723  0.00  0.00    +0.034 C 
ATOM     17  C   UNL     1     -13.684   2.849  30.428  0.00  0.00    +0.082 C 
ATOM     18  C   UNL     1     -13.720   0.451  30.146  0.00  0.00    +0.082 C 
ATOM     27  H   UNL     1     -12.407   1.513  31.296  0.00  0.00    +0.122 HD
ENDBRANCH   6  11
ENDBRANCH   9   6
BRANCH  12  16
ATOM     16  C   UNL     1     -15.323   3.650  24.566  0.00  0.00    +0.140 C 
BRANCH  16   8
ATOM      8  N   UNL     1     -15.582   3.577  23.115  0.00  0.00    -0.187 NA
ATOM     29  H   UNL     1     -14.979   2.934  22.585  0.00  0.00    +0.148 HD
BRANCH   8   1
ATOM      1  S   UNL     1     -16.253   4.911  22.301  0.00  0.00    +0.058 S 
ATOM      4  O   UNL     1     -16.885   5.793  23.264  0.00  0.00    -0.153 OA
ATOM      5  O   UNL     1     -16.996   4.436  21.149  0.00  0.00    -0.153 OA
BRANCH   1  19
ATOM     19  C   UNL     1     -14.809   5.723  21.684  0.00  0.00    +0.105 A 
ATOM     20  C   UNL     1     -14.937   6.829  20.843  0.00  0.00    +0.029 A 
ATOM     21  C   UNL     1     -13.543   5.257  22.034  0.00  0.00    +0.029 A 
ATOM     22  C   UNL     1     -13.799   7.468  20.354  0.00  0.00    +0.005 A 
ATOM     23  C   UNL     1     -12.405   5.896  21.545  0.00  0.00    +0.005 A 
ATOM     24  C   UNL     1     -12.532   7.002  20.705  0.00  0.00    -0.050 A 
ATOM     25  C   UNL     1     -11.315   7.686  20.181  0.00  0.00    +0.044 C 
ENDBRANCH   1  19
ENDBRANCH   8   1
ENDBRANCH  16   8
ENDBRANCH  12  16
TORSDOF 7
ENDMDL
MODEL 2
REMARK VINA RESULT:      -6.8     18.549     19.878
REMARK  Name = 75367099
REMARK  8 active torsions:
REMARK  status: ('A' for Active; 'I' for Inactive)
REMARK    1  A    between atoms: S_1  and  N_8
REMARK    2  A    between atoms: S_1  and  C_19
REMARK    3  A    between atoms: O_3  and  C_10
REMARK    4  A    between atoms: N_6  and  C_9
REMARK    5  A    between atoms: N_6  and  C_11
REMARK    6  A    between atoms: N_8  and  C_16
REMARK    7  A    between atoms: C_12  and  C_16
REMARK    8  A    between atoms: C_24  and  C_25
REMARK                            x       y       z     vdW  Elec       q    Type
REMARK                         _______ _______ _______ _____ _____    ______ ____
ROOT
ATOM      2  O   UNL     1      -6.157 -11.483  18.310  0.00  0.00    -0.371 OA
ATOM      9  C   UNL     1      -7.771 -10.002  17.392  0.00  0.00    +0.111 C 
ATOM     10  C   UNL     1      -6.409  -9.671  16.811  0.00  0.00    +0.164 C 
ATOM     12  C   UNL     1      -5.659 -10.972  17.062  0.00  0.00    +0.164 C 
ATOM     13  C   UNL     1      -7.386 -10.804  18.624  0.00  0.00    +0.181 C 
ENDROOT
BRANCH  10   3
ATOM      3  O   UNL     1      -6.467  -9.354  15.434  0.00  0.00    -0.388 OA
ATOM     28  H   UNL     1      -5.736  -8.746  15.228  0.00  0.00    +0.210 HD
ENDBRANCH  10   3
BRANCH   9   6
ATOM      6  N   UNL     1      -8.571  -8.830  17.707  0.00  0.00    -0.306 NA
ATOM     26  H   UNL     1      -8.031  -7.982  17.541  0.00  0.00    +0.123 HD
BRANCH   6  11
ATOM      7  N   UNL     1     -12.455  -7.694  16.394  0.00  0.00    -0.316 NA
ATOM     11  C   UNL     1      -9.791  -8.803  16.904  0.00  0.00    +0.056 C 
ATOM     14  C   UNL     1     -11.004  -9.162  17.768  0.00  0.00    +0.034 C 
ATOM     15  C   UNL     1      -9.993  -7.429  16.258  0.00  0.00    +0.034 C 
ATOM     17  C   UNL     1     -12.301  -9.033  16.968  0.00  0.00    +0.082 C 
ATOM     18  C   UNL     1     -11.329  -7.366  15.516  0.00  0.00    +0.082 C 
ATOM     27  H   UNL     1     -13.322  -7.656  15.858  0.00  0.00    +0.122 HD
ENDBRANCH   6  11
ENDBRANCH   9   6
BRANCH  12  16
ATOM     16  C   UNL     1      -4.154 -10.791  17.145  0.00  0.00    +0.140 C 
BRANCH  16   8
ATOM      8  N   UNL     1      -3.641 -10.301  15.851  0.00  0.00    -0.187 NA
ATOM     29  H   UNL     1      -4.183  -9.546  15.413  0.00  0.00    +0.148 HD
BRANCH   8   1
ATOM      1  S   UNL     1      -2.735 -11.333  14.848  0.00  0.00    +0.058 S 
ATOM      4  O   UNL     1      -3.295 -12.670  14.901  0.00  0.00    -0.153 OA
ATOM      5  O   UNL     1      -1.323 -11.124  15.107  0.00  0.00    -0.153 OA
BRANCH   1  19
ATOM     19  C   UNL     1      -3.069 -10.666  13.245  0.00  0.00    +0.105 A 
ATOM     20  C   UNL     1      -4.385 -10.427  12.851  0.00  0.00    +0.029 A 
ATOM     21  C   UNL     1      -2.017 -10.383  12.375  0.00  0.00    +0.029 A 
ATOM     22  C   UNL     1      -4.650  -9.904  11.586  0.00  0.00    +0.005 A 
ATOM     23  C   UNL     1      -2.282  -9.859  11.110  0.00  0.00    +0.005 A 
ATOM     24  C   UNL     1      -3.598  -9.619  10.715  0.00  0.00    -0.050 A 
ATOM     25  C   UNL     1      -3.881  -9.060   9.362  0.00  0.00    +0.044 C 
ENDBRANCH   1  19
ENDBRANCH   8   1
ENDBRANCH  16   8
ENDBRANCH  12  16
TORSDOF 7
ENDMDL
MODEL 3
REMARK VINA RESULT:      -6.5     21.402     23.512
REMARK  Name = 75367099
REMARK  8 active torsions:
REMARK  status: ('A' for Active; 'I' for Inactive)
REMARK    1  A    between atoms: S_1  and  N_8
REMARK    2  A    between atoms: S_1  and  C_19
REMARK    3  A    between atoms: O_3  and  C_10
REMARK    4  A    between atoms: N_6  and  C_9
REMARK    5  A    between atoms: N_6  and  C_11
REMARK    6  A    between atoms: N_8  and  C_16
REMARK    7  A    between atoms: C_12  and  C_16
REMARK    8  A    between atoms: C_24  and  C_25
REMARK                            x       y       z     vdW  Elec       q    Type
REMARK                         _______ _______ _______ _____ _____    ______ ____
ROOT
ATOM      2  O   UNL     1      -5.246 -13.081  13.217  0.00  0.00    -0.371 OA
ATOM      9  C   UNL     1      -3.949 -13.232  11.233  0.00  0.00    +0.111 C 
ATOM     10  C   UNL     1      -3.037 -13.406  12.435  0.00  0.00    +0.164 C 
ATOM     12  C   UNL     1      -4.040 -13.808  13.507  0.00  0.00    +0.164 C 
ATOM     13  C   UNL     1      -5.166 -12.582  11.870  0.00  0.00    +0.181 C 
ENDROOT
BRANCH  10   3
ATOM      3  O   UNL     1      -2.054 -14.401  12.233  0.00  0.00    -0.388 OA
ATOM     28  H   UNL     1      -2.502 -15.250  12.080  0.00  0.00    +0.210 HD
ENDBRANCH  10   3
BRANCH   9   6
ATOM      6  N   UNL     1      -3.367 -12.427  10.172  0.00  0.00    -0.306 NA
ATOM     26  H   UNL     1      -3.320 -12.966   9.309  0.00  0.00    +0.123 HD
BRANCH   6  11
ATOM      7  N   UNL     1      -4.458  -8.607   8.649  0.00  0.00    -0.316 NA
ATOM     11  C   UNL     1      -4.150 -11.213   9.954  0.00  0.00    +0.056 C 
ATOM     14  C   UNL     1      -3.354  -9.980  10.394  0.00  0.00    +0.034 C 
ATOM     15  C   UNL     1      -4.557 -11.080   8.482  0.00  0.00    +0.034 C 
ATOM     17  C   UNL     1      -4.116  -8.695  10.071  0.00  0.00    +0.082 C 
ATOM     18  C   UNL     1      -5.273  -9.751   8.233  0.00  0.00    +0.082 C 
ATOM     27  H   UNL     1      -4.977  -7.745   8.481  0.00  0.00    +0.122 HD
ENDBRANCH   6  11
ENDBRANCH   9   6
BRANCH  12  16
ATOM     16  C   UNL     1      -3.574 -13.488  14.916  0.00  0.00    +0.140 C 
BRANCH  16   8
ATOM      8  N   UNL     1      -2.342 -12.677  14.859  0.00  0.00    -0.187 NA
ATOM     29  H   UNL     1      -1.470 -13.174  15.077  0.00  0.00    +0.148 HD
BRANCH   8   1
ATOM      1  S   UNL     1      -2.411 -11.002  15.144  0.00  0.00    +0.058 S 
ATOM      4  O   UNL     1      -2.866 -10.328  13.943  0.00  0.00    -0.153 OA
ATOM      5  O   UNL     1      -1.185 -10.582  15.795  0.00  0.00    -0.153 OA
BRANCH   1  19
ATOM     19  C   UNL     1      -3.699 -10.892  16.351  0.00  0.00    +0.105 A 
ATOM     20  C   UNL     1      -3.500 -11.411  17.631  0.00  0.00    +0.029 A 
ATOM     21  C   UNL     1      -4.914 -10.292  16.023  0.00  0.00    +0.029 A 
ATOM     22  C   UNL     1      -4.516 -11.328  18.582  0.00  0.00    +0.005 A 
ATOM     23  C   UNL     1      -5.930 -10.209  16.974  0.00  0.00    +0.005 A 
ATOM     24  C   UNL     1      -5.731 -10.727  18.254  0.00  0.00    -0.050 A 
ATOM     25  C   UNL     1      -6.817 -10.638  19.272  0.00  0.00    +0.044 C 
ENDBRANCH   1  19
ENDBRANCH   8   1
ENDBRANCH  16   8
ENDBRANCH  12  16
TORSDOF 7
ENDMDL
MODEL 4
REMARK VINA RESULT:      -6.4     18.469     19.533
REMARK  Name = 75367099
REMARK  8 active torsions:
REMARK  status: ('A' for Active; 'I' for Inactive)
REMARK    1  A    between atoms: S_1  and  N_8
REMARK    2  A    between atoms: S_1  and  C_19
REMARK    3  A    between atoms: O_3  and  C_10
REMARK    4  A    between atoms: N_6  and  C_9
REMARK    5  A    between atoms: N_6  and  C_11
REMARK    6  A    between atoms: N_8  and  C_16
REMARK    7  A    between atoms: C_12  and  C_16
REMARK    8  A    between atoms: C_24  and  C_25
REMARK                            x       y       z     vdW  Elec       q    Type
REMARK                         _______ _______ _______ _____ _____    ______ ____
ROOT
ATOM      2  O   UNL     1      -6.973 -11.022  16.693  0.00  0.00    -0.371 OA
ATOM      9  C   UNL     1      -8.206 -11.108  18.721  0.00  0.00    +0.111 C 
ATOM     10  C   UNL     1      -6.743 -10.856  19.041  0.00  0.00    +0.164 C 
ATOM     12  C   UNL     1      -6.241 -10.316  17.710  0.00  0.00    +0.164 C 
ATOM     13  C   UNL     1      -8.114 -11.648  17.304  0.00  0.00    +0.181 C 
ENDROOT
BRANCH  10   3
ATOM      3  O   UNL     1      -6.568  -9.922  20.088  0.00  0.00    -0.388 OA
ATOM     28  H   UNL     1      -6.295  -9.073  19.701  0.00  0.00    +0.210 HD
ENDBRANCH  10   3
BRANCH   9   6
ATOM      6  N   UNL     1      -8.852 -12.032  19.639  0.00  0.00    -0.306 NA
ATOM     26  H   UNL     1      -8.452 -11.937  20.571  0.00  0.00    +0.123 HD
BRANCH   6  11
ATOM      7  N   UNL     1     -12.670 -11.033  21.230  0.00  0.00    -0.316 NA
ATOM     11  C   UNL     1     -10.292 -11.787  19.692  0.00  0.00    +0.056 C 
ATOM     14  C   UNL     1     -10.956 -12.742  20.689  0.00  0.00    +0.034 C 
ATOM     15  C   UNL     1     -10.588 -10.334  20.077  0.00  0.00    +0.034 C 
ATOM     17  C   UNL     1     -12.445 -12.425  20.837  0.00  0.00    +0.082 C 
ATOM     18  C   UNL     1     -12.091 -10.111  20.249  0.00  0.00    +0.082 C 
ATOM     27  H   UNL     1     -13.673 -10.861  21.302  0.00  0.00    +0.122 HD
ENDBRANCH   6  11
ENDBRANCH   9   6
BRANCH  12  16
ATOM     16  C   UNL     1      -4.750 -10.519  17.503  0.00  0.00    +0.140 C 
BRANCH  16   8
ATOM      8  N   UNL     1      -4.405 -10.260  16.092  0.00  0.00    -0.187 NA
ATOM     29  H   UNL     1      -5.137  -9.807  15.530  0.00  0.00    +0.148 HD
BRANCH   8   1
ATOM      1  S   UNL     1      -3.268 -11.244  15.298  0.00  0.00    +0.058 S 
ATOM      4  O   UNL     1      -3.717 -12.622  15.333  0.00  0.00    -0.153 OA
ATOM      5  O   UNL     1      -1.938 -10.898  15.763  0.00  0.00    -0.153 OA
BRANCH   1  19
ATOM     19  C   UNL     1      -3.395 -10.671  13.630  0.00  0.00    +0.105 A 
ATOM     20  C   UNL     1      -4.641 -10.328  13.104  0.00  0.00    +0.029 A 
ATOM     21  C   UNL     1      -2.252 -10.568  12.839  0.00  0.00    +0.029 A 
ATOM     22  C   UNL     1      -4.743  -9.880  11.788  0.00  0.00    +0.005 A 
ATOM     23  C   UNL     1      -2.353 -10.119  11.523  0.00  0.00    +0.005 A 
ATOM     24  C   UNL     1      -3.598  -9.775  10.997  0.00  0.00    -0.050 A 
ATOM     25  C   UNL     1      -3.707  -9.296   9.589  0.00  0.00    +0.044 C 
ENDBRANCH   1  19
ENDBRANCH   8   1
ENDBRANCH  16   8
ENDBRANCH  12  16
TORSDOF 7
ENDMDL
MODEL 5
REMARK VINA RESULT:      -6.4      5.329      9.221
REMARK  Name = 75367099
REMARK  8 active torsions:
REMARK  status: ('A' for Active; 'I' for Inactive)
REMARK    1  A    between atoms: S_1  and  N_8
REMARK    2  A    between atoms: S_1  and  C_19
REMARK    3  A    between atoms: O_3  and  C_10
REMARK    4  A    between atoms: N_6  and  C_9
REMARK    5  A    between atoms: N_6  and  C_11
REMARK    6  A    between atoms: N_8  and  C_16
REMARK    7  A    between atoms: C_12  and  C_16
REMARK    8  A    between atoms: C_24  and  C_25
REMARK                            x       y       z     vdW  Elec       q    Type
REMARK                         _______ _______ _______ _____ _____    ______ ____
ROOT
ATOM      2  O   UNL     1     -16.050   2.961  31.725  0.00  0.00    -0.371 OA
ATOM      9  C   UNL     1     -15.422   2.643  29.457  0.00  0.00    +0.111 C 
ATOM     10  C   UNL     1     -14.170   2.711  30.312  0.00  0.00    +0.164 C 
ATOM     12  C   UNL     1     -14.735   2.381  31.686  0.00  0.00    +0.164 C 
ATOM     13  C   UNL     1     -16.451   3.273  30.379  0.00  0.00    +0.181 C 
ENDROOT
BRANCH  10   3
ATOM      3  O   UNL     1     -13.183   1.781  29.910  0.00  0.00    -0.388 OA
ATOM     28  H   UNL     1     -12.309   2.182  30.048  0.00  0.00    +0.210 HD
ENDBRANCH  10   3
BRANCH   9   6
ATOM      6  N   UNL     1     -15.299   3.338  28.186  0.00  0.00    -0.306 NA
ATOM     26  H   UNL     1     -14.357   3.223  27.813  0.00  0.00    +0.123 HD
BRANCH   6  11
ATOM      7  N   UNL     1     -16.898   1.190  24.880  0.00  0.00    -0.316 NA
ATOM     11  C   UNL     1     -16.276   2.837  27.223  0.00  0.00    +0.056 C 
ATOM     14  C   UNL     1     -15.887   3.258  25.802  0.00  0.00    +0.034 C 
ATOM     15  C   UNL     1     -16.396   1.311  27.307  0.00  0.00    +0.034 C 
ATOM     17  C   UNL     1     -16.840   2.649  24.773  0.00  0.00    +0.082 C 
ATOM     18  C   UNL     1     -17.329   0.778  26.219  0.00  0.00    +0.082 C 
ATOM     27  H   UNL     1     -17.554   0.827  24.189  0.00  0.00    +0.122 HD
ENDBRANCH   6  11
ENDBRANCH   9   6
BRANCH  12  16
ATOM     16  C   UNL     1     -13.898   2.929  32.828  0.00  0.00    +0.140 C 
BRANCH  16   8
ATOM      8  N   UNL     1     -13.874   4.404  32.762  0.00  0.00    -0.187 NA
ATOM     29  H   UNL     1     -13.127   4.812  32.186  0.00  0.00    +0.148 HD
BRANCH   8   1
ATOM      1  S   UNL     1     -14.501   5.325  34.047  0.00  0.00    +0.058 S 
ATOM      4  O   UNL     1     -14.185   4.674  35.304  0.00  0.00    -0.153 OA
ATOM      5  O   UNL     1     -15.870   5.693  33.740  0.00  0.00    -0.153 OA
BRANCH   1  19
ATOM     19  C   UNL     1     -13.534   6.801  33.940  0.00  0.00    +0.105 A 
ATOM     20  C   UNL     1     -13.186   7.316  32.691  0.00  0.00    +0.029 A 
ATOM     21  C   UNL     1     -13.116   7.446  35.102  0.00  0.00    +0.029 A 
ATOM     22  C   UNL     1     -12.420   8.479  32.606  0.00  0.00    +0.005 A 
ATOM     23  C   UNL     1     -12.350   8.609  35.017  0.00  0.00    +0.005 A 
ATOM     24  C   UNL     1     -12.003   9.125  33.769  0.00  0.00    -0.050 A 
ATOM     25  C   UNL     1     -11.184  10.369  33.678  0.00  0.00    +0.044 C 
ENDBRANCH   1  19
ENDBRANCH   8   1
ENDBRANCH  16   8
ENDBRANCH  12  16
TORSDOF 7
ENDMDL
MODEL 6
REMARK VINA RESULT:      -6.3     14.992     16.039
REMARK  Name = 75367099
REMARK  8 active torsions:
REMARK  status: ('A' for Active; 'I' for Inactive)
REMARK    1  A    between atoms: S_1  and  N_8
REMARK    2  A    between atoms: S_1  and  C_19
REMARK    3  A    between atoms: O_3  and  C_10
REMARK    4  A    between atoms: N_6  and  C_9
REMARK    5  A    between atoms: N_6  and  C_11
REMARK    6  A    between atoms: N_8  and  C_16
REMARK    7  A    between atoms: C_12  and  C_16
REMARK    8  A    between atoms: C_24  and  C_25
REMARK                            x       y       z     vdW  Elec       q    Type
REMARK                         _______ _______ _______ _____ _____    ______ ____
ROOT
ATOM      2  O   UNL     1     -11.976  -7.844  14.122  0.00  0.00    -0.371 OA
ATOM      9  C   UNL     1     -10.380  -8.171  15.849  0.00  0.00    +0.111 C 
ATOM     10  C   UNL     1     -10.748  -6.699  15.788  0.00  0.00    +0.164 C 
ATOM     12  C   UNL     1     -12.085  -6.762  15.062  0.00  0.00    +0.164 C 
ATOM     13  C   UNL     1     -10.846  -8.655  14.486  0.00  0.00    +0.181 C 
ENDROOT
BRANCH  10   3
ATOM      3  O   UNL     1     -10.871  -6.114  17.069  0.00  0.00    -0.388 OA
ATOM     28  H   UNL     1     -11.811  -6.116  17.319  0.00  0.00    +0.210 HD
ENDBRANCH  10   3
BRANCH   9   6
ATOM      6  N   UNL     1      -8.965  -8.408  16.081  0.00  0.00    -0.306 NA
ATOM     26  H   UNL     1      -8.530  -7.576  16.478  0.00  0.00    +0.123 HD
BRANCH   6  11
ATOM      7  N   UNL     1      -8.239 -10.568  19.674  0.00  0.00    -0.316 NA
ATOM     11  C   UNL     1      -8.770  -9.543  16.981  0.00  0.00    +0.056 C 
ATOM     14  C   UNL     1      -7.377  -9.483  17.618  0.00  0.00    +0.034 C 
ATOM     15  C   UNL     1      -9.847  -9.571  18.070  0.00  0.00    +0.034 C 
ATOM     17  C   UNL     1      -7.199 -10.603  18.644  0.00  0.00    +0.082 C 
ATOM     18  C   UNL     1      -9.572 -10.687  19.079  0.00  0.00    +0.082 C 
ATOM     27  H   UNL     1      -8.091 -11.338  20.327  0.00  0.00    +0.122 HD
ENDBRANCH   6  11
ENDBRANCH   9   6
BRANCH  12  16
ATOM     16  C   UNL     1     -12.433  -5.478  14.330  0.00  0.00    +0.140 C 
BRANCH  16   8
ATOM      8  N   UNL     1     -13.780  -5.593  13.739  0.00  0.00    -0.187 NA
ATOM     29  H   UNL     1     -14.184  -6.539  13.730  0.00  0.00    +0.148 HD
BRANCH   8   1
ATOM      1  S   UNL     1     -14.288  -4.485  12.554  0.00  0.00    +0.058 S 
ATOM      4  O   UNL     1     -14.238  -3.142  13.099  0.00  0.00    -0.153 OA
ATOM      5  O   UNL     1     -15.507  -4.977  11.939  0.00  0.00    -0.153 OA
BRANCH   1  19
ATOM     19  C   UNL     1     -13.005  -4.631  11.346  0.00  0.00    +0.105 A 
ATOM     20  C   UNL     1     -12.666  -5.886  10.839  0.00  0.00    +0.029 A 
ATOM     21  C   UNL     1     -12.330  -3.494  10.905  0.00  0.00    +0.029 A 
ATOM     22  C   UNL     1     -11.652  -6.002   9.889  0.00  0.00    +0.005 A 
ATOM     23  C   UNL     1     -11.315  -3.611   9.955  0.00  0.00    +0.005 A 
ATOM     24  C   UNL     1     -10.977  -4.865   9.447  0.00  0.00    -0.050 A 
ATOM     25  C   UNL     1      -9.892  -4.990   8.431  0.00  0.00    +0.044 C 
ENDBRANCH   1  19
ENDBRANCH   8   1
ENDBRANCH  16   8
ENDBRANCH  12  16
TORSDOF 7
ENDMDL
MODEL 7
REMARK VINA RESULT:      -6.3     15.982     16.898
REMARK  Name = 75367099
REMARK  8 active torsions:
REMARK  status: ('A' for Active; 'I' for Inactive)
REMARK    1  A    between atoms: S_1  and  N_8
REMARK    2  A    between atoms: S_1  and  C_19
REMARK    3  A    between atoms: O_3  and  C_10
REMARK    4  A    between atoms: N_6  and  C_9
REMARK    5  A    between atoms: N_6  and  C_11
REMARK    6  A    between atoms: N_8  and  C_16
REMARK    7  A    between atoms: C_12  and  C_16
REMARK    8  A    between atoms: C_24  and  C_25
REMARK                            x       y       z     vdW  Elec       q    Type
REMARK                         _______ _______ _______ _____ _____    ______ ____
ROOT
ATOM      2  O   UNL     1      -9.689 -10.530  15.671  0.00  0.00    -0.371 OA
ATOM      9  C   UNL     1      -8.623  -9.787  17.659  0.00  0.00    +0.111 C 
ATOM     10  C   UNL     1      -9.108  -8.580  16.877  0.00  0.00    +0.164 C 
ATOM     12  C   UNL     1     -10.171  -9.213  15.990  0.00  0.00    +0.164 C 
ATOM     13  C   UNL     1      -8.631 -10.863  16.586  0.00  0.00    +0.181 C 
ENDROOT
BRANCH  10   3
ATOM      3  O   UNL     1      -9.648  -7.573  17.710  0.00  0.00    -0.388 OA
ATOM     28  H   UNL     1     -10.398  -7.161  17.247  0.00  0.00    +0.210 HD
ENDBRANCH  10   3
BRANCH   9   6
ATOM      6  N   UNL     1      -7.314  -9.602  18.265  0.00  0.00    -0.306 NA
ATOM     26  H   UNL     1      -7.398  -9.588  19.281  0.00  0.00    +0.123 HD
BRANCH   6  11
ATOM      7  N   UNL     1      -3.724 -11.861  17.933  0.00  0.00    -0.316 NA
ATOM     11  C   UNL     1      -6.399 -10.666  17.859  0.00  0.00    +0.056 C 
ATOM     14  C   UNL     1      -5.222 -10.082  17.071  0.00  0.00    +0.034 C 
ATOM     15  C   UNL     1      -5.886 -11.442  19.076  0.00  0.00    +0.034 C 
ATOM     17  C   UNL     1      -4.200 -11.168  16.733  0.00  0.00    +0.082 C 
ATOM     18  C   UNL     1      -4.838 -12.476  18.660  0.00  0.00    +0.082 C 
ATOM     27  H   UNL     1      -3.059 -12.585  17.662  0.00  0.00    +0.122 HD
ENDBRANCH   6  11
ENDBRANCH   9   6
BRANCH  12  16
ATOM     16  C   UNL     1     -10.427  -8.436  14.711  0.00  0.00    +0.140 C 
BRANCH  16   8
ATOM      8  N   UNL     1     -11.836  -7.998  14.670  0.00  0.00    -0.187 NA
ATOM     29  H   UNL     1     -12.443  -8.511  14.019  0.00  0.00    +0.148 HD
BRANCH   8   1
ATOM      1  S   UNL     1     -12.241  -6.394  15.063  0.00  0.00    +0.058 S 
ATOM      4  O   UNL     1     -11.140  -5.783  15.782  0.00  0.00    -0.153 OA
ATOM      5  O   UNL     1     -13.580  -6.368  15.621  0.00  0.00    -0.153 OA
BRANCH   1  19
ATOM     19  C   UNL     1     -12.333  -5.642  13.466  0.00  0.00    +0.105 A 
ATOM     20  C   UNL     1     -12.483  -6.437  12.329  0.00  0.00    +0.029 A 
ATOM     21  C   UNL     1     -12.253  -4.256  13.342  0.00  0.00    +0.029 A 
ATOM     22  C   UNL     1     -12.552  -5.845  11.069  0.00  0.00    +0.005 A 
ATOM     23  C   UNL     1     -12.322  -3.664  12.081  0.00  0.00    +0.005 A 
ATOM     24  C   UNL     1     -12.473  -4.458  10.945  0.00  0.00    -0.050 A 
ATOM     25  C   UNL     1     -12.547  -3.825   9.596  0.00  0.00    +0.044 C 
ENDBRANCH   1  19
ENDBRANCH   8   1
ENDBRANCH  16   8
ENDBRANCH  12  16
TORSDOF 7
ENDMDL
MODEL 8
REMARK VINA RESULT:      -6.2     20.154     21.287
REMARK  Name = 75367099
REMARK  8 active torsions:
REMARK  status: ('A' for Active; 'I' for Inactive)
REMARK    1  A    between atoms: S_1  and  N_8
REMARK    2  A    between atoms: S_1  and  C_19
REMARK    3  A    between atoms: O_3  and  C_10
REMARK    4  A    between atoms: N_6  and  C_9
REMARK    5  A    between atoms: N_6  and  C_11
REMARK    6  A    between atoms: N_8  and  C_16
REMARK    7  A    between atoms: C_12  and  C_16
REMARK    8  A    between atoms: C_24  and  C_25
REMARK                            x       y       z     vdW  Elec       q    Type
REMARK                         _______ _______ _______ _____ _____    ______ ____
ROOT
ATOM      2  O   UNL     1      -4.468 -10.358  17.837  0.00  0.00    -0.371 OA
ATOM      9  C   UNL     1      -5.503 -12.382  18.526  0.00  0.00    +0.111 C 
ATOM     10  C   UNL     1      -4.861 -12.592  17.166  0.00  0.00    +0.164 C 
ATOM     12  C   UNL     1      -3.850 -11.454  17.141  0.00  0.00    +0.164 C 
ATOM     13  C   UNL     1      -5.584 -10.866  18.589  0.00  0.00    +0.181 C 
ENDROOT
BRANCH  10   3
ATOM      3  O   UNL     1      -4.235 -13.855  17.048  0.00  0.00    -0.388 OA
ATOM     28  H   UNL     1      -4.924 -14.541  17.067  0.00  0.00    +0.210 HD
ENDBRANCH  10   3
BRANCH   9   6
ATOM      6  N   UNL     1      -6.800 -13.024  18.663  0.00  0.00    -0.306 NA
ATOM     26  H   UNL     1      -6.858 -13.508  19.559  0.00  0.00    +0.123 HD
BRANCH   6  11
ATOM      7  N   UNL     1     -10.742 -11.450  18.373  0.00  0.00    -0.316 NA
ATOM     11  C   UNL     1      -7.878 -12.044  18.560  0.00  0.00    +0.056 C 
ATOM     14  C   UNL     1      -8.675 -12.264  17.270  0.00  0.00    +0.034 C 
ATOM     15  C   UNL     1      -8.809 -12.122  19.775  0.00  0.00    +0.034 C 
ATOM     17  C   UNL     1      -9.873 -11.316  17.201  0.00  0.00    +0.082 C 
ATOM     18  C   UNL     1     -10.002 -11.180  19.609  0.00  0.00    +0.082 C 
ATOM     27  H   UNL     1     -11.516 -10.791  18.294  0.00  0.00    +0.122 HD
ENDBRANCH   6  11
ENDBRANCH   9   6
BRANCH  12  16
ATOM     16  C   UNL     1      -3.469 -11.020  15.737  0.00  0.00    +0.140 C 
BRANCH  16   8
ATOM      8  N   UNL     1      -2.273 -11.764  15.295  0.00  0.00    -0.187 NA
ATOM     29  H   UNL     1      -1.370 -11.323  15.507  0.00  0.00    +0.148 HD
BRANCH   8   1
ATOM      1  S   UNL     1      -2.368 -12.813  13.959  0.00  0.00    +0.058 S 
ATOM      4  O   UNL     1      -3.472 -13.733  14.148  0.00  0.00    -0.153 OA
ATOM      5  O   UNL     1      -1.041 -13.317  13.661  0.00  0.00    -0.153 OA
BRANCH   1  19
ATOM     19  C   UNL     1      -2.802 -11.701  12.655  0.00  0.00    +0.105 A 
ATOM     20  C   UNL     1      -1.889 -10.737  12.228  0.00  0.00    +0.029 A 
ATOM     21  C   UNL     1      -4.059 -11.784  12.058  0.00  0.00    +0.029 A 
ATOM     22  C   UNL     1      -2.232  -9.858  11.202  0.00  0.00    +0.005 A 
ATOM     23  C   UNL     1      -4.403 -10.905  11.032  0.00  0.00    +0.005 A 
ATOM     24  C   UNL     1      -3.489  -9.942  10.603  0.00  0.00    -0.050 A 
ATOM     25  C   UNL     1      -3.856  -9.001   9.506  0.00  0.00    +0.044 C 
ENDBRANCH   1  19
ENDBRANCH   8   1
ENDBRANCH  16   8
ENDBRANCH  12  16
TORSDOF 7
ENDMDL
MODEL 9
REMARK VINA RESULT:      -6.2     21.057     22.129
REMARK  Name = 75367099
REMARK  8 active torsions:
REMARK  status: ('A' for Active; 'I' for Inactive)
REMARK    1  A    between atoms: S_1  and  N_8
REMARK    2  A    between atoms: S_1  and  C_19
REMARK    3  A    between atoms: O_3  and  C_10
REMARK    4  A    between atoms: N_6  and  C_9
REMARK    5  A    between atoms: N_6  and  C_11
REMARK    6  A    between atoms: N_8  and  C_16
REMARK    7  A    between atoms: C_12  and  C_16
REMARK    8  A    between atoms: C_24  and  C_25
REMARK                            x       y       z     vdW  Elec       q    Type
REMARK                         _______ _______ _______ _____ _____    ______ ____
ROOT
ATOM      2  O   UNL     1      -1.649 -11.572  15.012  0.00  0.00    -0.371 OA
ATOM      9  C   UNL     1      -3.731 -11.343  16.132  0.00  0.00    +0.111 C 
ATOM     10  C   UNL     1      -3.937 -12.153  14.865  0.00  0.00    +0.164 C 
ATOM     12  C   UNL     1      -2.520 -12.636  14.592  0.00  0.00    +0.164 C 
ATOM     13  C   UNL     1      -2.398 -10.671  15.846  0.00  0.00    +0.181 C 
ENDROOT
BRANCH  10   3
ATOM      3  O   UNL     1      -4.835 -13.230  15.046  0.00  0.00    -0.388 OA
ATOM     28  H   UNL     1      -4.896 -13.723  14.211  0.00  0.00    +0.210 HD
ENDBRANCH  10   3
BRANCH   9   6
ATOM      6  N   UNL     1      -4.799 -10.393  16.397  0.00  0.00    -0.306 NA
ATOM     26  H   UNL     1      -5.307 -10.188  15.538  0.00  0.00    +0.123 HD
BRANCH   6  11
ATOM      7  N   UNL     1      -7.233 -10.536  19.884  0.00  0.00    -0.316 NA
ATOM     11  C   UNL     1      -5.721 -10.916  17.403  0.00  0.00    +0.056 C 
ATOM     14  C   UNL     1      -5.049 -10.938  18.779  0.00  0.00    +0.034 C 
ATOM     15  C   UNL     1      -7.005 -10.083  17.456  0.00  0.00    +0.034 C 
ATOM     17  C   UNL     1      -6.036 -11.380  19.860  0.00  0.00    +0.082 C 
ATOM     18  C   UNL     1      -7.917 -10.558  18.588  0.00  0.00    +0.082 C 
ATOM     27  H   UNL     1      -7.869 -10.874  20.606  0.00  0.00    +0.122 HD
ENDBRANCH   6  11
ENDBRANCH   9   6
BRANCH  12  16
ATOM     16  C   UNL     1      -2.266 -12.960  13.131  0.00  0.00    +0.140 C 
BRANCH  16   8
ATOM      8  N   UNL     1      -3.331 -12.367  12.299  0.00  0.00    -0.187 NA
ATOM     29  H   UNL     1      -3.873 -13.029  11.730  0.00  0.00    +0.148 HD
BRANCH   8   1
ATOM      1  S   UNL     1      -3.196 -10.759  11.762  0.00  0.00    +0.058 S 
ATOM      4  O   UNL     1      -1.794 -10.398  11.671  0.00  0.00    -0.153 OA
ATOM      5  O   UNL     1      -4.114  -9.929  12.518  0.00  0.00    -0.153 OA
BRANCH   1  19
ATOM     19  C   UNL     1      -3.836 -10.871  10.118  0.00  0.00    +0.105 A 
ATOM     20  C   UNL     1      -4.193  -9.712   9.428  0.00  0.00    +0.029 A 
ATOM     21  C   UNL     1      -3.989 -12.118   9.512  0.00  0.00    +0.029 A 
ATOM     22  C   UNL     1      -4.702  -9.800   8.133  0.00  0.00    +0.005 A 
ATOM     23  C   UNL     1      -4.497 -12.206   8.217  0.00  0.00    +0.005 A 
ATOM     24  C   UNL     1      -4.853 -11.047   7.527  0.00  0.00    -0.050 A 
ATOM     25  C   UNL     1      -5.397 -11.141   6.141  0.00  0.00    +0.044 C 
ENDBRANCH   1  19
ENDBRANCH   8   1
ENDBRANCH  16   8
ENDBRANCH  12  16
TORSDOF 7
ENDMDL
MODEL 10
REMARK VINA RESULT:      -6.2     15.922     17.334
REMARK  Name = 75367099
REMARK  8 active torsions:
REMARK  status: ('A' for Active; 'I' for Inactive)
REMARK    1  A    between atoms: S_1  and  N_8
REMARK    2  A    between atoms: S_1  and  C_19
REMARK    3  A    between atoms: O_3  and  C_10
REMARK    4  A    between atoms: N_6  and  C_9
REMARK    5  A    between atoms: N_6  and  C_11
REMARK    6  A    between atoms: N_8  and  C_16
REMARK    7  A    between atoms: C_12  and  C_16
REMARK    8  A    between atoms: C_24  and  C_25
REMARK                            x       y       z     vdW  Elec       q    Type
REMARK                         _______ _______ _______ _____ _____    ______ ____
ROOT
ATOM      2  O   UNL     1      -9.065 -13.410  19.232  0.00  0.00    -0.371 OA
ATOM      9  C   UNL     1      -7.998 -11.414  19.951  0.00  0.00    +0.111 C 
ATOM     10  C   UNL     1      -9.470 -11.130  19.714  0.00  0.00    +0.164 C 
ATOM     12  C   UNL     1     -10.056 -12.533  19.795  0.00  0.00    +0.164 C 
ATOM     13  C   UNL     1      -7.812 -12.707  19.174  0.00  0.00    +0.181 C 
ENDROOT
BRANCH  10   3
ATOM      3  O   UNL     1     -10.024 -10.271  20.691  0.00  0.00    -0.388 OA
ATOM     28  H   UNL     1     -10.965 -10.138  20.485  0.00  0.00    +0.210 HD
ENDBRANCH  10   3
BRANCH   9   6
ATOM      6  N   UNL     1      -7.119 -10.349  19.497  0.00  0.00    -0.306 NA
ATOM     26  H   UNL     1      -6.281 -10.316  20.076  0.00  0.00    +0.123 HD
BRANCH   6  11
ATOM      7  N   UNL     1      -5.534  -9.513  15.638  0.00  0.00    -0.316 NA
ATOM     11  C   UNL     1      -6.745 -10.547  18.098  0.00  0.00    +0.056 C 
ATOM     14  C   UNL     1      -7.453  -9.519  17.209  0.00  0.00    +0.034 C 
ATOM     15  C   UNL     1      -5.227 -10.444  17.916  0.00  0.00    +0.034 C 
ATOM     17  C   UNL     1      -6.987  -9.643  15.757  0.00  0.00    +0.082 C 
ATOM     18  C   UNL     1      -4.848 -10.532  16.437  0.00  0.00    +0.082 C 
ATOM     27  H   UNL     1      -5.266  -9.617  14.659  0.00  0.00    +0.122 HD
ENDBRANCH   6  11
ENDBRANCH   9   6
BRANCH  12  16
ATOM     16  C   UNL     1     -11.364 -12.684  19.039  0.00  0.00    +0.140 C 
BRANCH  16   8
ATOM      8  N   UNL     1     -11.590 -11.492  18.198  0.00  0.00    -0.187 NA
ATOM     29  H   UNL     1     -10.750 -11.084  17.768  0.00  0.00    +0.148 HD
BRANCH   8   1
ATOM      1  S   UNL     1     -12.920 -10.476  18.501  0.00  0.00    +0.058 S 
ATOM      4  O   UNL     1     -12.881 -10.032  19.880  0.00  0.00    -0.153 OA
ATOM      5  O   UNL     1     -14.118 -11.096  17.968  0.00  0.00    -0.153 OA
BRANCH   1  19
ATOM     19  C   UNL     1     -12.556  -9.086  17.470  0.00  0.00    +0.105 A 
ATOM     20  C   UNL     1     -11.272  -8.542  17.463  0.00  0.00    +0.029 A 
ATOM     21  C   UNL     1     -13.553  -8.533  16.668  0.00  0.00    +0.029 A 
ATOM     22  C   UNL     1     -10.985  -7.444  16.653  0.00  0.00    +0.005 A 
ATOM     23  C   UNL     1     -13.266  -7.434  15.858  0.00  0.00    +0.005 A 
ATOM     24  C   UNL     1     -11.982  -6.890  15.850  0.00  0.00    -0.050 A 
ATOM     25  C   UNL     1     -11.675  -5.716  14.984  0.00  0.00    +0.044 C 
ENDBRANCH   1  19
ENDBRANCH   8   1
ENDBRANCH  16   8
ENDBRANCH  12  16
TORSDOF 7
ENDMDL
