MODEL 1
REMARK VINA RESULT:      -6.3      0.000      0.000
REMARK  Name = 45784003
REMARK  13 active torsions:
REMARK  status: ('A' for Active; 'I' for Inactive)
REMARK    1  A    between atoms: O_1  and  C_21
REMARK    2  A    between atoms: N_3  and  C_9
REMARK    3  A    between atoms: C_6  and  C_11
REMARK    4  A    between atoms: C_7  and  C_9
REMARK    5  A    between atoms: C_10  and  C_18
REMARK    6  A    between atoms: C_11  and  C_19
REMARK    7  A    between atoms: C_11  and  C_20
REMARK    8  A    between atoms: C_12  and  C_21
REMARK    9  A    between atoms: C_14  and  C_22
REMARK   10  A    between atoms: C_18  and  C_23
REMARK   11  A    between atoms: C_24  and  C_25
REMARK   12  A    between atoms: C_25  and  C_26
REMARK   13  A    between atoms: C_26  and  C_27
REMARK                            x       y       z     vdW  Elec       q    Type
REMARK                         _______ _______ _______ _____ _____    ______ ____
ROOT
ATOM      6  C   UNL     1      13.981   9.178  20.101  0.00  0.00    +0.000 C 
ATOM      7  C   UNL     1      14.143   7.743  19.538  0.00  0.00    +0.029 C 
ATOM      8  C   UNL     1      13.612   9.130  21.591  0.00  0.00    +0.012 C 
ATOM     10  C   UNL     1      12.305   8.355  21.844  0.00  0.00    +0.024 C 
ATOM     13  C   UNL     1      13.118   6.776  20.079  0.00  0.00    -0.023 C 
ATOM     14  C   UNL     1      12.280   7.036  21.098  0.00  0.00    -0.073 C 
ATOM     22  C   UNL     1      11.299   6.005  21.581  0.00  0.00    +0.039 C 
ENDROOT
BRANCH   6  11
ATOM     11  C   UNL     1      15.250  10.013  19.906  0.00  0.00    -0.013 C 
ATOM     19  C   UNL     1      16.428   9.363  20.625  0.00  0.00    +0.007 C 
ATOM     20  C   UNL     1      15.031  11.438  20.404  0.00  0.00    +0.007 C 
ENDBRANCH   6  11
BRANCH   7   9
ATOM      9  C   UNL     1      14.090   7.740  18.006  0.00  0.00    +0.092 C 
BRANCH   9   3
ATOM      3  N   UNL     1      12.985   8.561  17.527  0.00  0.00    -0.297 NA
ATOM     12  C   UNL     1      13.205   9.106  16.180  0.00  0.00    +0.082 C 
ATOM     15  C   UNL     1      11.747   7.784  17.422  0.00  0.00    +0.085 C 
ATOM     16  C   UNL     1      11.799   9.536  15.757  0.00  0.00    +0.022 C 
ATOM     17  C   UNL     1      10.848   8.672  16.578  0.00  0.00    +0.017 C 
BRANCH  12  21
ATOM     21  C   UNL     1      14.185  10.271  16.153  0.00  0.00    +0.174 C 
BRANCH  21   1
ATOM      1  O   UNL     1      13.617  11.358  16.864  0.00  0.00    -0.393 OA
ATOM     28  H   UNL     1      13.542  11.083  17.794  0.00  0.00    +0.209 HD
ENDBRANCH  21   1
ENDBRANCH  12  21
ENDBRANCH   9   3
ENDBRANCH   7   9
BRANCH  10  18
ATOM     18  C   UNL     1      11.081   9.208  21.494  0.00  0.00    +0.105 C 
BRANCH  18  23
ATOM      2  O   UNL     1      10.977  10.453  23.589  0.00  0.00    -0.425 OA
ATOM      4  N   UNL     1      11.198  11.738  21.771  0.00  0.00    -0.112 NA
ATOM      5  N   UNL     1      11.153  12.567  22.876  0.00  0.00    -0.112 NA
ATOM     23  C   UNL     1      11.092  10.515  22.234  0.00  0.00    +0.218 A 
ATOM     24  C   UNL     1      11.023  11.774  23.915  0.00  0.00    +0.217 A 
BRANCH  24  25
ATOM     25  C   UNL     1      10.927  12.110  25.340  0.00  0.00    +0.097 C 
BRANCH  25  26
ATOM     26  C   UNL     1      10.525  13.580  25.589  0.00  0.00    +0.006 C 
ATOM     27  C   UNL     1      11.703  14.449  25.999  0.00  0.00    +0.004 C 
ENDBRANCH  25  26
ENDBRANCH  24  25
ENDBRANCH  18  23
ENDBRANCH  10  18
TORSDOF 9
ENDMDL
MODEL 2
REMARK VINA RESULT:      -6.2      2.726      7.038
REMARK  Name = 45784003
REMARK  13 active torsions:
REMARK  status: ('A' for Active; 'I' for Inactive)
REMARK    1  A    between atoms: O_1  and  C_21
REMARK    2  A    between atoms: N_3  and  C_9
REMARK    3  A    between atoms: C_6  and  C_11
REMARK    4  A    between atoms: C_7  and  C_9
REMARK    5  A    between atoms: C_10  and  C_18
REMARK    6  A    between atoms: C_11  and  C_19
REMARK    7  A    between atoms: C_11  and  C_20
REMARK    8  A    between atoms: C_12  and  C_21
REMARK    9  A    between atoms: C_14  and  C_22
REMARK   10  A    between atoms: C_18  and  C_23
REMARK   11  A    between atoms: C_24  and  C_25
REMARK   12  A    between atoms: C_25  and  C_26
REMARK   13  A    between atoms: C_26  and  C_27
REMARK                            x       y       z     vdW  Elec       q    Type
REMARK                         _______ _______ _______ _____ _____    ______ ____
ROOT
ATOM      6  C   UNL     1      13.608  10.524  20.739  0.00  0.00    +0.000 C 
ATOM      7  C   UNL     1      12.189  10.819  21.290  0.00  0.00    +0.029 C 
ATOM      8  C   UNL     1      13.562   9.357  19.741  0.00  0.00    +0.012 C 
ATOM     10  C   UNL     1      13.006   8.068  20.374  0.00  0.00    +0.024 C 
ATOM     13  C   UNL     1      11.385   9.569  21.554  0.00  0.00    -0.023 C 
ATOM     14  C   UNL     1      11.741   8.331  21.165  0.00  0.00    -0.073 C 
ATOM     22  C   UNL     1      10.869   7.143  21.461  0.00  0.00    +0.039 C 
ENDROOT
BRANCH   6  11
ATOM     11  C   UNL     1      14.227  11.756  20.071  0.00  0.00    -0.013 C 
ATOM     19  C   UNL     1      13.328  12.258  18.946  0.00  0.00    +0.007 C 
ATOM     20  C   UNL     1      15.622  11.431  19.546  0.00  0.00    +0.007 C 
ENDBRANCH   6  11
BRANCH   7   9
ATOM      9  C   UNL     1      12.257  11.663  22.567  0.00  0.00    +0.092 C 
BRANCH   9   3
ATOM      3  N   UNL     1      11.036  12.442  22.735  0.00  0.00    -0.297 NA
ATOM     12  C   UNL     1      11.040  13.278  23.945  0.00  0.00    +0.082 C 
ATOM     15  C   UNL     1      10.845  13.382  21.628  0.00  0.00    +0.085 C 
ATOM     16  C   UNL     1       9.907  14.269  23.672  0.00  0.00    +0.022 C 
ATOM     17  C   UNL     1       9.778  14.329  22.154  0.00  0.00    +0.017 C 
BRANCH  12  21
ATOM     21  C   UNL     1      10.806  12.488  25.225  0.00  0.00    +0.174 C 
BRANCH  21   1
ATOM      1  O   UNL     1      11.965  12.583  26.034  0.00  0.00    -0.393 OA
ATOM     28  H   UNL     1      12.612  11.947  25.684  0.00  0.00    +0.209 HD
ENDBRANCH  21   1
ENDBRANCH  12  21
ENDBRANCH   9   3
ENDBRANCH   7   9
BRANCH  10  18
ATOM     18  C   UNL     1      14.064   7.379  21.242  0.00  0.00    +0.105 C 
BRANCH  18  23
ATOM      2  O   UNL     1      16.430   6.858  20.959  0.00  0.00    -0.425 OA
ATOM      4  N   UNL     1      15.156   6.310  19.204  0.00  0.00    -0.112 NA
ATOM      5  N   UNL     1      16.460   5.962  18.908  0.00  0.00    -0.112 NA
ATOM     23  C   UNL     1      15.185   6.829  20.409  0.00  0.00    +0.218 A 
ATOM     24  C   UNL     1      17.169   6.299  19.961  0.00  0.00    +0.217 A 
BRANCH  24  25
ATOM     25  C   UNL     1      18.610   6.158  20.202  0.00  0.00    +0.097 C 
BRANCH  25  26
ATOM     26  C   UNL     1      19.166   7.217  21.178  0.00  0.00    +0.006 C 
ATOM     27  C   UNL     1      19.748   6.604  22.441  0.00  0.00    +0.004 C 
ENDBRANCH  25  26
ENDBRANCH  24  25
ENDBRANCH  18  23
ENDBRANCH  10  18
TORSDOF 9
ENDMDL
MODEL 3
REMARK VINA RESULT:      -6.2      3.245      5.953
REMARK  Name = 45784003
REMARK  13 active torsions:
REMARK  status: ('A' for Active; 'I' for Inactive)
REMARK    1  A    between atoms: O_1  and  C_21
REMARK    2  A    between atoms: N_3  and  C_9
REMARK    3  A    between atoms: C_6  and  C_11
REMARK    4  A    between atoms: C_7  and  C_9
REMARK    5  A    between atoms: C_10  and  C_18
REMARK    6  A    between atoms: C_11  and  C_19
REMARK    7  A    between atoms: C_11  and  C_20
REMARK    8  A    between atoms: C_12  and  C_21
REMARK    9  A    between atoms: C_14  and  C_22
REMARK   10  A    between atoms: C_18  and  C_23
REMARK   11  A    between atoms: C_24  and  C_25
REMARK   12  A    between atoms: C_25  and  C_26
REMARK   13  A    between atoms: C_26  and  C_27
REMARK                            x       y       z     vdW  Elec       q    Type
REMARK                         _______ _______ _______ _____ _____    ______ ____
ROOT
ATOM      6  C   UNL     1      13.926   9.600  20.430  0.00  0.00    +0.000 C 
ATOM      7  C   UNL     1      14.640   8.315  20.922  0.00  0.00    +0.029 C 
ATOM      8  C   UNL     1      12.588   9.781  21.162  0.00  0.00    +0.012 C 
ATOM     10  C   UNL     1      11.641   8.585  20.951  0.00  0.00    +0.024 C 
ATOM     13  C   UNL     1      13.692   7.164  21.156  0.00  0.00    -0.023 C 
ATOM     14  C   UNL     1      12.351   7.262  21.159  0.00  0.00    -0.073 C 
ATOM     22  C   UNL     1      11.483   6.062  21.415  0.00  0.00    +0.039 C 
ENDROOT
BRANCH   6  11
ATOM     11  C   UNL     1      14.798  10.845  20.624  0.00  0.00    -0.013 C 
ATOM     19  C   UNL     1      15.179  11.003  22.092  0.00  0.00    +0.007 C 
ATOM     20  C   UNL     1      14.070  12.086  20.116  0.00  0.00    +0.007 C 
ENDBRANCH   6  11
BRANCH   7   9
ATOM      9  C   UNL     1      15.738   7.883  19.943  0.00  0.00    +0.092 C 
BRANCH   9   3
ATOM      3  N   UNL     1      16.859   7.286  20.657  0.00  0.00    -0.297 NA
ATOM     12  C   UNL     1      17.864   6.685  19.768  0.00  0.00    +0.082 C 
ATOM     15  C   UNL     1      17.595   8.289  21.433  0.00  0.00    +0.085 C 
ATOM     16  C   UNL     1      19.078   6.532  20.685  0.00  0.00    +0.022 C 
ATOM     17  C   UNL     1      18.894   7.579  21.778  0.00  0.00    +0.017 C 
BRANCH  12  21
ATOM     21  C   UNL     1      17.427   5.351  19.178  0.00  0.00    +0.174 C 
BRANCH  21   1
ATOM      1  O   UNL     1      17.980   5.227  17.879  0.00  0.00    -0.393 OA
ATOM     28  H   UNL     1      17.257   4.962  17.285  0.00  0.00    +0.209 HD
ENDBRANCH  21   1
ENDBRANCH  12  21
ENDBRANCH   9   3
ENDBRANCH   7   9
BRANCH  10  18
ATOM     18  C   UNL     1      10.978   8.642  19.571  0.00  0.00    +0.105 C 
BRANCH  18  23
ATOM      2  O   UNL     1      12.606   9.383  17.913  0.00  0.00    -0.425 OA
ATOM      4  N   UNL     1      12.296   7.168  17.965  0.00  0.00    -0.112 NA
ATOM      5  N   UNL     1      13.235   7.444  16.989  0.00  0.00    -0.112 NA
ATOM     23  C   UNL     1      11.957   8.328  18.477  0.00  0.00    +0.218 A 
ATOM     24  C   UNL     1      13.385   8.749  16.994  0.00  0.00    +0.217 A 
BRANCH  24  25
ATOM     25  C   UNL     1      14.257   9.593  16.168  0.00  0.00    +0.097 C 
BRANCH  25  26
ATOM     26  C   UNL     1      14.050  11.102  16.418  0.00  0.00    +0.006 C 
ATOM     27  C   UNL     1      15.354  11.839  16.679  0.00  0.00    +0.004 C 
ENDBRANCH  25  26
ENDBRANCH  24  25
ENDBRANCH  18  23
ENDBRANCH  10  18
TORSDOF 9
ENDMDL
MODEL 4
REMARK VINA RESULT:      -6.1     26.502     28.896
REMARK  Name = 45784003
REMARK  13 active torsions:
REMARK  status: ('A' for Active; 'I' for Inactive)
REMARK    1  A    between atoms: O_1  and  C_21
REMARK    2  A    between atoms: N_3  and  C_9
REMARK    3  A    between atoms: C_6  and  C_11
REMARK    4  A    between atoms: C_7  and  C_9
REMARK    5  A    between atoms: C_10  and  C_18
REMARK    6  A    between atoms: C_11  and  C_19
REMARK    7  A    between atoms: C_11  and  C_20
REMARK    8  A    between atoms: C_12  and  C_21
REMARK    9  A    between atoms: C_14  and  C_22
REMARK   10  A    between atoms: C_18  and  C_23
REMARK   11  A    between atoms: C_24  and  C_25
REMARK   12  A    between atoms: C_25  and  C_26
REMARK   13  A    between atoms: C_26  and  C_27
REMARK                            x       y       z     vdW  Elec       q    Type
REMARK                         _______ _______ _______ _____ _____    ______ ____
ROOT
ATOM      6  C   UNL     1      -6.382 -10.839  15.659  0.00  0.00    +0.000 C 
ATOM      7  C   UNL     1      -7.059 -10.798  17.053  0.00  0.00    +0.029 C 
ATOM      8  C   UNL     1      -5.404 -12.020  15.574  0.00  0.00    +0.012 C 
ATOM     10  C   UNL     1      -4.304 -11.945  16.650  0.00  0.00    +0.024 C 
ATOM     13  C   UNL     1      -6.114 -11.138  18.180  0.00  0.00    -0.023 C 
ATOM     14  C   UNL     1      -4.876 -11.638  18.019  0.00  0.00    -0.073 C 
ATOM     22  C   UNL     1      -4.007 -11.962  19.202  0.00  0.00    +0.039 C 
ENDROOT
BRANCH   6  11
ATOM     11  C   UNL     1      -7.412 -10.934  14.529  0.00  0.00    -0.013 C 
ATOM     19  C   UNL     1      -8.278 -12.177  14.704  0.00  0.00    +0.007 C 
ATOM     20  C   UNL     1      -6.713 -10.947  13.173  0.00  0.00    +0.007 C 
ENDBRANCH   6  11
BRANCH   7   9
ATOM      9  C   UNL     1      -7.698  -9.430  17.318  0.00  0.00    +0.092 C 
BRANCH   9   3
ATOM      3  N   UNL     1      -9.142  -9.491  17.128  0.00  0.00    -0.297 NA
ATOM     12  C   UNL     1      -9.900  -9.370  18.382  0.00  0.00    +0.082 C 
ATOM     15  C   UNL     1      -9.620  -8.388  16.291  0.00  0.00    +0.085 C 
ATOM     16  C   UNL     1     -11.311  -9.038  17.892  0.00  0.00    +0.022 C 
ATOM     17  C   UNL     1     -11.122  -8.401  16.519  0.00  0.00    +0.017 C 
BRANCH  12  21
ATOM     21  C   UNL     1      -9.878 -10.638  19.226  0.00  0.00    +0.174 C 
BRANCH  21   1
ATOM      1  O   UNL     1      -9.965 -10.273  20.593  0.00  0.00    -0.393 OA
ATOM     28  H   UNL     1      -9.063 -10.069  20.893  0.00  0.00    +0.209 HD
ENDBRANCH  21   1
ENDBRANCH  12  21
ENDBRANCH   9   3
ENDBRANCH   7   9
BRANCH  10  18
ATOM     18  C   UNL     1      -3.224 -10.928  16.265  0.00  0.00    +0.105 C 
BRANCH  18  23
ATOM      2  O   UNL     1      -2.702 -10.302  13.966  0.00  0.00    -0.425 OA
ATOM      4  N   UNL     1      -1.985 -12.341  14.544  0.00  0.00    -0.112 NA
ATOM      5  N   UNL     1      -1.624 -12.119  13.228  0.00  0.00    -0.112 NA
ATOM     23  C   UNL     1      -2.611 -11.255  14.933  0.00  0.00    +0.218 A 
ATOM     24  C   UNL     1      -2.063 -10.917  12.933  0.00  0.00    +0.217 A 
BRANCH  24  25
ATOM     25  C   UNL     1      -1.957 -10.167  11.676  0.00  0.00    +0.097 C 
BRANCH  25  26
ATOM     26  C   UNL     1      -3.180 -10.359  10.753  0.00  0.00    +0.006 C 
ATOM     27  C   UNL     1      -3.487  -9.126   9.919  0.00  0.00    +0.004 C 
ENDBRANCH  25  26
ENDBRANCH  24  25
ENDBRANCH  18  23
ENDBRANCH  10  18
TORSDOF 9
ENDMDL
MODEL 5
REMARK VINA RESULT:      -5.8     26.623     28.810
REMARK  Name = 45784003
REMARK  13 active torsions:
REMARK  status: ('A' for Active; 'I' for Inactive)
REMARK    1  A    between atoms: O_1  and  C_21
REMARK    2  A    between atoms: N_3  and  C_9
REMARK    3  A    between atoms: C_6  and  C_11
REMARK    4  A    between atoms: C_7  and  C_9
REMARK    5  A    between atoms: C_10  and  C_18
REMARK    6  A    between atoms: C_11  and  C_19
REMARK    7  A    between atoms: C_11  and  C_20
REMARK    8  A    between atoms: C_12  and  C_21
REMARK    9  A    between atoms: C_14  and  C_22
REMARK   10  A    between atoms: C_18  and  C_23
REMARK   11  A    between atoms: C_24  and  C_25
REMARK   12  A    between atoms: C_25  and  C_26
REMARK   13  A    between atoms: C_26  and  C_27
REMARK                            x       y       z     vdW  Elec       q    Type
REMARK                         _______ _______ _______ _____ _____    ______ ____
ROOT
ATOM      6  C   UNL     1      -6.364 -10.721  15.607  0.00  0.00    +0.000 C 
ATOM      7  C   UNL     1      -7.036 -10.665  17.002  0.00  0.00    +0.029 C 
ATOM      8  C   UNL     1      -5.428 -11.936  15.512  0.00  0.00    +0.012 C 
ATOM     10  C   UNL     1      -4.324 -11.908  16.586  0.00  0.00    +0.024 C 
ATOM     13  C   UNL     1      -6.102 -11.046  18.125  0.00  0.00    -0.023 C 
ATOM     14  C   UNL     1      -4.882 -11.589  17.958  0.00  0.00    -0.073 C 
ATOM     22  C   UNL     1      -4.024 -11.951  19.138  0.00  0.00    +0.039 C 
ENDROOT
BRANCH   6  11
ATOM     11  C   UNL     1      -7.398 -10.773  14.478  0.00  0.00    -0.013 C 
ATOM     19  C   UNL     1      -8.286 -12.004  14.627  0.00  0.00    +0.007 C 
ATOM     20  C   UNL     1      -6.703 -10.767  13.120  0.00  0.00    +0.007 C 
ENDBRANCH   6  11
BRANCH   7   9
ATOM      9  C   UNL     1      -7.625  -9.277  17.276  0.00  0.00    +0.092 C 
BRANCH   9   3
ATOM      3  N   UNL     1      -9.063  -9.363  17.501  0.00  0.00    -0.297 NA
ATOM     12  C   UNL     1      -9.859  -9.020  16.313  0.00  0.00    +0.082 C 
ATOM     15  C   UNL     1      -9.471 -10.727  17.847  0.00  0.00    +0.085 C 
ATOM     16  C   UNL     1     -11.239  -9.583  16.660  0.00  0.00    +0.022 C 
ATOM     17  C   UNL     1     -10.980 -10.696  17.670  0.00  0.00    +0.017 C 
BRANCH  12  21
ATOM     21  C   UNL     1      -9.912  -7.524  16.033  0.00  0.00    +0.174 C 
BRANCH  21   1
ATOM      1  O   UNL     1     -10.487  -6.874  17.153  0.00  0.00    -0.393 OA
ATOM     28  H   UNL     1     -10.227  -5.938  17.105  0.00  0.00    +0.209 HD
ENDBRANCH  21   1
ENDBRANCH  12  21
ENDBRANCH   9   3
ENDBRANCH   7   9
BRANCH  10  18
ATOM     18  C   UNL     1      -3.210 -10.928  16.205  0.00  0.00    +0.105 C 
BRANCH  18  23
ATOM      2  O   UNL     1      -2.851 -10.353  13.862  0.00  0.00    -0.425 OA
ATOM      4  N   UNL     1      -1.923 -12.292  14.480  0.00  0.00    -0.112 NA
ATOM      5  N   UNL     1      -1.643 -12.094  13.141  0.00  0.00    -0.112 NA
ATOM     23  C   UNL     1      -2.629 -11.253  14.859  0.00  0.00    +0.218 A 
ATOM     24  C   UNL     1      -2.204 -10.950  12.823  0.00  0.00    +0.217 A 
BRANCH  24  25
ATOM     25  C   UNL     1      -2.226 -10.246  11.535  0.00  0.00    +0.097 C 
BRANCH  25  26
ATOM     26  C   UNL     1      -3.641  -9.788  11.120  0.00  0.00    +0.006 C 
ATOM     27  C   UNL     1      -3.705  -9.309   9.679  0.00  0.00    +0.004 C 
ENDBRANCH  25  26
ENDBRANCH  24  25
ENDBRANCH  18  23
ENDBRANCH  10  18
TORSDOF 9
ENDMDL
MODEL 6
REMARK VINA RESULT:      -5.8     26.141     29.552
REMARK  Name = 45784003
REMARK  13 active torsions:
REMARK  status: ('A' for Active; 'I' for Inactive)
REMARK    1  A    between atoms: O_1  and  C_21
REMARK    2  A    between atoms: N_3  and  C_9
REMARK    3  A    between atoms: C_6  and  C_11
REMARK    4  A    between atoms: C_7  and  C_9
REMARK    5  A    between atoms: C_10  and  C_18
REMARK    6  A    between atoms: C_11  and  C_19
REMARK    7  A    between atoms: C_11  and  C_20
REMARK    8  A    between atoms: C_12  and  C_21
REMARK    9  A    between atoms: C_14  and  C_22
REMARK   10  A    between atoms: C_18  and  C_23
REMARK   11  A    between atoms: C_24  and  C_25
REMARK   12  A    between atoms: C_25  and  C_26
REMARK   13  A    between atoms: C_26  and  C_27
REMARK                            x       y       z     vdW  Elec       q    Type
REMARK                         _______ _______ _______ _____ _____    ______ ____
ROOT
ATOM      6  C   UNL     1      -7.255 -11.587  17.131  0.00  0.00    +0.000 C 
ATOM      7  C   UNL     1      -7.372 -11.967  18.629  0.00  0.00    +0.029 C 
ATOM      8  C   UNL     1      -6.045 -12.287  16.494  0.00  0.00    +0.012 C 
ATOM     10  C   UNL     1      -4.723 -11.922  17.196  0.00  0.00    +0.024 C 
ATOM     13  C   UNL     1      -6.034 -12.048  19.325  0.00  0.00    -0.023 C 
ATOM     14  C   UNL     1      -4.842 -12.016  18.703  0.00  0.00    -0.073 C 
ATOM     22  C   UNL     1      -3.558 -12.116  19.478  0.00  0.00    +0.039 C 
ENDROOT
BRANCH   6  11
ATOM     11  C   UNL     1      -8.527 -11.939  16.354  0.00  0.00    -0.013 C 
ATOM     19  C   UNL     1      -8.856 -13.420  16.515  0.00  0.00    +0.007 C 
ATOM     20  C   UNL     1      -8.368 -11.576  14.881  0.00  0.00    +0.007 C 
ENDBRANCH   6  11
BRANCH   7   9
ATOM      9  C   UNL     1      -8.280 -10.987  19.379  0.00  0.00    +0.092 C 
BRANCH   9   3
ATOM      3  N   UNL     1      -9.369 -11.696  20.039  0.00  0.00    -0.297 NA
ATOM     12  C   UNL     1     -10.667 -11.523  19.371  0.00  0.00    +0.082 C 
ATOM     15  C   UNL     1      -9.140 -13.143  20.047  0.00  0.00    +0.085 C 
ATOM     16  C   UNL     1     -11.506 -12.655  19.966  0.00  0.00    +0.022 C 
ATOM     17  C   UNL     1     -10.501 -13.711  20.413  0.00  0.00    +0.017 C 
BRANCH  12  21
ATOM     21  C   UNL     1     -11.297 -10.159  19.621  0.00  0.00    +0.174 C 
BRANCH  21   1
ATOM      1  O   UNL     1     -11.196  -9.860  21.003  0.00  0.00    -0.393 OA
ATOM     28  H   UNL     1     -12.097  -9.698  21.328  0.00  0.00    +0.209 HD
ENDBRANCH  21   1
ENDBRANCH  12  21
ENDBRANCH   9   3
ENDBRANCH   7   9
BRANCH  10  18
ATOM     18  C   UNL     1      -4.237 -10.533  16.767  0.00  0.00    +0.105 C 
BRANCH  18  23
ATOM      2  O   UNL     1      -3.268 -10.443  14.531  0.00  0.00    -0.425 OA
ATOM      4  N   UNL     1      -1.786 -10.856  16.154  0.00  0.00    -0.112 NA
ATOM      5  N   UNL     1      -1.105 -10.833  14.951  0.00  0.00    -0.112 NA
ATOM     23  C   UNL     1      -3.044 -10.624  15.861  0.00  0.00    +0.218 A 
ATOM     24  C   UNL     1      -2.010 -10.588  14.032  0.00  0.00    +0.217 A 
BRANCH  24  25
ATOM     25  C   UNL     1      -1.853 -10.452  12.579  0.00  0.00    +0.097 C 
BRANCH  25  26
ATOM     26  C   UNL     1      -3.201 -10.375  11.830  0.00  0.00    +0.006 C 
ATOM     27  C   UNL     1      -3.097  -9.631  10.508  0.00  0.00    +0.004 C 
ENDBRANCH  25  26
ENDBRANCH  24  25
ENDBRANCH  18  23
ENDBRANCH  10  18
TORSDOF 9
ENDMDL
MODEL 7
REMARK VINA RESULT:      -5.8      3.704      6.899
REMARK  Name = 45784003
REMARK  13 active torsions:
REMARK  status: ('A' for Active; 'I' for Inactive)
REMARK    1  A    between atoms: O_1  and  C_21
REMARK    2  A    between atoms: N_3  and  C_9
REMARK    3  A    between atoms: C_6  and  C_11
REMARK    4  A    between atoms: C_7  and  C_9
REMARK    5  A    between atoms: C_10  and  C_18
REMARK    6  A    between atoms: C_11  and  C_19
REMARK    7  A    between atoms: C_11  and  C_20
REMARK    8  A    between atoms: C_12  and  C_21
REMARK    9  A    between atoms: C_14  and  C_22
REMARK   10  A    between atoms: C_18  and  C_23
REMARK   11  A    between atoms: C_24  and  C_25
REMARK   12  A    between atoms: C_25  and  C_26
REMARK   13  A    between atoms: C_26  and  C_27
REMARK                            x       y       z     vdW  Elec       q    Type
REMARK                         _______ _______ _______ _____ _____    ______ ____
ROOT
ATOM      6  C   UNL     1      13.438   8.492  20.646  0.00  0.00    +0.000 C 
ATOM      7  C   UNL     1      13.558  10.031  20.507  0.00  0.00    +0.029 C 
ATOM      8  C   UNL     1      14.475   7.962  21.647  0.00  0.00    +0.012 C 
ATOM     10  C   UNL     1      15.917   8.303  21.227  0.00  0.00    +0.024 C 
ATOM     13  C   UNL     1      14.989  10.515  20.510  0.00  0.00    -0.023 C 
ATOM     14  C   UNL     1      16.055   9.754  20.816  0.00  0.00    -0.073 C 
ATOM     22  C   UNL     1      17.446  10.326  20.807  0.00  0.00    +0.039 C 
ENDROOT
BRANCH   6  11
ATOM     11  C   UNL     1      12.031   8.069  21.082  0.00  0.00    -0.013 C 
ATOM     19  C   UNL     1      11.615   8.825  22.339  0.00  0.00    +0.007 C 
ATOM     20  C   UNL     1      11.978   6.562  21.314  0.00  0.00    +0.007 C 
ENDBRANCH   6  11
BRANCH   7   9
ATOM      9  C   UNL     1      12.853  10.529  19.240  0.00  0.00    +0.092 C 
BRANCH   9   3
ATOM      3  N   UNL     1      13.378   9.854  18.059  0.00  0.00    -0.297 NA
ATOM     12  C   UNL     1      12.336   9.474  17.094  0.00  0.00    +0.082 C 
ATOM     15  C   UNL     1      14.290  10.721  17.308  0.00  0.00    +0.085 C 
ATOM     16  C   UNL     1      13.140   9.199  15.822  0.00  0.00    +0.022 C 
ATOM     17  C   UNL     1      14.421  10.013  15.970  0.00  0.00    +0.017 C 
BRANCH  12  21
ATOM     21  C   UNL     1      11.527   8.259  17.527  0.00  0.00    +0.174 C 
BRANCH  21   1
ATOM      1  O   UNL     1      10.623   7.924  16.487  0.00  0.00    -0.393 OA
ATOM     28  H   UNL     1      11.123   7.418  15.825  0.00  0.00    +0.209 HD
ENDBRANCH  21   1
ENDBRANCH  12  21
ENDBRANCH   9   3
ENDBRANCH   7   9
BRANCH  10  18
ATOM     18  C   UNL     1      16.404   7.367  20.116  0.00  0.00    +0.105 C 
BRANCH  18  23
ATOM      2  O   UNL     1      18.294   7.125  21.640  0.00  0.00    -0.425 OA
ATOM      4  N   UNL     1      18.462   5.905  19.772  0.00  0.00    -0.112 NA
ATOM      5  N   UNL     1      19.591   5.673  20.536  0.00  0.00    -0.112 NA
ATOM     23  C   UNL     1      17.734   6.757  20.454  0.00  0.00    +0.218 A 
ATOM     24  C   UNL     1      19.449   6.405  21.616  0.00  0.00    +0.217 A 
BRANCH  24  25
ATOM     25  C   UNL     1      20.343   6.547  22.773  0.00  0.00    +0.097 C 
BRANCH  25  26
ATOM     26  C   UNL     1      21.806   6.173  22.454  0.00  0.00    +0.006 C 
ATOM     27  C   UNL     1      22.367   5.128  23.406  0.00  0.00    +0.004 C 
ENDBRANCH  25  26
ENDBRANCH  24  25
ENDBRANCH  18  23
ENDBRANCH  10  18
TORSDOF 9
ENDMDL
MODEL 8
REMARK VINA RESULT:      -5.4     12.196     17.203
REMARK  Name = 45784003
REMARK  13 active torsions:
REMARK  status: ('A' for Active; 'I' for Inactive)
REMARK    1  A    between atoms: O_1  and  C_21
REMARK    2  A    between atoms: N_3  and  C_9
REMARK    3  A    between atoms: C_6  and  C_11
REMARK    4  A    between atoms: C_7  and  C_9
REMARK    5  A    between atoms: C_10  and  C_18
REMARK    6  A    between atoms: C_11  and  C_19
REMARK    7  A    between atoms: C_11  and  C_20
REMARK    8  A    between atoms: C_12  and  C_21
REMARK    9  A    between atoms: C_14  and  C_22
REMARK   10  A    between atoms: C_18  and  C_23
REMARK   11  A    between atoms: C_24  and  C_25
REMARK   12  A    between atoms: C_25  and  C_26
REMARK   13  A    between atoms: C_26  and  C_27
REMARK                            x       y       z     vdW  Elec       q    Type
REMARK                         _______ _______ _______ _____ _____    ______ ____
ROOT
ATOM      6  C   UNL     1       8.912   8.587   4.741  0.00  0.00    +0.000 C 
ATOM      7  C   UNL     1       8.427   9.106   6.119  0.00  0.00    +0.029 C 
ATOM      8  C   UNL     1       8.637   7.082   4.610  0.00  0.00    +0.012 C 
ATOM     10  C   UNL     1       9.333   6.263   5.713  0.00  0.00    +0.024 C 
ATOM     13  C   UNL     1       8.703   8.140   7.245  0.00  0.00    -0.023 C 
ATOM     14  C   UNL     1       9.121   6.872   7.084  0.00  0.00    -0.073 C 
ATOM     22  C   UNL     1       9.357   5.974   8.266  0.00  0.00    +0.039 C 
ENDROOT
BRANCH   6  11
ATOM     11  C   UNL     1       8.248   9.340   3.584  0.00  0.00    -0.013 C 
ATOM     19  C   UNL     1       6.769   9.571   3.879  0.00  0.00    +0.007 C 
ATOM     20  C   UNL     1       8.425   8.571   2.278  0.00  0.00    +0.007 C 
ENDBRANCH   6  11
BRANCH   7   9
ATOM      9  C   UNL     1       9.051  10.467   6.448  0.00  0.00    +0.092 C 
BRANCH   9   3
ATOM      3  N   UNL     1       9.904  10.371   7.627  0.00  0.00    -0.297 NA
ATOM     12  C   UNL     1      11.283  10.817   7.386  0.00  0.00    +0.082 C 
ATOM     15  C   UNL     1       9.415  11.225   8.712  0.00  0.00    +0.085 C 
ATOM     16  C   UNL     1      11.823  11.024   8.803  0.00  0.00    +0.022 C 
ATOM     17  C   UNL     1      10.594  11.284   9.668  0.00  0.00    +0.017 C 
BRANCH  12  21
ATOM     21  C   UNL     1      12.116   9.810   6.604  0.00  0.00    +0.174 C 
BRANCH  21   1
ATOM      1  O   UNL     1      13.069   9.233   7.481  0.00  0.00    -0.393 OA
ATOM     28  H   UNL     1      13.123   9.808   8.263  0.00  0.00    +0.209 HD
ENDBRANCH  21   1
ENDBRANCH  12  21
ENDBRANCH   9   3
ENDBRANCH   7   9
BRANCH  10  18
ATOM     18  C   UNL     1      10.826   6.090   5.413  0.00  0.00    +0.105 C 
BRANCH  18  23
ATOM      2  O   UNL     1      12.014   5.668   3.325  0.00  0.00    -0.425 OA
ATOM      4  N   UNL     1      10.440   4.152   3.805  0.00  0.00    -0.112 NA
ATOM      5  N   UNL     1      11.028   3.792   2.607  0.00  0.00    -0.112 NA
ATOM     23  C   UNL     1      11.047   5.251   4.187  0.00  0.00    +0.218 A 
ATOM     24  C   UNL     1      11.941   4.705   2.366  0.00  0.00    +0.217 A 
BRANCH  24  25
ATOM     25  C   UNL     1      12.869   4.823   1.234  0.00  0.00    +0.097 C 
BRANCH  25  26
ATOM     26  C   UNL     1      13.651   3.520   0.957  0.00  0.00    +0.006 C 
ATOM     27  C   UNL     1      15.111   3.612   1.369  0.00  0.00    +0.004 C 
ENDBRANCH  25  26
ENDBRANCH  24  25
ENDBRANCH  18  23
ENDBRANCH  10  18
TORSDOF 9
ENDMDL
MODEL 9
REMARK VINA RESULT:      -5.4     26.216     29.183
REMARK  Name = 45784003
REMARK  13 active torsions:
REMARK  status: ('A' for Active; 'I' for Inactive)
REMARK    1  A    between atoms: O_1  and  C_21
REMARK    2  A    between atoms: N_3  and  C_9
REMARK    3  A    between atoms: C_6  and  C_11
REMARK    4  A    between atoms: C_7  and  C_9
REMARK    5  A    between atoms: C_10  and  C_18
REMARK    6  A    between atoms: C_11  and  C_19
REMARK    7  A    between atoms: C_11  and  C_20
REMARK    8  A    between atoms: C_12  and  C_21
REMARK    9  A    between atoms: C_14  and  C_22
REMARK   10  A    between atoms: C_18  and  C_23
REMARK   11  A    between atoms: C_24  and  C_25
REMARK   12  A    between atoms: C_25  and  C_26
REMARK   13  A    between atoms: C_26  and  C_27
REMARK                            x       y       z     vdW  Elec       q    Type
REMARK                         _______ _______ _______ _____ _____    ______ ____
ROOT
ATOM      6  C   UNL     1      -6.517 -12.743  16.008  0.00  0.00    +0.000 C 
ATOM      7  C   UNL     1      -7.593 -12.894  17.113  0.00  0.00    +0.029 C 
ATOM      8  C   UNL     1      -5.113 -12.959  16.594  0.00  0.00    +0.012 C 
ATOM     10  C   UNL     1      -4.794 -11.965  17.726  0.00  0.00    +0.024 C 
ATOM     13  C   UNL     1      -7.173 -12.293  18.433  0.00  0.00    -0.023 C 
ATOM     14  C   UNL     1      -5.933 -11.859  18.720  0.00  0.00    -0.073 C 
ATOM     22  C   UNL     1      -5.602 -11.286  20.069  0.00  0.00    +0.039 C 
ENDROOT
BRANCH   6  11
ATOM     11  C   UNL     1      -6.752 -13.716  14.849  0.00  0.00    -0.013 C 
ATOM     19  C   UNL     1      -6.731 -15.156  15.351  0.00  0.00    +0.007 C 
ATOM     20  C   UNL     1      -5.704 -13.508  13.759  0.00  0.00    +0.007 C 
ENDBRANCH   6  11
BRANCH   7   9
ATOM      9  C   UNL     1      -8.927 -12.283  16.674  0.00  0.00    +0.092 C 
BRANCH   9   3
ATOM      3  N   UNL     1      -9.291 -11.165  17.535  0.00  0.00    -0.297 NA
ATOM     12  C   UNL     1      -9.326  -9.875  16.830  0.00  0.00    +0.082 C 
ATOM     15  C   UNL     1     -10.637 -11.330  18.088  0.00  0.00    +0.085 C 
ATOM     16  C   UNL     1     -10.116  -8.987  17.794  0.00  0.00    +0.022 C 
ATOM     17  C   UNL     1     -10.968  -9.945  18.620  0.00  0.00    +0.017 C 
BRANCH  12  21
ATOM     21  C   UNL     1      -7.943  -9.306  16.541  0.00  0.00    +0.174 C 
BRANCH  21   1
ATOM      1  O   UNL     1      -7.726  -9.335  15.141  0.00  0.00    -0.393 OA
ATOM     28  H   UNL     1      -7.909  -8.442  14.804  0.00  0.00    +0.209 HD
ENDBRANCH  21   1
ENDBRANCH  12  21
ENDBRANCH   9   3
ENDBRANCH   7   9
BRANCH  10  18
ATOM     18  C   UNL     1      -4.427 -10.588  17.163  0.00  0.00    +0.105 C 
BRANCH  18  23
ATOM      2  O   UNL     1      -3.474 -10.541  14.918  0.00  0.00    -0.425 OA
ATOM      4  N   UNL     1      -1.968 -10.841  16.545  0.00  0.00    -0.112 NA
ATOM      5  N   UNL     1      -1.295 -10.835  15.338  0.00  0.00    -0.112 NA
ATOM     23  C   UNL     1      -3.235 -10.666  16.252  0.00  0.00    +0.218 A 
ATOM     24  C   UNL     1      -2.214 -10.657  14.416  0.00  0.00    +0.217 A 
BRANCH  24  25
ATOM     25  C   UNL     1      -2.069 -10.566  12.958  0.00  0.00    +0.097 C 
BRANCH  25  26
ATOM     26  C   UNL     1      -3.423 -10.560  12.216  0.00  0.00    +0.006 C 
ATOM     27  C   UNL     1      -3.476 -11.572  11.083  0.00  0.00    +0.004 C 
ENDBRANCH  25  26
ENDBRANCH  24  25
ENDBRANCH  18  23
ENDBRANCH  10  18
TORSDOF 9
ENDMDL
MODEL 10
REMARK VINA RESULT:      -5.3     26.961     29.278
REMARK  Name = 45784003
REMARK  13 active torsions:
REMARK  status: ('A' for Active; 'I' for Inactive)
REMARK    1  A    between atoms: O_1  and  C_21
REMARK    2  A    between atoms: N_3  and  C_9
REMARK    3  A    between atoms: C_6  and  C_11
REMARK    4  A    between atoms: C_7  and  C_9
REMARK    5  A    between atoms: C_10  and  C_18
REMARK    6  A    between atoms: C_11  and  C_19
REMARK    7  A    between atoms: C_11  and  C_20
REMARK    8  A    between atoms: C_12  and  C_21
REMARK    9  A    between atoms: C_14  and  C_22
REMARK   10  A    between atoms: C_18  and  C_23
REMARK   11  A    between atoms: C_24  and  C_25
REMARK   12  A    between atoms: C_25  and  C_26
REMARK   13  A    between atoms: C_26  and  C_27
REMARK                            x       y       z     vdW  Elec       q    Type
REMARK                         _______ _______ _______ _____ _____    ______ ____
ROOT
ATOM      6  C   UNL     1      -6.982 -10.251  16.751  0.00  0.00    +0.000 C 
ATOM      7  C   UNL     1      -5.481  -9.969  16.485  0.00  0.00    +0.029 C 
ATOM      8  C   UNL     1      -7.261 -10.284  18.261  0.00  0.00    +0.012 C 
ATOM     10  C   UNL     1      -6.427 -11.358  18.984  0.00  0.00    +0.024 C 
ATOM     13  C   UNL     1      -4.565 -10.678  17.454  0.00  0.00    -0.023 C 
ATOM     14  C   UNL     1      -4.971 -11.315  18.567  0.00  0.00    -0.073 C 
ATOM     22  C   UNL     1      -3.984 -11.983  19.483  0.00  0.00    +0.039 C 
ENDROOT
BRANCH   6  11
ATOM     11  C   UNL     1      -7.883  -9.211  16.078  0.00  0.00    -0.013 C 
ATOM     19  C   UNL     1      -8.801  -8.559  17.107  0.00  0.00    +0.007 C 
ATOM     20  C   UNL     1      -8.696  -9.856  14.959  0.00  0.00    +0.007 C 
ENDBRANCH   6  11
BRANCH   7   9
ATOM      9  C   UNL     1      -5.094 -10.342  15.050  0.00  0.00    +0.092 C 
BRANCH   9   3
ATOM      3  N   UNL     1      -3.943 -11.237  15.042  0.00  0.00    -0.297 NA
ATOM     12  C   UNL     1      -4.206 -12.518  14.372  0.00  0.00    +0.082 C 
ATOM     15  C   UNL     1      -2.816 -10.653  14.311  0.00  0.00    +0.085 C 
ATOM     16  C   UNL     1      -2.798 -13.064  14.124  0.00  0.00    +0.022 C 
ATOM     17  C   UNL     1      -1.891 -11.839  14.091  0.00  0.00    +0.017 C 
BRANCH  12  21
ATOM     21  C   UNL     1      -5.045 -13.476  15.208  0.00  0.00    +0.174 C 
BRANCH  21   1
ATOM      1  O   UNL     1      -4.251 -13.957  16.279  0.00  0.00    -0.393 OA
ATOM     28  H   UNL     1      -4.617 -14.818  16.542  0.00  0.00    +0.209 HD
ENDBRANCH  21   1
ENDBRANCH  12  21
ENDBRANCH   9   3
ENDBRANCH   7   9
BRANCH  10  18
ATOM     18  C   UNL     1      -7.019 -12.754  18.770  0.00  0.00    +0.105 C 
BRANCH  18  23
ATOM      2  O   UNL     1      -9.370 -12.188  19.096  0.00  0.00    -0.425 OA
ATOM      4  N   UNL     1      -8.582 -13.693  20.551  0.00  0.00    -0.112 NA
ATOM      5  N   UNL     1      -9.912 -13.468  20.849  0.00  0.00    -0.112 NA
ATOM     23  C   UNL     1      -8.308 -12.926  19.522  0.00  0.00    +0.218 A 
ATOM     24  C   UNL     1     -10.331 -12.583  19.974  0.00  0.00    +0.217 A 
BRANCH  24  25
ATOM     25  C   UNL     1     -11.661 -11.981  19.818  0.00  0.00    +0.097 C 
BRANCH  25  26
ATOM     26  C   UNL     1     -11.667 -10.457  20.069  0.00  0.00    +0.006 C 
ATOM     27  C   UNL     1     -11.913  -9.653  18.803  0.00  0.00    +0.004 C 
ENDBRANCH  25  26
ENDBRANCH  24  25
ENDBRANCH  18  23
ENDBRANCH  10  18
TORSDOF 9
ENDMDL
