MODEL 1
REMARK VINA RESULT:      -7.6      0.000      0.000
REMARK  Name = 56775892
REMARK  5 active torsions:
REMARK  status: ('A' for Active; 'I' for Inactive)
REMARK    1  A    between atoms: N_6  and  C_16
REMARK    2  A    between atoms: C_11  and  C_14
REMARK    3  A    between atoms: C_16  and  C_18
REMARK    4  A    between atoms: C_17  and  C_20
REMARK    5  A    between atoms: C_24  and  C_27
REMARK                            x       y       z     vdW  Elec       q    Type
REMARK                         _______ _______ _______ _____ _____    ______ ____
ROOT
ATOM      7  N   UNL     1      15.684   7.084  18.946  0.00  0.00    -0.341 N 
ATOM      8  N   UNL     1      14.912   8.963  19.844  0.00  0.00    -0.238 NA
ATOM     14  C   UNL     1      14.691   8.025  18.950  0.00  0.00    +0.127 A 
ATOM     17  C   UNL     1      16.595   7.446  19.898  0.00  0.00    +0.066 A 
ATOM     19  C   UNL     1      16.097   8.608  20.438  0.00  0.00    +0.139 A 
ATOM     28  H   UNL     1      15.731   6.277  18.339  0.00  0.00    +0.167 HD
ENDROOT
BRANCH  14  11
ATOM      5  O   UNL     1      12.807   8.486  15.727  0.00  0.00    -0.377 OA
ATOM      6  N   UNL     1      12.265   8.547  18.538  0.00  0.00    -0.283 NA
ATOM     11  C   UNL     1      13.504   7.928  18.003  0.00  0.00    +0.149 C 
ATOM     12  C   UNL     1      11.196   8.505  17.524  0.00  0.00    +0.113 C 
ATOM     13  C   UNL     1      13.883   8.581  16.659  0.00  0.00    +0.186 C 
ATOM     15  C   UNL     1      11.654   9.159  16.228  0.00  0.00    +0.175 C 
BRANCH   6  16
ATOM     16  C   UNL     1      11.796   7.880  19.758  0.00  0.00    +0.143 C 
BRANCH  16  18
ATOM      1  S   UNL     1      10.940  10.032  22.990  0.00  0.00    +0.028 S 
ATOM      9  N   UNL     1      11.754  10.208  20.627  0.00  0.00    -0.145 NA
ATOM     10  N   UNL     1      11.475  10.945  21.690  0.00  0.00    -0.110 NA
ATOM     18  C   UNL     1      11.529   8.862  20.867  0.00  0.00    +0.086 A 
ATOM     21  C   UNL     1      11.070   8.553  22.132  0.00  0.00    +0.093 A 
ENDBRANCH  16  18
ENDBRANCH   6  16
ENDBRANCH  14  11
BRANCH  17  20
ATOM     20  C   UNL     1      17.784   6.688  20.185  0.00  0.00    -0.000 A 
ATOM     22  C   UNL     1      18.630   7.083  21.222  0.00  0.00    +0.010 A 
ATOM     23  C   UNL     1      18.091   5.557  19.426  0.00  0.00    +0.010 A 
ATOM     24  C   UNL     1      20.090   5.219  20.741  0.00  0.00    +0.055 A 
ATOM     25  C   UNL     1      19.783   6.348  21.499  0.00  0.00    +0.013 A 
ATOM     26  C   UNL     1      19.244   4.824  19.704  0.00  0.00    +0.013 A 
BRANCH  24  27
ATOM      2  F   UNL     1      21.155   3.096  20.828  0.00  0.00    -0.166 F 
ATOM      3  F   UNL     1      22.397   4.792  20.276  0.00  0.00    -0.166 F 
ATOM      4  F   UNL     1      21.748   4.552  22.331  0.00  0.00    -0.166 F 
ATOM     27  C   UNL     1      21.322   4.434  21.038  0.00  0.00    +0.417 C 
ENDBRANCH  24  27
ENDBRANCH  17  20
TORSDOF 5
ENDMDL
MODEL 2
REMARK VINA RESULT:      -7.2      2.820      4.191
REMARK  Name = 56775892
REMARK  5 active torsions:
REMARK  status: ('A' for Active; 'I' for Inactive)
REMARK    1  A    between atoms: N_6  and  C_16
REMARK    2  A    between atoms: C_11  and  C_14
REMARK    3  A    between atoms: C_16  and  C_18
REMARK    4  A    between atoms: C_17  and  C_20
REMARK    5  A    between atoms: C_24  and  C_27
REMARK                            x       y       z     vdW  Elec       q    Type
REMARK                         _______ _______ _______ _____ _____    ______ ____
ROOT
ATOM      7  N   UNL     1      14.866   9.728  21.536  0.00  0.00    -0.341 N 
ATOM      8  N   UNL     1      13.906  10.681  19.774  0.00  0.00    -0.238 NA
ATOM     14  C   UNL     1      13.870  10.547  21.082  0.00  0.00    +0.127 A 
ATOM     17  C   UNL     1      15.582   9.311  20.450  0.00  0.00    +0.066 A 
ATOM     19  C   UNL     1      14.971   9.913  19.375  0.00  0.00    +0.139 A 
ATOM     28  H   UNL     1      15.028   9.473  22.502  0.00  0.00    +0.167 HD
ENDROOT
BRANCH  14  11
ATOM      5  O   UNL     1      12.758  12.430  24.144  0.00  0.00    -0.377 OA
ATOM      6  N   UNL     1      11.825  10.264  22.520  0.00  0.00    -0.283 NA
ATOM     11  C   UNL     1      12.877  11.193  22.038  0.00  0.00    +0.149 C 
ATOM     12  C   UNL     1      10.971  10.935  23.517  0.00  0.00    +0.113 C 
ATOM     13  C   UNL     1      13.649  11.785  23.234  0.00  0.00    +0.186 C 
ATOM     15  C   UNL     1      11.809  11.498  24.656  0.00  0.00    +0.175 C 
BRANCH   6  16
ATOM     16  C   UNL     1      10.984   9.764  21.425  0.00  0.00    +0.143 C 
BRANCH  16  18
ATOM      1  S   UNL     1      11.237   5.796  21.414  0.00  0.00    +0.028 S 
ATOM      9  N   UNL     1      11.616   7.829  19.999  0.00  0.00    -0.145 NA
ATOM     10  N   UNL     1      11.708   6.509  19.973  0.00  0.00    -0.110 NA
ATOM     18  C   UNL     1      11.149   8.282  21.223  0.00  0.00    +0.086 A 
ATOM     21  C   UNL     1      10.877   7.301  22.156  0.00  0.00    +0.093 A 
ENDBRANCH  16  18
ENDBRANCH   6  16
ENDBRANCH  14  11
BRANCH  17  20
ATOM     20  C   UNL     1      16.717   8.432  20.539  0.00  0.00    -0.000 A 
ATOM     22  C   UNL     1      16.686   7.187  19.910  0.00  0.00    +0.010 A 
ATOM     23  C   UNL     1      17.850   8.825  21.253  0.00  0.00    +0.010 A 
ATOM     24  C   UNL     1      18.918   6.726  20.711  0.00  0.00    +0.055 A 
ATOM     25  C   UNL     1      17.786   6.334  19.997  0.00  0.00    +0.013 A 
ATOM     26  C   UNL     1      18.950   7.971  21.339  0.00  0.00    +0.013 A 
BRANCH  24  27
ATOM      2  F   UNL     1      20.448   5.543  22.093  0.00  0.00    -0.166 F 
ATOM      3  F   UNL     1      19.893   4.598  20.215  0.00  0.00    -0.166 F 
ATOM      4  F   UNL     1      21.221   6.313  20.212  0.00  0.00    -0.166 F 
ATOM     27  C   UNL     1      20.094   5.814  20.803  0.00  0.00    +0.417 C 
ENDBRANCH  24  27
ENDBRANCH  17  20
TORSDOF 5
ENDMDL
MODEL 3
REMARK VINA RESULT:      -7.0     16.572     19.270
REMARK  Name = 56775892
REMARK  5 active torsions:
REMARK  status: ('A' for Active; 'I' for Inactive)
REMARK    1  A    between atoms: N_6  and  C_16
REMARK    2  A    between atoms: C_11  and  C_14
REMARK    3  A    between atoms: C_16  and  C_18
REMARK    4  A    between atoms: C_17  and  C_20
REMARK    5  A    between atoms: C_24  and  C_27
REMARK                            x       y       z     vdW  Elec       q    Type
REMARK                         _______ _______ _______ _____ _____    ______ ____
ROOT
ATOM      7  N   UNL     1      12.727   5.283   2.820  0.00  0.00    -0.341 N 
ATOM      8  N   UNL     1      11.882   6.359   1.070  0.00  0.00    -0.238 NA
ATOM     14  C   UNL     1      12.874   5.611   1.501  0.00  0.00    +0.127 A 
ATOM     17  C   UNL     1      11.569   5.860   3.259  0.00  0.00    +0.066 A 
ATOM     19  C   UNL     1      11.066   6.519   2.162  0.00  0.00    +0.139 A 
ATOM     28  H   UNL     1      13.369   4.724   3.366  0.00  0.00    +0.167 HD
ENDROOT
BRANCH  14  11
ATOM      5  O   UNL     1      16.194   5.889  -0.247  0.00  0.00    -0.377 OA
ATOM      6  N   UNL     1      13.700   4.532  -0.618  0.00  0.00    -0.283 NA
ATOM     11  C   UNL     1      14.069   5.127   0.692  0.00  0.00    +0.149 C 
ATOM     12  C   UNL     1      14.913   4.186  -1.380  0.00  0.00    +0.113 C 
ATOM     13  C   UNL     1      15.040   6.306   0.483  0.00  0.00    +0.186 C 
ATOM     15  C   UNL     1      15.820   5.399  -1.533  0.00  0.00    +0.175 C 
BRANCH   6  16
ATOM     16  C   UNL     1      12.869   3.331  -0.464  0.00  0.00    +0.143 C 
BRANCH  16  18
ATOM      1  S   UNL     1      10.347   2.765  -3.485  0.00  0.00    +0.028 S 
ATOM      9  N   UNL     1      10.666   4.052  -1.359  0.00  0.00    -0.145 NA
ATOM     10  N   UNL     1       9.811   3.879  -2.355  0.00  0.00    -0.110 NA
ATOM     18  C   UNL     1      11.791   3.258  -1.512  0.00  0.00    +0.086 A 
ATOM     21  C   UNL     1      11.808   2.462  -2.640  0.00  0.00    +0.093 A 
ENDBRANCH  16  18
ENDBRANCH   6  16
ENDBRANCH  14  11
BRANCH  17  20
ATOM     20  C   UNL     1      11.082   5.732   4.607  0.00  0.00    -0.000 A 
ATOM     22  C   UNL     1      10.186   4.713   4.931  0.00  0.00    +0.010 A 
ATOM     23  C   UNL     1      11.506   6.628   5.591  0.00  0.00    +0.010 A 
ATOM     24  C   UNL     1      10.136   5.484   7.220  0.00  0.00    +0.055 A 
ATOM     25  C   UNL     1       9.713   4.590   6.238  0.00  0.00    +0.013 A 
ATOM     26  C   UNL     1      11.032   6.503   6.897  0.00  0.00    +0.013 A 
BRANCH  24  27
ATOM      2  F   UNL     1       9.092   4.123   8.865  0.00  0.00    -0.166 F 
ATOM      3  F   UNL     1      10.595   5.528   9.568  0.00  0.00    -0.166 F 
ATOM      4  F   UNL     1       8.652   6.251   8.932  0.00  0.00    -0.166 F 
ATOM     27  C   UNL     1       9.631   5.352   8.617  0.00  0.00    +0.417 C 
ENDBRANCH  24  27
ENDBRANCH  17  20
TORSDOF 5
ENDMDL
MODEL 4
REMARK VINA RESULT:      -6.8      2.545      3.292
REMARK  Name = 56775892
REMARK  5 active torsions:
REMARK  status: ('A' for Active; 'I' for Inactive)
REMARK    1  A    between atoms: N_6  and  C_16
REMARK    2  A    between atoms: C_11  and  C_14
REMARK    3  A    between atoms: C_16  and  C_18
REMARK    4  A    between atoms: C_17  and  C_20
REMARK    5  A    between atoms: C_24  and  C_27
REMARK                            x       y       z     vdW  Elec       q    Type
REMARK                         _______ _______ _______ _____ _____    ______ ____
ROOT
ATOM      7  N   UNL     1      15.311   6.796  21.275  0.00  0.00    -0.341 N 
ATOM      8  N   UNL     1      14.159   7.210  19.421  0.00  0.00    -0.238 NA
ATOM     14  C   UNL     1      14.098   7.118  20.731  0.00  0.00    +0.127 A 
ATOM     17  C   UNL     1      16.202   6.673  20.246  0.00  0.00    +0.066 A 
ATOM     19  C   UNL     1      15.467   6.933  19.113  0.00  0.00    +0.139 A 
ATOM     28  H   UNL     1      15.502   6.664  22.259  0.00  0.00    +0.167 HD
ENDROOT
BRANCH  14  11
ATOM      5  O   UNL     1      10.651   6.414  22.064  0.00  0.00    -0.377 OA
ATOM      6  N   UNL     1      12.286   8.693  21.487  0.00  0.00    -0.283 NA
ATOM     11  C   UNL     1      12.870   7.333  21.604  0.00  0.00    +0.149 C 
ATOM     12  C   UNL     1      11.047   8.785  22.279  0.00  0.00    +0.113 C 
ATOM     13  C   UNL     1      11.812   6.270  21.246  0.00  0.00    +0.186 C 
ATOM     15  C   UNL     1      10.062   7.698  21.871  0.00  0.00    +0.175 C 
BRANCH   6  16
ATOM     16  C   UNL     1      13.220   9.735  21.932  0.00  0.00    +0.143 C 
BRANCH  16  18
ATOM      1  S   UNL     1      12.565  13.325  20.354  0.00  0.00    +0.028 S 
ATOM      9  N   UNL     1      13.404  11.026  19.816  0.00  0.00    -0.145 NA
ATOM     10  N   UNL     1      13.194  12.214  19.270  0.00  0.00    -0.110 NA
ATOM     18  C   UNL     1      13.046  11.012  21.155  0.00  0.00    +0.086 A 
ATOM     21  C   UNL     1      12.552  12.202  21.651  0.00  0.00    +0.093 A 
ENDBRANCH  16  18
ENDBRANCH   6  16
ENDBRANCH  14  11
BRANCH  17  20
ATOM     20  C   UNL     1      17.589   6.340  20.434  0.00  0.00    -0.000 A 
ATOM     22  C   UNL     1      18.189   5.370  19.631  0.00  0.00    +0.010 A 
ATOM     23  C   UNL     1      18.334   6.989  21.420  0.00  0.00    +0.010 A 
ATOM     24  C   UNL     1      20.278   5.695  20.800  0.00  0.00    +0.055 A 
ATOM     25  C   UNL     1      19.534   5.047  19.815  0.00  0.00    +0.013 A 
ATOM     26  C   UNL     1      19.678   6.666  21.603  0.00  0.00    +0.013 A 
BRANCH  24  27
ATOM      2  F   UNL     1      22.544   6.075  20.188  0.00  0.00    -0.166 F 
ATOM      3  F   UNL     1      22.163   5.566  22.267  0.00  0.00    -0.166 F 
ATOM      4  F   UNL     1      22.004   4.041  20.734  0.00  0.00    -0.166 F 
ATOM     27  C   UNL     1      21.716   5.350  20.995  0.00  0.00    +0.417 C 
ENDBRANCH  24  27
ENDBRANCH  17  20
TORSDOF 5
ENDMDL
MODEL 5
REMARK VINA RESULT:      -6.7     26.749     28.568
REMARK  Name = 56775892
REMARK  5 active torsions:
REMARK  status: ('A' for Active; 'I' for Inactive)
REMARK    1  A    between atoms: N_6  and  C_16
REMARK    2  A    between atoms: C_11  and  C_14
REMARK    3  A    between atoms: C_16  and  C_18
REMARK    4  A    between atoms: C_17  and  C_20
REMARK    5  A    between atoms: C_24  and  C_27
REMARK                            x       y       z     vdW  Elec       q    Type
REMARK                         _______ _______ _______ _____ _____    ______ ____
ROOT
ATOM      7  N   UNL     1      -3.953 -10.480  13.081  0.00  0.00    -0.341 N 
ATOM      8  N   UNL     1      -1.787 -10.388  12.595  0.00  0.00    -0.238 NA
ATOM     14  C   UNL     1      -3.005 -10.386  12.099  0.00  0.00    +0.127 A 
ATOM     17  C   UNL     1      -3.298 -10.547  14.278  0.00  0.00    +0.066 A 
ATOM     19  C   UNL     1      -1.963 -10.489  13.952  0.00  0.00    +0.139 A 
ATOM     28  H   UNL     1      -4.954 -10.504  12.936  0.00  0.00    +0.167 HD
ENDROOT
BRANCH  14  11
ATOM      5  O   UNL     1      -4.375  -8.764   8.993  0.00  0.00    -0.377 OA
ATOM      6  N   UNL     1      -4.316 -11.366  10.188  0.00  0.00    -0.283 NA
ATOM     11  C   UNL     1      -3.392 -10.291  10.630  0.00  0.00    +0.149 C 
ATOM     12  C   UNL     1      -4.722 -11.144   8.789  0.00  0.00    +0.113 C 
ATOM     13  C   UNL     1      -4.024  -8.910  10.369  0.00  0.00    +0.186 C 
ATOM     15  C   UNL     1      -5.326  -9.757   8.615  0.00  0.00    +0.175 C 
BRANCH   6  16
ATOM     16  C   UNL     1      -3.710 -12.698  10.307  0.00  0.00    +0.143 C 
BRANCH  16  18
ATOM      1  S   UNL     1      -3.811 -14.484  13.857  0.00  0.00    +0.028 S 
ATOM      9  N   UNL     1      -5.178 -13.111  12.269  0.00  0.00    -0.145 NA
ATOM     10  N   UNL     1      -5.234 -13.698  13.455  0.00  0.00    -0.110 NA
ATOM     18  C   UNL     1      -3.945 -13.301  11.666  0.00  0.00    +0.086 A 
ATOM     21  C   UNL     1      -3.036 -14.045  12.391  0.00  0.00    +0.093 A 
ENDBRANCH  16  18
ENDBRANCH   6  16
ENDBRANCH  14  11
BRANCH  17  20
ATOM     20  C   UNL     1      -3.972 -10.652  15.545  0.00  0.00    -0.000 A 
ATOM     22  C   UNL     1      -5.247 -10.109  15.703  0.00  0.00    +0.010 A 
ATOM     23  C   UNL     1      -3.350 -11.297  16.615  0.00  0.00    +0.010 A 
ATOM     24  C   UNL     1      -5.279 -10.855  18.001  0.00  0.00    +0.055 A 
ATOM     25  C   UNL     1      -5.900 -10.211  16.932  0.00  0.00    +0.013 A 
ATOM     26  C   UNL     1      -4.003 -11.397  17.843  0.00  0.00    +0.013 A 
BRANCH  24  27
ATOM      2  F   UNL     1      -7.142 -11.668  19.232  0.00  0.00    -0.166 F 
ATOM      3  F   UNL     1      -5.238 -11.587  20.278  0.00  0.00    -0.166 F 
ATOM      4  F   UNL     1      -6.318  -9.755  19.854  0.00  0.00    -0.166 F 
ATOM     27  C   UNL     1      -5.977 -10.963  19.314  0.00  0.00    +0.417 C 
ENDBRANCH  24  27
ENDBRANCH  17  20
TORSDOF 5
ENDMDL
MODEL 6
REMARK VINA RESULT:      -6.7     27.088     29.626
REMARK  Name = 56775892
REMARK  5 active torsions:
REMARK  status: ('A' for Active; 'I' for Inactive)
REMARK    1  A    between atoms: N_6  and  C_16
REMARK    2  A    between atoms: C_11  and  C_14
REMARK    3  A    between atoms: C_16  and  C_18
REMARK    4  A    between atoms: C_17  and  C_20
REMARK    5  A    between atoms: C_24  and  C_27
REMARK                            x       y       z     vdW  Elec       q    Type
REMARK                         _______ _______ _______ _____ _____    ______ ____
ROOT
ATOM      7  N   UNL     1      -5.974 -10.244  15.644  0.00  0.00    -0.341 N 
ATOM      8  N   UNL     1      -5.967 -12.420  16.093  0.00  0.00    -0.238 NA
ATOM     14  C   UNL     1      -5.233 -11.390  15.733  0.00  0.00    +0.127 A 
ATOM     17  C   UNL     1      -7.263 -10.564  15.966  0.00  0.00    +0.066 A 
ATOM     19  C   UNL     1      -7.233 -11.912  16.239  0.00  0.00    +0.139 A 
ATOM     28  H   UNL     1      -5.626  -9.333  15.377  0.00  0.00    +0.167 HD
ENDROOT
BRANCH  14  11
ATOM      5  O   UNL     1      -1.579 -10.829  16.435  0.00  0.00    -0.377 OA
ATOM      6  N   UNL     1      -3.374 -10.638  14.212  0.00  0.00    -0.283 NA
ATOM     11  C   UNL     1      -3.740 -11.392  15.438  0.00  0.00    +0.149 C 
ATOM     12  C   UNL     1      -1.909 -10.601  14.055  0.00  0.00    +0.113 C 
ATOM     13  C   UNL     1      -2.990 -10.817  16.655  0.00  0.00    +0.186 C 
ATOM     15  C   UNL     1      -1.247 -10.030  15.301  0.00  0.00    +0.175 C 
BRANCH   6  16
ATOM     16  C   UNL     1      -3.972 -11.223  13.005  0.00  0.00    +0.143 C 
BRANCH  16  18
ATOM      1  S   UNL     1      -5.254  -8.519  10.386  0.00  0.00    +0.028 S 
ATOM      9  N   UNL     1      -5.841  -9.651  12.543  0.00  0.00    -0.145 NA
ATOM     10  N   UNL     1      -6.287  -8.748  11.684  0.00  0.00    -0.110 NA
ATOM     18  C   UNL     1      -4.624 -10.178  12.140  0.00  0.00    +0.086 A 
ATOM     21  C   UNL     1      -4.122  -9.675  10.956  0.00  0.00    +0.093 A 
ENDBRANCH  16  18
ENDBRANCH   6  16
ENDBRANCH  14  11
BRANCH  17  20
ATOM     20  C   UNL     1      -8.337  -9.606  15.984  0.00  0.00    -0.000 A 
ATOM     22  C   UNL     1      -9.068  -9.356  14.822  0.00  0.00    +0.010 A 
ATOM     23  C   UNL     1      -8.647  -8.928  17.164  0.00  0.00    +0.010 A 
ATOM     24  C   UNL     1     -10.418  -7.749  16.018  0.00  0.00    +0.055 A 
ATOM     25  C   UNL     1     -10.108  -8.427  14.840  0.00  0.00    +0.013 A 
ATOM     26  C   UNL     1      -9.687  -7.999  17.180  0.00  0.00    +0.013 A 
BRANCH  24  27
ATOM      2  F   UNL     1     -11.264  -5.684  16.838  0.00  0.00    -0.166 F 
ATOM      3  F   UNL     1     -11.817  -6.231  14.808  0.00  0.00    -0.166 F 
ATOM      4  F   UNL     1     -12.713  -7.267  16.490  0.00  0.00    -0.166 F 
ATOM     27  C   UNL     1     -11.530  -6.756  16.036  0.00  0.00    +0.417 C 
ENDBRANCH  24  27
ENDBRANCH  17  20
TORSDOF 5
ENDMDL
MODEL 7
REMARK VINA RESULT:      -6.6      2.793      3.867
REMARK  Name = 56775892
REMARK  5 active torsions:
REMARK  status: ('A' for Active; 'I' for Inactive)
REMARK    1  A    between atoms: N_6  and  C_16
REMARK    2  A    between atoms: C_11  and  C_14
REMARK    3  A    between atoms: C_16  and  C_18
REMARK    4  A    between atoms: C_17  and  C_20
REMARK    5  A    between atoms: C_24  and  C_27
REMARK                            x       y       z     vdW  Elec       q    Type
REMARK                         _______ _______ _______ _____ _____    ______ ____
ROOT
ATOM      7  N   UNL     1      15.901   8.657  20.863  0.00  0.00    -0.341 N 
ATOM      8  N   UNL     1      13.977   7.900  20.052  0.00  0.00    -0.238 NA
ATOM     14  C   UNL     1      14.583   8.923  20.614  0.00  0.00    +0.127 A 
ATOM     17  C   UNL     1      16.151   7.385  20.433  0.00  0.00    +0.066 A 
ATOM     19  C   UNL     1      14.949   6.939  19.937  0.00  0.00    +0.139 A 
ATOM     28  H   UNL     1      16.561   9.290  21.296  0.00  0.00    +0.167 HD
ENDROOT
BRANCH  14  11
ATOM      5  O   UNL     1      12.449  11.323  22.573  0.00  0.00    -0.377 OA
ATOM      6  N   UNL     1      13.223  10.898  19.850  0.00  0.00    -0.283 NA
ATOM     11  C   UNL     1      13.964  10.267  20.971  0.00  0.00    +0.149 C 
ATOM     12  C   UNL     1      12.570  12.138  20.305  0.00  0.00    +0.113 C 
ATOM     13  C   UNL     1      13.030  10.079  22.182  0.00  0.00    +0.186 C 
ATOM     15  C   UNL     1      11.675  11.867  21.507  0.00  0.00    +0.175 C 
BRANCH   6  16
ATOM     16  C   UNL     1      14.100  11.206  18.713  0.00  0.00    +0.143 C 
BRANCH  16  18
ATOM      1  S   UNL     1      12.401   9.339  15.640  0.00  0.00    +0.028 S 
ATOM      9  N   UNL     1      14.088  11.095  16.230  0.00  0.00    -0.145 NA
ATOM     10  N   UNL     1      13.536  10.486  15.192  0.00  0.00    -0.110 NA
ATOM     18  C   UNL     1      13.578  10.620  17.428  0.00  0.00    +0.086 A 
ATOM     21  C   UNL     1      12.621   9.632  17.316  0.00  0.00    +0.093 A 
ENDBRANCH  16  18
ENDBRANCH   6  16
ENDBRANCH  14  11
BRANCH  17  20
ATOM     20  C   UNL     1      17.441   6.754  20.531  0.00  0.00    -0.000 A 
ATOM     22  C   UNL     1      17.824   5.800  19.588  0.00  0.00    +0.010 A 
ATOM     23  C   UNL     1      18.309   7.098  21.568  0.00  0.00    +0.010 A 
ATOM     24  C   UNL     1      19.942   5.532  20.719  0.00  0.00    +0.055 A 
ATOM     25  C   UNL     1      19.075   5.189  19.683  0.00  0.00    +0.013 A 
ATOM     26  C   UNL     1      19.559   6.486  21.662  0.00  0.00    +0.013 A 
BRANCH  24  27
ATOM      2  F   UNL     1      21.203   3.518  20.756  0.00  0.00    -0.166 F 
ATOM      3  F   UNL     1      22.144   5.246  19.830  0.00  0.00    -0.166 F 
ATOM      4  F   UNL     1      21.935   5.155  21.986  0.00  0.00    -0.166 F 
ATOM     27  C   UNL     1      21.278   4.879  20.820  0.00  0.00    +0.417 C 
ENDBRANCH  24  27
ENDBRANCH  17  20
TORSDOF 5
ENDMDL
MODEL 8
REMARK VINA RESULT:      -6.4     27.623     29.566
REMARK  Name = 56775892
REMARK  5 active torsions:
REMARK  status: ('A' for Active; 'I' for Inactive)
REMARK    1  A    between atoms: N_6  and  C_16
REMARK    2  A    between atoms: C_11  and  C_14
REMARK    3  A    between atoms: C_16  and  C_18
REMARK    4  A    between atoms: C_17  and  C_20
REMARK    5  A    between atoms: C_24  and  C_27
REMARK                            x       y       z     vdW  Elec       q    Type
REMARK                         _______ _______ _______ _____ _____    ______ ____
ROOT
ATOM      7  N   UNL     1      -7.107 -11.635  18.034  0.00  0.00    -0.341 N 
ATOM      8  N   UNL     1      -6.903 -10.904  20.122  0.00  0.00    -0.238 NA
ATOM     14  C   UNL     1      -7.675 -11.549  19.275  0.00  0.00    +0.127 A 
ATOM     17  C   UNL     1      -5.897 -11.003  18.093  0.00  0.00    +0.066 A 
ATOM     19  C   UNL     1      -5.793 -10.562  19.391  0.00  0.00    +0.139 A 
ATOM     28  H   UNL     1      -7.519 -12.077  17.223  0.00  0.00    +0.167 HD
ENDROOT
BRANCH  14  11
ATOM      5  O   UNL     1     -10.203 -14.302  19.707  0.00  0.00    -0.377 OA
ATOM      6  N   UNL     1     -10.124 -11.622  18.700  0.00  0.00    -0.283 NA
ATOM     11  C   UNL     1      -9.041 -12.156  19.565  0.00  0.00    +0.149 C 
ATOM     12  C   UNL     1     -11.387 -12.332  18.971  0.00  0.00    +0.113 C 
ATOM     13  C   UNL     1      -8.949 -13.687  19.413  0.00  0.00    +0.186 C 
ATOM     15  C   UNL     1     -11.208 -13.835  18.810  0.00  0.00    +0.175 C 
BRANCH   6  16
ATOM     16  C   UNL     1     -10.330 -10.182  18.898  0.00  0.00    +0.143 C 
BRANCH  16  18
ATOM      1  S   UNL     1     -10.086  -7.729  15.779  0.00  0.00    +0.028 S 
ATOM      9  N   UNL     1      -9.429 -10.007  16.588  0.00  0.00    -0.145 NA
ATOM     10  N   UNL     1      -9.335  -9.207  15.538  0.00  0.00    -0.110 NA
ATOM     18  C   UNL     1     -10.129  -9.407  17.623  0.00  0.00    +0.086 A 
ATOM     21  C   UNL     1     -10.584  -8.129  17.371  0.00  0.00    +0.093 A 
ENDBRANCH  16  18
ENDBRANCH   6  16
ENDBRANCH  14  11
BRANCH  17  20
ATOM     20  C   UNL     1      -5.005 -10.892  16.969  0.00  0.00    -0.000 A 
ATOM     22  C   UNL     1      -3.639 -11.121  17.136  0.00  0.00    +0.010 A 
ATOM     23  C   UNL     1      -5.508 -10.556  15.711  0.00  0.00    +0.010 A 
ATOM     24  C   UNL     1      -3.277 -10.676  14.789  0.00  0.00    +0.055 A 
ATOM     25  C   UNL     1      -2.776 -11.013  16.046  0.00  0.00    +0.013 A 
ATOM     26  C   UNL     1      -4.643 -10.447  14.622  0.00  0.00    +0.013 A 
BRANCH  24  27
ATOM      2  F   UNL     1      -1.346  -9.666  13.841  0.00  0.00    -0.166 F 
ATOM      3  F   UNL     1      -1.737 -11.734  13.295  0.00  0.00    -0.166 F 
ATOM      4  F   UNL     1      -2.969 -10.148  12.477  0.00  0.00    -0.166 F 
ATOM     27  C   UNL     1      -2.354 -10.561  13.624  0.00  0.00    +0.417 C 
ENDBRANCH  24  27
ENDBRANCH  17  20
TORSDOF 5
ENDMDL
MODEL 9
REMARK VINA RESULT:      -6.4      6.142      9.356
REMARK  Name = 56775892
REMARK  5 active torsions:
REMARK  status: ('A' for Active; 'I' for Inactive)
REMARK    1  A    between atoms: N_6  and  C_16
REMARK    2  A    between atoms: C_11  and  C_14
REMARK    3  A    between atoms: C_16  and  C_18
REMARK    4  A    between atoms: C_17  and  C_20
REMARK    5  A    between atoms: C_24  and  C_27
REMARK                            x       y       z     vdW  Elec       q    Type
REMARK                         _______ _______ _______ _____ _____    ______ ____
ROOT
ATOM      7  N   UNL     1      17.580   7.946  21.651  0.00  0.00    -0.341 N 
ATOM      8  N   UNL     1      18.818   6.587  20.406  0.00  0.00    -0.238 NA
ATOM     14  C   UNL     1      18.839   7.517  21.335  0.00  0.00    +0.127 A 
ATOM     17  C   UNL     1      16.700   7.245  20.875  0.00  0.00    +0.066 A 
ATOM     19  C   UNL     1      17.489   6.413  20.115  0.00  0.00    +0.139 A 
ATOM     28  H   UNL     1      17.351   8.660  22.330  0.00  0.00    +0.167 HD
ENDROOT
BRANCH  14  11
ATOM      5  O   UNL     1      21.622   9.980  21.919  0.00  0.00    -0.377 OA
ATOM      6  N   UNL     1      21.213   7.151  22.083  0.00  0.00    -0.283 NA
ATOM     11  C   UNL     1      20.069   8.095  22.020  0.00  0.00    +0.149 C 
ATOM     12  C   UNL     1      22.392   7.817  22.665  0.00  0.00    +0.113 C 
ATOM     13  C   UNL     1      20.488   9.385  21.289  0.00  0.00    +0.186 C 
ATOM     15  C   UNL     1      22.732   9.085  21.892  0.00  0.00    +0.175 C 
BRANCH   6  16
ATOM     16  C   UNL     1      20.899   5.954  22.873  0.00  0.00    +0.143 C 
BRANCH  16  18
ATOM      1  S   UNL     1      22.959   2.992  21.201  0.00  0.00    +0.028 S 
ATOM      9  N   UNL     1      22.211   3.912  23.409  0.00  0.00    -0.145 NA
ATOM     10  N   UNL     1      22.901   2.917  22.874  0.00  0.00    -0.110 NA
ATOM     18  C   UNL     1      21.712   4.765  22.437  0.00  0.00    +0.086 A 
ATOM     21  C   UNL     1      22.019   4.426  21.134  0.00  0.00    +0.093 A 
ENDBRANCH  16  18
ENDBRANCH   6  16
ENDBRANCH  14  11
BRANCH  17  20
ATOM     20  C   UNL     1      15.274   7.426  20.932  0.00  0.00    -0.000 A 
ATOM     22  C   UNL     1      14.712   8.223  21.930  0.00  0.00    +0.010 A 
ATOM     23  C   UNL     1      14.454   6.805  19.989  0.00  0.00    +0.010 A 
ATOM     24  C   UNL     1      12.509   7.777  21.044  0.00  0.00    +0.055 A 
ATOM     25  C   UNL     1      13.329   8.398  21.985  0.00  0.00    +0.013 A 
ATOM     26  C   UNL     1      13.071   6.980  20.046  0.00  0.00    +0.013 A 
BRANCH  24  27
ATOM      2  F   UNL     1      10.661   8.940  21.982  0.00  0.00    -0.166 F 
ATOM      3  F   UNL     1      10.474   8.317  19.908  0.00  0.00    -0.166 F 
ATOM      4  F   UNL     1      10.353   6.844  21.494  0.00  0.00    -0.166 F 
ATOM     27  C   UNL     1      11.031   7.964  21.104  0.00  0.00    +0.417 C 
ENDBRANCH  24  27
ENDBRANCH  17  20
TORSDOF 5
ENDMDL
MODEL 10
REMARK VINA RESULT:      -6.3      5.227      7.323
REMARK  Name = 56775892
REMARK  5 active torsions:
REMARK  status: ('A' for Active; 'I' for Inactive)
REMARK    1  A    between atoms: N_6  and  C_16
REMARK    2  A    between atoms: C_11  and  C_14
REMARK    3  A    between atoms: C_16  and  C_18
REMARK    4  A    between atoms: C_17  and  C_20
REMARK    5  A    between atoms: C_24  and  C_27
REMARK                            x       y       z     vdW  Elec       q    Type
REMARK                         _______ _______ _______ _____ _____    ______ ____
ROOT
ATOM      7  N   UNL     1      13.854   9.522  18.008  0.00  0.00    -0.341 N 
ATOM      8  N   UNL     1      13.272   7.826  16.697  0.00  0.00    -0.238 NA
ATOM     14  C   UNL     1      13.208   8.321  17.914  0.00  0.00    +0.127 A 
ATOM     17  C   UNL     1      14.364   9.811  16.774  0.00  0.00    +0.066 A 
ATOM     19  C   UNL     1      13.992   8.750  15.982  0.00  0.00    +0.139 A 
ATOM     28  H   UNL     1      13.942  10.082  18.846  0.00  0.00    +0.167 HD
ENDROOT
BRANCH  14  11
ATOM      5  O   UNL     1      10.551   7.940  20.551  0.00  0.00    -0.377 OA
ATOM      6  N   UNL     1      13.385   7.601  20.319  0.00  0.00    -0.283 NA
ATOM     11  C   UNL     1      12.517   7.695  19.118  0.00  0.00    +0.149 C 
ATOM     12  C   UNL     1      12.615   7.084  21.464  0.00  0.00    +0.113 C 
ATOM     13  C   UNL     1      11.250   8.510  19.444  0.00  0.00    +0.186 C 
ATOM     15  C   UNL     1      11.378   7.936  21.712  0.00  0.00    +0.175 C 
BRANCH   6  16
ATOM     16  C   UNL     1      14.549   6.735  20.092  0.00  0.00    +0.143 C 
BRANCH  16  18
ATOM      1  S   UNL     1      18.105   7.991  21.352  0.00  0.00    +0.028 S 
ATOM      9  N   UNL     1      15.962   8.768  20.312  0.00  0.00    -0.145 NA
ATOM     10  N   UNL     1      17.140   9.208  20.726  0.00  0.00    -0.110 NA
ATOM     18  C   UNL     1      15.833   7.402  20.508  0.00  0.00    +0.086 A 
ATOM     21  C   UNL     1      16.924   6.777  21.079  0.00  0.00    +0.093 A 
ENDBRANCH  16  18
ENDBRANCH   6  16
ENDBRANCH  14  11
BRANCH  17  20
ATOM     20  C   UNL     1      15.112  11.006  16.486  0.00  0.00    -0.000 A 
ATOM     22  C   UNL     1      15.571  11.246  15.191  0.00  0.00    +0.010 A 
ATOM     23  C   UNL     1      15.377  11.926  17.502  0.00  0.00    +0.010 A 
ATOM     24  C   UNL     1      16.562  13.323  15.927  0.00  0.00    +0.055 A 
ATOM     25  C   UNL     1      16.297  12.405  14.911  0.00  0.00    +0.013 A 
ATOM     26  C   UNL     1      16.102  13.083  17.222  0.00  0.00    +0.013 A 
BRANCH  24  27
ATOM      2  F   UNL     1      17.583  15.308  16.743  0.00  0.00    -0.166 F 
ATOM      3  F   UNL     1      18.561  14.321  15.071  0.00  0.00    -0.166 F 
ATOM      4  F   UNL     1      16.709  15.403  14.755  0.00  0.00    -0.166 F 
ATOM     27  C   UNL     1      17.337  14.561  15.628  0.00  0.00    +0.417 C 
ENDBRANCH  24  27
ENDBRANCH  17  20
TORSDOF 5
ENDMDL
