MODEL 1
REMARK VINA RESULT:      -6.9      0.000      0.000
REMARK  Name = 71693364
REMARK  8 active torsions:
REMARK  status: ('A' for Active; 'I' for Inactive)
REMARK    1  A    between atoms: O_2  and  C_12
REMARK    2  A    between atoms: N_5  and  C_11
REMARK    3  A    between atoms: N_6  and  C_22
REMARK    4  A    between atoms: C_9  and  C_12
REMARK    5  A    between atoms: C_10  and  C_14
REMARK    6  A    between atoms: C_11  and  C_16
REMARK    7  A    between atoms: C_11  and  C_17
REMARK    8  A    between atoms: C_23  and  C_24
REMARK                            x       y       z     vdW  Elec       q    Type
REMARK                         _______ _______ _______ _____ _____    ______ ____
ROOT
ATOM     14  C   UNL     1      15.637   6.600  19.976  0.00  0.00    -0.017 A 
ATOM     18  C   UNL     1      16.308   6.062  18.878  0.00  0.00    +0.008 A 
ATOM     19  C   UNL     1      16.327   6.853  21.161  0.00  0.00    +0.008 A 
ATOM     20  C   UNL     1      17.669   5.775  18.965  0.00  0.00    +0.023 A 
ATOM     21  C   UNL     1      17.690   6.566  21.248  0.00  0.00    +0.023 A 
ATOM     22  C   UNL     1      18.361   6.027  20.150  0.00  0.00    +0.034 A 
ENDROOT
BRANCH  14  10
ATOM      1  O   UNL     1      13.607   6.755  21.193  0.00  0.00    -0.361 OA
ATOM      3  O   UNL     1      12.256   9.744  22.172  0.00  0.00    -0.273 OA
ATOM      5  N   UNL     1      13.557   9.305  20.285  0.00  0.00    -0.289 N 
ATOM      9  C   UNL     1      13.913   8.314  19.263  0.00  0.00    +0.135 C 
ATOM     10  C   UNL     1      14.155   6.911  19.881  0.00  0.00    +0.171 C 
ATOM     13  C   UNL     1      12.725   8.962  21.347  0.00  0.00    +0.242 C 
ATOM     15  C   UNL     1      12.415   7.485  21.403  0.00  0.00    +0.256 C 
BRANCH   5  11
ATOM     11  C   UNL     1      13.984  10.682  20.082  0.00  0.00    +0.070 C 
ATOM     16  C   UNL     1      12.957  11.436  19.248  0.00  0.00    +0.028 C 
ATOM     17  C   UNL     1      15.361  10.724  19.433  0.00  0.00    +0.028 C 
ENDBRANCH   5  11
BRANCH   9  12
ATOM     12  C   UNL     1      12.845   8.260  18.163  0.00  0.00    +0.181 C 
BRANCH  12   2
ATOM      2  O   UNL     1      12.476   6.910  17.972  0.00  0.00    -0.393 OA
ATOM     28  H   UNL     1      11.667   6.907  17.432  0.00  0.00    +0.209 HD
ENDBRANCH  12   2
ENDBRANCH   9  12
ENDBRANCH  14  10
BRANCH  22   6
ATOM      4  O   UNL     1      20.674   7.804  20.843  0.00  0.00    -0.268 OA
ATOM      6  N   UNL     1      19.724   5.740  20.239  0.00  0.00    -0.280 N 
ATOM     23  C   UNL     1      20.769   6.613  20.569  0.00  0.00    +0.268 C 
ATOM     29  H   UNL     1      19.979   4.775  20.042  0.00  0.00    +0.155 HD
BRANCH  23  24
ATOM      7  N   UNL     1      23.171   6.843  20.547  0.00  0.00    -0.247 NA
ATOM      8  N   UNL     1      23.510   4.065  20.738  0.00  0.00    -0.259 NA
ATOM     24  C   UNL     1      22.122   5.999  20.609  0.00  0.00    +0.144 A 
ATOM     25  C   UNL     1      22.289   4.634  20.702  0.00  0.00    +0.143 A 
ATOM     26  C   UNL     1      24.392   6.274  20.582  0.00  0.00    +0.131 A 
ATOM     27  C   UNL     1      24.559   4.910  20.676  0.00  0.00    +0.130 A 
ENDBRANCH  23  24
ENDBRANCH  22   6
TORSDOF 6
ENDMDL
MODEL 2
REMARK VINA RESULT:      -6.8      1.617      2.174
REMARK  Name = 71693364
REMARK  8 active torsions:
REMARK  status: ('A' for Active; 'I' for Inactive)
REMARK    1  A    between atoms: O_2  and  C_12
REMARK    2  A    between atoms: N_5  and  C_11
REMARK    3  A    between atoms: N_6  and  C_22
REMARK    4  A    between atoms: C_9  and  C_12
REMARK    5  A    between atoms: C_10  and  C_14
REMARK    6  A    between atoms: C_11  and  C_16
REMARK    7  A    between atoms: C_11  and  C_17
REMARK    8  A    between atoms: C_23  and  C_24
REMARK                            x       y       z     vdW  Elec       q    Type
REMARK                         _______ _______ _______ _____ _____    ______ ____
ROOT
ATOM     14  C   UNL     1      15.898   7.743  20.621  0.00  0.00    -0.017 A 
ATOM     18  C   UNL     1      16.111   6.578  19.884  0.00  0.00    +0.008 A 
ATOM     19  C   UNL     1      16.960   8.346  21.295  0.00  0.00    +0.008 A 
ATOM     20  C   UNL     1      17.385   6.016  19.821  0.00  0.00    +0.023 A 
ATOM     21  C   UNL     1      18.236   7.783  21.232  0.00  0.00    +0.023 A 
ATOM     22  C   UNL     1      18.448   6.618  20.494  0.00  0.00    +0.034 A 
ENDROOT
BRANCH  14  10
ATOM      1  O   UNL     1      14.679   9.748  20.968  0.00  0.00    -0.361 OA
ATOM      3  O   UNL     1      13.297  11.545  18.404  0.00  0.00    -0.273 OA
ATOM      5  N   UNL     1      13.646   9.240  18.518  0.00  0.00    -0.289 N 
ATOM      9  C   UNL     1      13.705   8.066  19.396  0.00  0.00    +0.135 C 
ATOM     10  C   UNL     1      14.512   8.354  20.690  0.00  0.00    +0.171 C 
ATOM     13  C   UNL     1      13.496  10.517  19.050  0.00  0.00    +0.242 C 
ATOM     15  C   UNL     1      13.587  10.546  20.557  0.00  0.00    +0.256 C 
BRANCH   5  11
ATOM     11  C   UNL     1      13.610   9.018  17.080  0.00  0.00    +0.070 C 
ATOM     16  C   UNL     1      12.174   9.049  16.576  0.00  0.00    +0.028 C 
ATOM     17  C   UNL     1      14.292   7.703  16.725  0.00  0.00    +0.028 C 
ENDBRANCH   5  11
BRANCH   9  12
ATOM     12  C   UNL     1      12.294   7.560  19.723  0.00  0.00    +0.181 C 
BRANCH  12   2
ATOM      2  O   UNL     1      12.211   6.203  19.338  0.00  0.00    -0.393 OA
ATOM     28  H   UNL     1      11.421   5.831  19.766  0.00  0.00    +0.209 HD
ENDBRANCH  12   2
ENDBRANCH   9  12
ENDBRANCH  14  10
BRANCH  22   6
ATOM      4  O   UNL     1      20.325   5.829  22.694  0.00  0.00    -0.268 OA
ATOM      6  N   UNL     1      19.723   6.055  20.432  0.00  0.00    -0.280 N 
ATOM     23  C   UNL     1      20.563   5.704  21.498  0.00  0.00    +0.268 C 
ATOM     29  H   UNL     1      20.077   5.878  19.495  0.00  0.00    +0.155 HD
BRANCH  23  24
ATOM      7  N   UNL     1      22.812   5.932  20.653  0.00  0.00    -0.247 NA
ATOM      8  N   UNL     1      23.246   3.168  20.862  0.00  0.00    -0.259 NA
ATOM     24  C   UNL     1      21.861   5.093  21.110  0.00  0.00    +0.144 A 
ATOM     25  C   UNL     1      22.074   3.735  21.212  0.00  0.00    +0.143 A 
ATOM     26  C   UNL     1      23.983   5.365  20.302  0.00  0.00    +0.131 A 
ATOM     27  C   UNL     1      24.197   4.008  20.405  0.00  0.00    +0.130 A 
ENDBRANCH  23  24
ENDBRANCH  22   6
TORSDOF 6
ENDMDL
MODEL 3
REMARK VINA RESULT:      -6.7      2.418      8.787
REMARK  Name = 71693364
REMARK  8 active torsions:
REMARK  status: ('A' for Active; 'I' for Inactive)
REMARK    1  A    between atoms: O_2  and  C_12
REMARK    2  A    between atoms: N_5  and  C_11
REMARK    3  A    between atoms: N_6  and  C_22
REMARK    4  A    between atoms: C_9  and  C_12
REMARK    5  A    between atoms: C_10  and  C_14
REMARK    6  A    between atoms: C_11  and  C_16
REMARK    7  A    between atoms: C_11  and  C_17
REMARK    8  A    between atoms: C_23  and  C_24
REMARK                            x       y       z     vdW  Elec       q    Type
REMARK                         _______ _______ _______ _____ _____    ______ ____
ROOT
ATOM     14  C   UNL     1      18.089   6.448  20.588  0.00  0.00    -0.017 A 
ATOM     18  C   UNL     1      17.379   7.595  20.943  0.00  0.00    +0.008 A 
ATOM     19  C   UNL     1      17.714   5.715  19.462  0.00  0.00    +0.008 A 
ATOM     20  C   UNL     1      16.292   8.007  20.173  0.00  0.00    +0.023 A 
ATOM     21  C   UNL     1      16.626   6.128  18.692  0.00  0.00    +0.023 A 
ATOM     22  C   UNL     1      15.916   7.274  19.047  0.00  0.00    +0.034 A 
ENDROOT
BRANCH  14  10
ATOM      1  O   UNL     1      20.093   5.179  20.590  0.00  0.00    -0.361 OA
ATOM      3  O   UNL     1      23.194   6.610  20.371  0.00  0.00    -0.273 OA
ATOM      5  N   UNL     1      21.262   7.507  21.325  0.00  0.00    -0.289 N 
ATOM      9  C   UNL     1      20.017   7.212  22.042  0.00  0.00    +0.135 C 
ATOM     10  C   UNL     1      19.271   5.999  21.426  0.00  0.00    +0.171 C 
ATOM     13  C   UNL     1      22.072   6.477  20.855  0.00  0.00    +0.242 C 
ATOM     15  C   UNL     1      21.443   5.112  21.006  0.00  0.00    +0.256 C 
BRANCH   5  11
ATOM     11  C   UNL     1      21.693   8.895  21.242  0.00  0.00    +0.070 C 
ATOM     16  C   UNL     1      22.626   9.229  22.398  0.00  0.00    +0.028 C 
ATOM     17  C   UNL     1      20.488   9.827  21.218  0.00  0.00    +0.028 C 
ENDBRANCH   5  11
BRANCH   9  12
ATOM     12  C   UNL     1      20.289   6.996  23.537  0.00  0.00    +0.181 C 
BRANCH  12   2
ATOM      2  O   UNL     1      19.832   8.135  24.237  0.00  0.00    -0.393 OA
ATOM     28  H   UNL     1      20.031   7.993  25.178  0.00  0.00    +0.209 HD
ENDBRANCH  12   2
ENDBRANCH   9  12
ENDBRANCH  14  10
BRANCH  22   6
ATOM      4  O   UNL     1      12.976   6.883  19.483  0.00  0.00    -0.268 OA
ATOM      6  N   UNL     1      14.827   7.686  18.276  0.00  0.00    -0.280 N 
ATOM     23  C   UNL     1      13.465   7.476  18.527  0.00  0.00    +0.268 C 
ATOM     29  H   UNL     1      15.062   8.206  17.434  0.00  0.00    +0.155 HD
BRANCH  23  24
ATOM      7  N   UNL     1      11.218   7.922  17.770  0.00  0.00    -0.247 NA
ATOM      8  N   UNL     1      12.172   9.261  15.498  0.00  0.00    -0.259 NA
ATOM     24  C   UNL     1      12.536   8.066  17.529  0.00  0.00    +0.144 A 
ATOM     25  C   UNL     1      13.005   8.723  16.412  0.00  0.00    +0.143 A 
ATOM     26  C   UNL     1      10.385   8.459  16.857  0.00  0.00    +0.131 A 
ATOM     27  C   UNL     1      10.854   9.117  15.741  0.00  0.00    +0.130 A 
ENDBRANCH  23  24
ENDBRANCH  22   6
TORSDOF 6
ENDMDL
MODEL 4
REMARK VINA RESULT:      -6.6      1.819      2.486
REMARK  Name = 71693364
REMARK  8 active torsions:
REMARK  status: ('A' for Active; 'I' for Inactive)
REMARK    1  A    between atoms: O_2  and  C_12
REMARK    2  A    between atoms: N_5  and  C_11
REMARK    3  A    between atoms: N_6  and  C_22
REMARK    4  A    between atoms: C_9  and  C_12
REMARK    5  A    between atoms: C_10  and  C_14
REMARK    6  A    between atoms: C_11  and  C_16
REMARK    7  A    between atoms: C_11  and  C_17
REMARK    8  A    between atoms: C_23  and  C_24
REMARK                            x       y       z     vdW  Elec       q    Type
REMARK                         _______ _______ _______ _____ _____    ______ ____
ROOT
ATOM     14  C   UNL     1      15.491   7.914  19.252  0.00  0.00    -0.017 A 
ATOM     18  C   UNL     1      16.195   8.484  20.313  0.00  0.00    +0.008 A 
ATOM     19  C   UNL     1      15.877   6.672  18.746  0.00  0.00    +0.008 A 
ATOM     20  C   UNL     1      17.285   7.813  20.867  0.00  0.00    +0.023 A 
ATOM     21  C   UNL     1      16.967   6.001  19.301  0.00  0.00    +0.023 A 
ATOM     22  C   UNL     1      17.671   6.572  20.362  0.00  0.00    +0.034 A 
ENDROOT
BRANCH  14  10
ATOM      1  O   UNL     1      13.330   7.655  18.309  0.00  0.00    -0.361 OA
ATOM      3  O   UNL     1      10.458   8.317  20.048  0.00  0.00    -0.273 OA
ATOM      5  N   UNL     1      12.548   9.327  20.289  0.00  0.00    -0.289 N 
ATOM      9  C   UNL     1      13.778   9.745  19.606  0.00  0.00    +0.135 C 
ATOM     10  C   UNL     1      14.307   8.644  18.649  0.00  0.00    +0.171 C 
ATOM     13  C   UNL     1      11.575   8.595  19.615  0.00  0.00    +0.242 C 
ATOM     15  C   UNL     1      12.011   8.157  18.238  0.00  0.00    +0.256 C 
BRANCH   5  11
ATOM     11  C   UNL     1      12.317   9.815  21.642  0.00  0.00    +0.070 C 
ATOM     16  C   UNL     1      11.539  11.123  21.605  0.00  0.00    +0.028 C 
ATOM     17  C   UNL     1      13.636   9.976  22.385  0.00  0.00    +0.028 C 
ENDBRANCH   5  11
BRANCH   9  12
ATOM     12  C   UNL     1      13.562  11.070  18.864  0.00  0.00    +0.181 C 
BRANCH  12   2
ATOM      2  O   UNL     1      14.158  10.963  17.587  0.00  0.00    -0.393 OA
ATOM     28  H   UNL     1      13.862  10.121  17.202  0.00  0.00    +0.209 HD
ENDBRANCH  12   2
ENDBRANCH   9  12
ENDBRANCH  14  10
BRANCH  22   6
ATOM      4  O   UNL     1      20.589   7.255  20.321  0.00  0.00    -0.268 OA
ATOM      6  N   UNL     1      18.762   5.900  20.916  0.00  0.00    -0.280 N 
ATOM     23  C   UNL     1      20.113   6.265  20.867  0.00  0.00    +0.268 C 
ATOM     29  H   UNL     1      18.537   5.044  21.418  0.00  0.00    +0.155 HD
BRANCH  23  24
ATOM      7  N   UNL     1      21.565   5.809  22.739  0.00  0.00    -0.247 NA
ATOM      8  N   UNL     1      22.203   3.275  21.719  0.00  0.00    -0.259 NA
ATOM     24  C   UNL     1      21.045   5.354  21.582  0.00  0.00    +0.144 A 
ATOM     25  C   UNL     1      21.359   4.110  21.081  0.00  0.00    +0.143 A 
ATOM     26  C   UNL     1      22.410   4.976  23.377  0.00  0.00    +0.131 A 
ATOM     27  C   UNL     1      22.723   3.731  22.876  0.00  0.00    +0.130 A 
ENDBRANCH  23  24
ENDBRANCH  22   6
TORSDOF 6
ENDMDL
MODEL 5
REMARK VINA RESULT:      -6.3      2.907      9.953
REMARK  Name = 71693364
REMARK  8 active torsions:
REMARK  status: ('A' for Active; 'I' for Inactive)
REMARK    1  A    between atoms: O_2  and  C_12
REMARK    2  A    between atoms: N_5  and  C_11
REMARK    3  A    between atoms: N_6  and  C_22
REMARK    4  A    between atoms: C_9  and  C_12
REMARK    5  A    between atoms: C_10  and  C_14
REMARK    6  A    between atoms: C_11  and  C_16
REMARK    7  A    between atoms: C_11  and  C_17
REMARK    8  A    between atoms: C_23  and  C_24
REMARK                            x       y       z     vdW  Elec       q    Type
REMARK                         _______ _______ _______ _____ _____    ______ ____
ROOT
ATOM     14  C   UNL     1      22.244   5.269  20.460  0.00  0.00    -0.017 A 
ATOM     18  C   UNL     1      21.227   4.314  20.467  0.00  0.00    +0.008 A 
ATOM     19  C   UNL     1      21.929   6.624  20.555  0.00  0.00    +0.008 A 
ATOM     20  C   UNL     1      19.896   4.715  20.569  0.00  0.00    +0.023 A 
ATOM     21  C   UNL     1      20.597   7.025  20.657  0.00  0.00    +0.023 A 
ATOM     22  C   UNL     1      19.580   6.070  20.664  0.00  0.00    +0.034 A 
ENDROOT
BRANCH  14  10
ATOM      1  O   UNL     1      24.495   5.900  20.863  0.00  0.00    -0.361 OA
ATOM      3  O   UNL     1      26.303   4.719  23.518  0.00  0.00    -0.273 OA
ATOM      5  N   UNL     1      24.588   3.644  22.357  0.00  0.00    -0.289 N 
ATOM      9  C   UNL     1      23.927   3.473  21.058  0.00  0.00    +0.135 C 
ATOM     10  C   UNL     1      23.693   4.833  20.348  0.00  0.00    +0.171 C 
ATOM     13  C   UNL     1      25.594   4.591  22.522  0.00  0.00    +0.242 C 
ATOM     15  C   UNL     1      25.768   5.487  21.319  0.00  0.00    +0.256 C 
BRANCH   5  11
ATOM     11  C   UNL     1      24.260   2.706  23.421  0.00  0.00    +0.070 C 
ATOM     16  C   UNL     1      25.005   1.394  23.216  0.00  0.00    +0.028 C 
ATOM     17  C   UNL     1      22.755   2.483  23.491  0.00  0.00    +0.028 C 
ENDBRANCH   5  11
BRANCH   9  12
ATOM     12  C   UNL     1      24.722   2.510  20.166  0.00  0.00    +0.181 C 
BRANCH  12   2
ATOM      2  O   UNL     1      24.488   2.862  18.818  0.00  0.00    -0.393 OA
ATOM     28  H   UNL     1      25.281   2.613  18.314  0.00  0.00    +0.209 HD
ENDBRANCH  12   2
ENDBRANCH   9  12
ENDBRANCH  14  10
BRANCH  22   6
ATOM      4  O   UNL     1      17.318   5.785  18.718  0.00  0.00    -0.268 OA
ATOM      6  N   UNL     1      18.247   6.472  20.765  0.00  0.00    -0.280 N 
ATOM     23  C   UNL     1      17.225   6.314  19.820  0.00  0.00    +0.268 C 
ATOM     29  H   UNL     1      17.996   6.932  21.637  0.00  0.00    +0.155 HD
BRANCH  23  24
ATOM      7  N   UNL     1      15.764   7.210  21.518  0.00  0.00    -0.247 NA
ATOM      8  N   UNL     1      13.628   7.352  19.706  0.00  0.00    -0.259 NA
ATOM     24  C   UNL     1      15.892   6.824  20.233  0.00  0.00    +0.144 A 
ATOM     25  C   UNL     1      14.843   6.893  19.343  0.00  0.00    +0.143 A 
ATOM     26  C   UNL     1      14.550   7.668  21.881  0.00  0.00    +0.131 A 
ATOM     27  C   UNL     1      13.501   7.738  20.991  0.00  0.00    +0.130 A 
ENDBRANCH  23  24
ENDBRANCH  22   6
TORSDOF 6
ENDMDL
MODEL 6
REMARK VINA RESULT:      -6.2     28.249     32.053
REMARK  Name = 71693364
REMARK  8 active torsions:
REMARK  status: ('A' for Active; 'I' for Inactive)
REMARK    1  A    between atoms: O_2  and  C_12
REMARK    2  A    between atoms: N_5  and  C_11
REMARK    3  A    between atoms: N_6  and  C_22
REMARK    4  A    between atoms: C_9  and  C_12
REMARK    5  A    between atoms: C_10  and  C_14
REMARK    6  A    between atoms: C_11  and  C_16
REMARK    7  A    between atoms: C_11  and  C_17
REMARK    8  A    between atoms: C_23  and  C_24
REMARK                            x       y       z     vdW  Elec       q    Type
REMARK                         _______ _______ _______ _____ _____    ______ ____
ROOT
ATOM     14  C   UNL     1     -13.047   7.340  20.875  0.00  0.00    -0.017 A 
ATOM     18  C   UNL     1     -14.437   7.333  20.755  0.00  0.00    +0.008 A 
ATOM     19  C   UNL     1     -12.394   6.269  21.486  0.00  0.00    +0.008 A 
ATOM     20  C   UNL     1     -15.174   6.257  21.247  0.00  0.00    +0.023 A 
ATOM     21  C   UNL     1     -13.132   5.192  21.979  0.00  0.00    +0.023 A 
ATOM     22  C   UNL     1     -14.522   5.186  21.859  0.00  0.00    +0.034 A 
ENDROOT
BRANCH  14  10
ATOM      1  O   UNL     1     -10.931   8.026  20.051  0.00  0.00    -0.361 OA
ATOM      3  O   UNL     1     -10.304   8.498  16.720  0.00  0.00    -0.273 OA
ATOM      5  N   UNL     1     -12.321   8.788  17.857  0.00  0.00    -0.289 N 
ATOM      9  C   UNL     1     -12.953   9.168  19.125  0.00  0.00    +0.135 C 
ATOM     10  C   UNL     1     -12.246   8.511  20.340  0.00  0.00    +0.171 C 
ATOM     13  C   UNL     1     -10.937   8.672  17.759  0.00  0.00    +0.242 C 
ATOM     15  C   UNL     1     -10.237   8.797  19.091  0.00  0.00    +0.256 C 
BRANCH   5  11
ATOM     11  C   UNL     1     -13.168   8.671  16.678  0.00  0.00    +0.070 C 
ATOM     16  C   UNL     1     -13.246  10.006  15.950  0.00  0.00    +0.028 C 
ATOM     17  C   UNL     1     -14.553   8.170  17.063  0.00  0.00    +0.028 C 
ENDBRANCH   5  11
BRANCH   9  12
ATOM     12  C   UNL     1     -13.003  10.695  19.271  0.00  0.00    +0.181 C 
BRANCH  12   2
ATOM      2  O   UNL     1     -12.304  11.050  20.446  0.00  0.00    -0.393 OA
ATOM     28  H   UNL     1     -11.464  10.561  20.440  0.00  0.00    +0.209 HD
ENDBRANCH  12   2
ENDBRANCH   9  12
ENDBRANCH  14  10
BRANCH  22   6
ATOM      4  O   UNL     1     -15.749   4.754  24.559  0.00  0.00    -0.268 OA
ATOM      6  N   UNL     1     -15.259   4.108  22.352  0.00  0.00    -0.280 N 
ATOM     23  C   UNL     1     -15.812   3.956  23.630  0.00  0.00    +0.268 C 
ATOM     29  H   UNL     1     -15.411   3.347  21.695  0.00  0.00    +0.155 HD
BRANCH  23  24
ATOM      7  N   UNL     1     -17.186   2.168  22.770  0.00  0.00    -0.247 NA
ATOM      8  N   UNL     1     -17.341   0.973  25.303  0.00  0.00    -0.259 NA
ATOM     24  C   UNL     1     -16.575   2.699  23.848  0.00  0.00    +0.144 A 
ATOM     25  C   UNL     1     -16.652   2.112  25.092  0.00  0.00    +0.143 A 
ATOM     26  C   UNL     1     -17.876   1.030  22.981  0.00  0.00    +0.131 A 
ATOM     27  C   UNL     1     -17.952   0.443  24.225  0.00  0.00    +0.130 A 
ENDBRANCH  23  24
ENDBRANCH  22   6
TORSDOF 6
ENDMDL
MODEL 7
REMARK VINA RESULT:      -6.1     27.277     30.846
REMARK  Name = 71693364
REMARK  8 active torsions:
REMARK  status: ('A' for Active; 'I' for Inactive)
REMARK    1  A    between atoms: O_2  and  C_12
REMARK    2  A    between atoms: N_5  and  C_11
REMARK    3  A    between atoms: N_6  and  C_22
REMARK    4  A    between atoms: C_9  and  C_12
REMARK    5  A    between atoms: C_10  and  C_14
REMARK    6  A    between atoms: C_11  and  C_16
REMARK    7  A    between atoms: C_11  and  C_17
REMARK    8  A    between atoms: C_23  and  C_24
REMARK                            x       y       z     vdW  Elec       q    Type
REMARK                         _______ _______ _______ _____ _____    ______ ____
ROOT
ATOM     14  C   UNL     1      -2.983 -10.781  11.101  0.00  0.00    -0.017 A 
ATOM     18  C   UNL     1      -2.941  -9.459  10.660  0.00  0.00    +0.008 A 
ATOM     19  C   UNL     1      -3.807 -11.706  10.459  0.00  0.00    +0.008 A 
ATOM     20  C   UNL     1      -3.724  -9.060   9.577  0.00  0.00    +0.023 A 
ATOM     21  C   UNL     1      -4.590 -11.307   9.376  0.00  0.00    +0.023 A 
ATOM     22  C   UNL     1      -4.548  -9.984   8.934  0.00  0.00    +0.034 A 
ENDROOT
BRANCH  14  10
ATOM      1  O   UNL     1      -1.907 -10.053  13.086  0.00  0.00    -0.361 OA
ATOM      3  O   UNL     1      -3.187 -10.629  16.207  0.00  0.00    -0.273 OA
ATOM      5  N   UNL     1      -3.420 -11.945  14.293  0.00  0.00    -0.289 N 
ATOM      9  C   UNL     1      -2.789 -12.392  13.047  0.00  0.00    +0.135 C 
ATOM     10  C   UNL     1      -2.131 -11.214  12.280  0.00  0.00    +0.171 C 
ATOM     13  C   UNL     1      -2.818 -10.972  15.085  0.00  0.00    +0.242 C 
ATOM     15  C   UNL     1      -1.607 -10.346  14.436  0.00  0.00    +0.256 C 
BRANCH   5  11
ATOM     11  C   UNL     1      -4.616 -12.643  14.744  0.00  0.00    +0.070 C 
ATOM     16  C   UNL     1      -4.235 -13.907  15.503  0.00  0.00    +0.028 C 
ATOM     17  C   UNL     1      -5.527 -12.959  13.565  0.00  0.00    +0.028 C 
ENDBRANCH   5  11
BRANCH   9  12
ATOM     12  C   UNL     1      -1.776 -13.511  13.322  0.00  0.00    +0.181 C 
BRANCH  12   2
ATOM      2  O   UNL     1      -1.827 -14.427  12.247  0.00  0.00    -0.393 OA
ATOM     28  H   UNL     1      -1.025 -14.973  12.296  0.00  0.00    +0.209 HD
ENDBRANCH  12   2
ENDBRANCH   9  12
ENDBRANCH  14  10
BRANCH  22   6
ATOM      4  O   UNL     1      -7.444  -9.219   8.819  0.00  0.00    -0.268 OA
ATOM      6  N   UNL     1      -5.333  -9.586   7.851  0.00  0.00    -0.280 N 
ATOM     23  C   UNL     1      -6.690  -9.238   7.852  0.00  0.00    +0.268 C 
ATOM     29  H   UNL     1      -4.851  -9.542   6.957  0.00  0.00    +0.155 HD
BRANCH  23  24
ATOM      7  N   UNL     1      -8.142  -7.822   6.544  0.00  0.00    -0.247 NA
ATOM      8  N   UNL     1      -7.346  -9.081   4.167  0.00  0.00    -0.259 NA
ATOM     24  C   UNL     1      -7.242  -8.825   6.535  0.00  0.00    +0.144 A 
ATOM     25  C   UNL     1      -6.852  -9.444   5.368  0.00  0.00    +0.143 A 
ATOM     26  C   UNL     1      -8.637  -7.459   5.345  0.00  0.00    +0.131 A 
ATOM     27  C   UNL     1      -8.246  -8.077   4.177  0.00  0.00    +0.130 A 
ENDBRANCH  23  24
ENDBRANCH  22   6
TORSDOF 6
ENDMDL
MODEL 8
REMARK VINA RESULT:      -6.1      2.392      9.103
REMARK  Name = 71693364
REMARK  8 active torsions:
REMARK  status: ('A' for Active; 'I' for Inactive)
REMARK    1  A    between atoms: O_2  and  C_12
REMARK    2  A    between atoms: N_5  and  C_11
REMARK    3  A    between atoms: N_6  and  C_22
REMARK    4  A    between atoms: C_9  and  C_12
REMARK    5  A    between atoms: C_10  and  C_14
REMARK    6  A    between atoms: C_11  and  C_16
REMARK    7  A    between atoms: C_11  and  C_17
REMARK    8  A    between atoms: C_23  and  C_24
REMARK                            x       y       z     vdW  Elec       q    Type
REMARK                         _______ _______ _______ _____ _____    ______ ____
ROOT
ATOM     14  C   UNL     1      19.674   6.676  20.771  0.00  0.00    -0.017 A 
ATOM     18  C   UNL     1      19.187   7.802  21.435  0.00  0.00    +0.008 A 
ATOM     19  C   UNL     1      18.792   5.808  20.129  0.00  0.00    +0.008 A 
ATOM     20  C   UNL     1      17.817   8.060  21.457  0.00  0.00    +0.023 A 
ATOM     21  C   UNL     1      17.421   6.066  20.150  0.00  0.00    +0.023 A 
ATOM     22  C   UNL     1      16.933   7.193  20.814  0.00  0.00    +0.034 A 
ENDROOT
BRANCH  14  10
ATOM      1  O   UNL     1      21.795   7.515  20.120  0.00  0.00    -0.361 OA
ATOM      3  O   UNL     1      23.996   8.915  22.336  0.00  0.00    -0.273 OA
ATOM      5  N   UNL     1      22.422   7.239  22.739  0.00  0.00    -0.289 N 
ATOM      9  C   UNL     1      21.702   6.093  22.173  0.00  0.00    +0.135 C 
ATOM     10  C   UNL     1      21.165   6.395  20.749  0.00  0.00    +0.171 C 
ATOM     13  C   UNL     1      23.246   8.025  21.938  0.00  0.00    +0.242 C 
ATOM     15  C   UNL     1      23.155   7.677  20.472  0.00  0.00    +0.256 C 
BRANCH   5  11
ATOM     11  C   UNL     1      22.358   7.445  24.179  0.00  0.00    +0.070 C 
ATOM     16  C   UNL     1      23.479   6.681  24.871  0.00  0.00    +0.028 C 
ATOM     17  C   UNL     1      20.994   7.035  24.717  0.00  0.00    +0.028 C 
ENDBRANCH   5  11
BRANCH   9  12
ATOM     12  C   UNL     1      22.587   4.839  22.178  0.00  0.00    +0.181 C 
BRANCH  12   2
ATOM      2  O   UNL     1      22.033   3.911  23.088  0.00  0.00    -0.393 OA
ATOM     28  H   UNL     1      22.046   4.327  23.967  0.00  0.00    +0.209 HD
ENDBRANCH  12   2
ENDBRANCH   9  12
ENDBRANCH  14  10
BRANCH  22   6
ATOM      4  O   UNL     1      14.968   7.409  18.561  0.00  0.00    -0.268 OA
ATOM      6  N   UNL     1      15.562   7.450  20.836  0.00  0.00    -0.280 N 
ATOM     23  C   UNL     1      14.685   7.541  19.747  0.00  0.00    +0.268 C 
ATOM     29  H   UNL     1      15.158   7.581  21.760  0.00  0.00    +0.155 HD
BRANCH  23  24
ATOM      7  N   UNL     1      12.937   7.720  21.400  0.00  0.00    -0.247 NA
ATOM      8  N   UNL     1      11.037   8.331  19.429  0.00  0.00    -0.259 NA
ATOM     24  C   UNL     1      13.263   7.798  20.095  0.00  0.00    +0.144 A 
ATOM     25  C   UNL     1      12.330   8.097  19.126  0.00  0.00    +0.143 A 
ATOM     26  C   UNL     1      11.644   7.952  21.703  0.00  0.00    +0.131 A 
ATOM     27  C   UNL     1      10.711   8.252  20.735  0.00  0.00    +0.130 A 
ENDBRANCH  23  24
ENDBRANCH  22   6
TORSDOF 6
ENDMDL
MODEL 9
REMARK VINA RESULT:      -6.1     16.667     19.767
REMARK  Name = 71693364
REMARK  8 active torsions:
REMARK  status: ('A' for Active; 'I' for Inactive)
REMARK    1  A    between atoms: O_2  and  C_12
REMARK    2  A    between atoms: N_5  and  C_11
REMARK    3  A    between atoms: N_6  and  C_22
REMARK    4  A    between atoms: C_9  and  C_12
REMARK    5  A    between atoms: C_10  and  C_14
REMARK    6  A    between atoms: C_11  and  C_16
REMARK    7  A    between atoms: C_11  and  C_17
REMARK    8  A    between atoms: C_23  and  C_24
REMARK                            x       y       z     vdW  Elec       q    Type
REMARK                         _______ _______ _______ _____ _____    ______ ____
ROOT
ATOM     14  C   UNL     1      10.849   6.794   3.899  0.00  0.00    -0.017 A 
ATOM     18  C   UNL     1      10.108   7.465   2.927  0.00  0.00    +0.008 A 
ATOM     19  C   UNL     1      11.331   5.509   3.646  0.00  0.00    +0.008 A 
ATOM     20  C   UNL     1       9.847   6.852   1.702  0.00  0.00    +0.023 A 
ATOM     21  C   UNL     1      11.070   4.896   2.421  0.00  0.00    +0.023 A 
ATOM     22  C   UNL     1      10.329   5.567   1.448  0.00  0.00    +0.034 A 
ENDROOT
BRANCH  14  10
ATOM      1  O   UNL     1      10.143   8.480   5.410  0.00  0.00    -0.361 OA
ATOM      3  O   UNL     1       8.372   7.796   8.257  0.00  0.00    -0.273 OA
ATOM      5  N   UNL     1       9.946   6.446   7.185  0.00  0.00    -0.289 N 
ATOM      9  C   UNL     1      11.174   6.422   6.384  0.00  0.00    +0.135 C 
ATOM     10  C   UNL     1      11.131   7.461   5.232  0.00  0.00    +0.171 C 
ATOM     13  C   UNL     1       9.317   7.652   7.484  0.00  0.00    +0.242 C 
ATOM     15  C   UNL     1       9.923   8.831   6.762  0.00  0.00    +0.256 C 
BRANCH   5  11
ATOM     11  C   UNL     1       9.485   5.196   7.771  0.00  0.00    +0.070 C 
ATOM     16  C   UNL     1       9.992   5.063   9.200  0.00  0.00    +0.028 C 
ATOM     17  C   UNL     1       9.922   4.013   6.916  0.00  0.00    +0.028 C 
ENDBRANCH   5  11
BRANCH   9  12
ATOM     12  C   UNL     1      12.408   6.628   7.273  0.00  0.00    +0.181 C 
BRANCH  12   2
ATOM      2  O   UNL     1      13.558   6.336   6.507  0.00  0.00    -0.393 OA
ATOM     28  H   UNL     1      14.238   6.987   6.749  0.00  0.00    +0.209 HD
ENDBRANCH  12   2
ENDBRANCH   9  12
ENDBRANCH  14  10
BRANCH  22   6
ATOM      4  O   UNL     1      12.095   5.192  -0.945  0.00  0.00    -0.268 OA
ATOM      6  N   UNL     1      10.068   4.952   0.223  0.00  0.00    -0.280 N 
ATOM     23  C   UNL     1      10.934   4.804  -0.868  0.00  0.00    +0.268 C 
ATOM     29  H   UNL     1       9.133   4.564   0.121  0.00  0.00    +0.155 HD
BRANCH  23  24
ATOM      7  N   UNL     1      10.797   2.805  -2.213  0.00  0.00    -0.247 NA
ATOM      8  N   UNL     1       8.946   4.009  -3.942  0.00  0.00    -0.259 NA
ATOM     24  C   UNL     1      10.371   4.071  -2.032  0.00  0.00    +0.144 A 
ATOM     25  C   UNL     1       9.463   4.662  -2.882  0.00  0.00    +0.143 A 
ATOM     26  C   UNL     1      10.282   2.152  -3.272  0.00  0.00    +0.131 A 
ATOM     27  C   UNL     1       9.373   2.743  -4.122  0.00  0.00    +0.130 A 
ENDBRANCH  23  24
ENDBRANCH  22   6
TORSDOF 6
ENDMDL
MODEL 10
REMARK VINA RESULT:      -5.9     16.112     18.270
REMARK  Name = 71693364
REMARK  8 active torsions:
REMARK  status: ('A' for Active; 'I' for Inactive)
REMARK    1  A    between atoms: O_2  and  C_12
REMARK    2  A    between atoms: N_5  and  C_11
REMARK    3  A    between atoms: N_6  and  C_22
REMARK    4  A    between atoms: C_9  and  C_12
REMARK    5  A    between atoms: C_10  and  C_14
REMARK    6  A    between atoms: C_11  and  C_16
REMARK    7  A    between atoms: C_11  and  C_17
REMARK    8  A    between atoms: C_23  and  C_24
REMARK                            x       y       z     vdW  Elec       q    Type
REMARK                         _______ _______ _______ _____ _____    ______ ____
ROOT
ATOM     14  C   UNL     1      10.652   4.969   3.959  0.00  0.00    -0.017 A 
ATOM     18  C   UNL     1      10.616   3.949   3.008  0.00  0.00    +0.008 A 
ATOM     19  C   UNL     1      11.600   5.987   3.856  0.00  0.00    +0.008 A 
ATOM     20  C   UNL     1      11.529   3.947   1.954  0.00  0.00    +0.023 A 
ATOM     21  C   UNL     1      12.513   5.985   2.801  0.00  0.00    +0.023 A 
ATOM     22  C   UNL     1      12.477   4.965   1.850  0.00  0.00    +0.034 A 
ENDROOT
BRANCH  14  10
ATOM      1  O   UNL     1      10.129   4.022   6.071  0.00  0.00    -0.361 OA
ATOM      3  O   UNL     1      10.687   5.659   9.025  0.00  0.00    -0.273 OA
ATOM      5  N   UNL     1      10.180   6.585   6.943  0.00  0.00    -0.289 N 
ATOM      9  C   UNL     1       9.462   6.399   5.677  0.00  0.00    +0.135 C 
ATOM     10  C   UNL     1       9.660   4.970   5.107  0.00  0.00    +0.171 C 
ATOM     13  C   UNL     1      10.235   5.561   7.885  0.00  0.00    +0.242 C 
ATOM     15  C   UNL     1       9.657   4.261   7.382  0.00  0.00    +0.256 C 
BRANCH   5  11
ATOM     11  C   UNL     1      10.713   7.907   7.241  0.00  0.00    +0.070 C 
ATOM     16  C   UNL     1       9.686   8.728   8.008  0.00  0.00    +0.028 C 
ATOM     17  C   UNL     1      11.140   8.611   5.960  0.00  0.00    +0.028 C 
ENDBRANCH   5  11
BRANCH   9  12
ATOM     12  C   UNL     1       7.972   6.729   5.846  0.00  0.00    +0.181 C 
BRANCH  12   2
ATOM      2  O   UNL     1       7.644   7.760   4.938  0.00  0.00    -0.393 OA
ATOM     28  H   UNL     1       7.147   8.432   5.434  0.00  0.00    +0.209 HD
ENDBRANCH  12   2
ENDBRANCH   9  12
ENDBRANCH  14  10
BRANCH  22   6
ATOM      4  O   UNL     1      14.922   3.287   1.409  0.00  0.00    -0.268 OA
ATOM      6  N   UNL     1      13.391   4.963   0.795  0.00  0.00    -0.280 N 
ATOM     23  C   UNL     1      14.524   4.153   0.638  0.00  0.00    +0.268 C 
ATOM     29  H   UNL     1      13.201   5.632   0.053  0.00  0.00    +0.155 HD
BRANCH  23  24
ATOM      7  N   UNL     1      16.629   4.227  -0.540  0.00  0.00    -0.247 NA
ATOM      8  N   UNL     1      15.343   4.898  -2.941  0.00  0.00    -0.259 NA
ATOM     24  C   UNL     1      15.290   4.368  -0.617  0.00  0.00    +0.144 A 
ATOM     25  C   UNL     1      14.659   4.699  -1.796  0.00  0.00    +0.143 A 
ATOM     26  C   UNL     1      17.313   4.428  -1.683  0.00  0.00    +0.131 A 
ATOM     27  C   UNL     1      16.681   4.757  -2.863  0.00  0.00    +0.130 A 
ENDBRANCH  23  24
ENDBRANCH  22   6
TORSDOF 6
ENDMDL
