MODEL 1
REMARK VINA RESULT:      -7.2      0.000      0.000
REMARK  Name = 56775278
REMARK  5 active torsions:
REMARK  status: ('A' for Active; 'I' for Inactive)
REMARK    1  A    between atoms: O_5  and  C_17
REMARK    2  A    between atoms: O_5  and  C_23
REMARK    3  A    between atoms: N_7  and  C_14
REMARK    4  A    between atoms: C_14  and  C_16
REMARK    5  A    between atoms: C_15  and  C_17
REMARK                            x       y       z     vdW  Elec       q    Type
REMARK                         _______ _______ _______ _____ _____    ______ ____
ROOT
ATOM      2  O   UNL     1      12.336   9.281  17.360  0.00  0.00    -0.364 OA
ATOM      3  O   UNL     1      12.150   6.382  19.416  0.00  0.00    -0.273 OA
ATOM      4  O   UNL     1      13.327  13.875  18.070  0.00  0.00    -0.272 OA
ATOM      6  N   UNL     1      13.560  11.663  18.697  0.00  0.00    -0.294 N 
ATOM      7  N   UNL     1      13.710   8.108  19.472  0.00  0.00    -0.288 N 
ATOM      8  C   UNL     1      14.153   9.387  18.934  0.00  0.00    +0.124 C 
ATOM      9  C   UNL     1      13.708   9.641  17.495  0.00  0.00    +0.158 C 
ATOM     10  C   UNL     1      13.569  10.587  19.684  0.00  0.00    +0.133 C 
ATOM     11  C   UNL     1      13.826  11.154  17.357  0.00  0.00    +0.141 C 
ATOM     12  C   UNL     1      12.647   7.396  18.923  0.00  0.00    +0.242 C 
ATOM     13  C   UNL     1      12.158   7.898  17.575  0.00  0.00    +0.256 C 
ATOM     15  C   UNL     1      13.324  13.004  18.942  0.00  0.00    +0.253 C 
ENDROOT
BRANCH   7  14
ATOM     14  C   UNL     1      14.320   7.670  20.720  0.00  0.00    +0.143 C 
BRANCH  14  16
ATOM      1  F   UNL     1      19.637   5.970  19.981  0.00  0.00    -0.205 F 
ATOM     16  C   UNL     1      15.738   7.216  20.524  0.00  0.00    -0.030 A 
ATOM     18  C   UNL     1      16.743   7.683  21.370  0.00  0.00    +0.008 A 
ATOM     19  C   UNL     1      16.049   6.329  19.493  0.00  0.00    +0.008 A 
ATOM     20  C   UNL     1      18.061   7.262  21.188  0.00  0.00    +0.038 A 
ATOM     21  C   UNL     1      17.367   5.907  19.311  0.00  0.00    +0.038 A 
ATOM     22  C   UNL     1      18.372   6.373  20.157  0.00  0.00    +0.123 A 
ENDBRANCH  14  16
ENDBRANCH   7  14
BRANCH  15  17
ATOM     17  C   UNL     1      13.057  13.366  20.382  0.00  0.00    +0.324 C 
BRANCH  17   5
ATOM      5  O   UNL     1      11.670  13.237  20.579  0.00  0.00    -0.483 OA
BRANCH   5  23
ATOM     23  C   UNL     1      11.233  13.017  21.865  0.00  0.00    +0.121 A 
ATOM     24  C   UNL     1      11.284  11.735  22.411  0.00  0.00    +0.045 A 
ATOM     25  C   UNL     1      10.738  14.078  22.625  0.00  0.00    +0.045 A 
ATOM     26  C   UNL     1      10.841  11.512  23.715  0.00  0.00    +0.004 A 
ATOM     27  C   UNL     1      10.294  13.856  23.929  0.00  0.00    +0.004 A 
ATOM     28  C   UNL     1      10.346  12.572  24.473  0.00  0.00    +0.000 A 
ENDBRANCH   5  23
ENDBRANCH  17   5
ENDBRANCH  15  17
TORSDOF 5
ENDMDL
MODEL 2
REMARK VINA RESULT:      -7.1      1.599      2.273
REMARK  Name = 56775278
REMARK  5 active torsions:
REMARK  status: ('A' for Active; 'I' for Inactive)
REMARK    1  A    between atoms: O_5  and  C_17
REMARK    2  A    between atoms: O_5  and  C_23
REMARK    3  A    between atoms: N_7  and  C_14
REMARK    4  A    between atoms: C_14  and  C_16
REMARK    5  A    between atoms: C_15  and  C_17
REMARK                            x       y       z     vdW  Elec       q    Type
REMARK                         _______ _______ _______ _____ _____    ______ ____
ROOT
ATOM      2  O   UNL     1      13.562  10.743  17.684  0.00  0.00    -0.364 OA
ATOM      3  O   UNL     1      13.667   7.277  16.884  0.00  0.00    -0.273 OA
ATOM      4  O   UNL     1      12.255  13.303  21.471  0.00  0.00    -0.272 OA
ATOM      6  N   UNL     1      13.044  11.324  20.576  0.00  0.00    -0.294 N 
ATOM      7  N   UNL     1      14.232   8.326  18.883  0.00  0.00    -0.288 N 
ATOM      8  C   UNL     1      14.320   9.566  19.642  0.00  0.00    +0.124 C 
ATOM      9  C   UNL     1      14.477  10.814  18.775  0.00  0.00    +0.158 C 
ATOM     10  C   UNL     1      13.051   9.870  20.442  0.00  0.00    +0.133 C 
ATOM     11  C   UNL     1      14.037  11.939  19.702  0.00  0.00    +0.141 C 
ATOM     12  C   UNL     1      13.884   8.301  17.535  0.00  0.00    +0.242 C 
ATOM     13  C   UNL     1      13.869   9.654  16.844  0.00  0.00    +0.256 C 
ATOM     15  C   UNL     1      12.220  12.074  21.396  0.00  0.00    +0.253 C 
ENDROOT
BRANCH   7  14
ATOM     14  C   UNL     1      14.363   7.084  19.631  0.00  0.00    +0.143 C 
BRANCH  14  16
ATOM      1  F   UNL     1      19.753   5.695  20.479  0.00  0.00    -0.205 F 
ATOM     16  C   UNL     1      15.800   6.713  19.858  0.00  0.00    -0.030 A 
ATOM     18  C   UNL     1      16.424   7.044  21.061  0.00  0.00    +0.008 A 
ATOM     19  C   UNL     1      16.511   6.039  18.865  0.00  0.00    +0.008 A 
ATOM     20  C   UNL     1      17.760   6.699  21.271  0.00  0.00    +0.038 A 
ATOM     21  C   UNL     1      17.846   5.695  19.075  0.00  0.00    +0.038 A 
ATOM     22  C   UNL     1      18.471   6.024  20.278  0.00  0.00    +0.123 A 
ENDBRANCH  14  16
ENDBRANCH   7  14
BRANCH  15  17
ATOM     17  C   UNL     1      11.242  11.285  22.231  0.00  0.00    +0.324 C 
BRANCH  17   5
ATOM      5  O   UNL     1      11.852  11.085  23.483  0.00  0.00    -0.483 OA
BRANCH   5  23
ATOM     23  C   UNL     1      11.782  12.117  24.391  0.00  0.00    +0.121 A 
ATOM     24  C   UNL     1      10.563  12.748  24.639  0.00  0.00    +0.045 A 
ATOM     25  C   UNL     1      12.931  12.533  25.064  0.00  0.00    +0.045 A 
ATOM     26  C   UNL     1      10.492  13.795  25.559  0.00  0.00    +0.004 A 
ATOM     27  C   UNL     1      12.861  13.580  25.984  0.00  0.00    +0.004 A 
ATOM     28  C   UNL     1      11.642  14.211  26.231  0.00  0.00    +0.000 A 
ENDBRANCH   5  23
ENDBRANCH  17   5
ENDBRANCH  15  17
TORSDOF 5
ENDMDL
MODEL 3
REMARK VINA RESULT:      -6.6     24.968     26.847
REMARK  Name = 56775278
REMARK  5 active torsions:
REMARK  status: ('A' for Active; 'I' for Inactive)
REMARK    1  A    between atoms: O_5  and  C_17
REMARK    2  A    between atoms: O_5  and  C_23
REMARK    3  A    between atoms: N_7  and  C_14
REMARK    4  A    between atoms: C_14  and  C_16
REMARK    5  A    between atoms: C_15  and  C_17
REMARK                            x       y       z     vdW  Elec       q    Type
REMARK                         _______ _______ _______ _____ _____    ______ ____
ROOT
ATOM      2  O   UNL     1     -15.631   7.983  21.988  0.00  0.00    -0.364 OA
ATOM      3  O   UNL     1     -13.302   5.295  21.866  0.00  0.00    -0.273 OA
ATOM      4  O   UNL     1     -15.400  12.613  23.036  0.00  0.00    -0.272 OA
ATOM      6  N   UNL     1     -14.377  10.686  22.276  0.00  0.00    -0.294 N 
ATOM      7  N   UNL     1     -13.022   7.494  21.162  0.00  0.00    -0.288 N 
ATOM      8  C   UNL     1     -13.588   8.832  21.040  0.00  0.00    +0.124 C 
ATOM      9  C   UNL     1     -15.114   8.856  20.987  0.00  0.00    +0.158 C 
ATOM     10  C   UNL     1     -13.279   9.724  22.246  0.00  0.00    +0.133 C 
ATOM     11  C   UNL     1     -15.453  10.289  21.375  0.00  0.00    +0.141 C 
ATOM     12  C   UNL     1     -13.765   6.410  21.620  0.00  0.00    +0.242 C 
ATOM     13  C   UNL     1     -15.262   6.647  21.726  0.00  0.00    +0.256 C 
ATOM     15  C   UNL     1     -14.448  11.833  23.047  0.00  0.00    +0.253 C 
ENDROOT
BRANCH   7  14
ATOM     14  C   UNL     1     -11.589   7.361  20.938  0.00  0.00    +0.143 C 
BRANCH  14  16
ATOM      1  F   UNL     1      -9.963   9.813  16.137  0.00  0.00    -0.205 F 
ATOM     16  C   UNL     1     -11.157   8.015  19.657  0.00  0.00    -0.030 A 
ATOM     18  C   UNL     1     -11.448   7.413  18.434  0.00  0.00    +0.008 A 
ATOM     19  C   UNL     1     -10.462   9.224  19.693  0.00  0.00    +0.008 A 
ATOM     20  C   UNL     1     -11.045   8.020  17.244  0.00  0.00    +0.038 A 
ATOM     21  C   UNL     1     -10.059   9.832  18.503  0.00  0.00    +0.038 A 
ATOM     22  C   UNL     1     -10.350   9.230  17.279  0.00  0.00    +0.123 A 
ENDBRANCH  14  16
ENDBRANCH   7  14
BRANCH  15  17
ATOM     17  C   UNL     1     -13.255  12.096  23.932  0.00  0.00    +0.324 C 
BRANCH  17   5
ATOM      5  O   UNL     1     -13.672  11.848  25.254  0.00  0.00    -0.483 OA
BRANCH   5  23
ATOM     23  C   UNL     1     -12.776  11.227  26.093  0.00  0.00    +0.121 A 
ATOM     24  C   UNL     1     -11.501  10.897  25.632  0.00  0.00    +0.045 A 
ATOM     25  C   UNL     1     -13.142  10.926  27.404  0.00  0.00    +0.045 A 
ATOM     26  C   UNL     1     -10.592  10.267  26.483  0.00  0.00    +0.004 A 
ATOM     27  C   UNL     1     -12.234  10.295  28.256  0.00  0.00    +0.004 A 
ATOM     28  C   UNL     1     -10.959   9.965  27.795  0.00  0.00    +0.000 A 
ENDBRANCH   5  23
ENDBRANCH  17   5
ENDBRANCH  15  17
TORSDOF 5
ENDMDL
MODEL 4
REMARK VINA RESULT:      -6.6     16.054     18.623
REMARK  Name = 56775278
REMARK  5 active torsions:
REMARK  status: ('A' for Active; 'I' for Inactive)
REMARK    1  A    between atoms: O_5  and  C_17
REMARK    2  A    between atoms: O_5  and  C_23
REMARK    3  A    between atoms: N_7  and  C_14
REMARK    4  A    between atoms: C_14  and  C_16
REMARK    5  A    between atoms: C_15  and  C_17
REMARK                            x       y       z     vdW  Elec       q    Type
REMARK                         _______ _______ _______ _____ _____    ______ ____
ROOT
ATOM      2  O   UNL     1       9.307   7.938  -0.388  0.00  0.00    -0.364 OA
ATOM      3  O   UNL     1       9.454   4.691  -1.836  0.00  0.00    -0.273 OA
ATOM      4  O   UNL     1       8.884   9.660   4.023  0.00  0.00    -0.272 OA
ATOM      6  N   UNL     1       9.549   7.968   2.596  0.00  0.00    -0.294 N 
ATOM      7  N   UNL     1      10.458   5.459   0.118  0.00  0.00    -0.288 N 
ATOM      8  C   UNL     1      10.654   6.560   1.052  0.00  0.00    +0.124 C 
ATOM      9  C   UNL     1      10.475   7.942   0.428  0.00  0.00    +0.158 C 
ATOM     10  C   UNL     1       9.630   6.568   2.190  0.00  0.00    +0.133 C 
ATOM     11  C   UNL     1      10.218   8.837   1.634  0.00  0.00    +0.141 C 
ATOM     12  C   UNL     1       9.761   5.613  -1.078  0.00  0.00    +0.242 C 
ATOM     13  C   UNL     1       9.456   7.048  -1.471  0.00  0.00    +0.256 C 
ATOM     15  C   UNL     1       8.923   8.465   3.726  0.00  0.00    +0.253 C 
ENDROOT
BRANCH   7  14
ATOM     14  C   UNL     1      10.881   4.137   0.557  0.00  0.00    +0.143 C 
BRANCH  14  16
ATOM      1  F   UNL     1      16.481   3.558   0.427  0.00  0.00    -0.205 F 
ATOM     16  C   UNL     1      12.375   3.984   0.521  0.00  0.00    -0.030 A 
ATOM     18  C   UNL     1      13.068   4.172  -0.674  0.00  0.00    +0.008 A 
ATOM     19  C   UNL     1      13.068   3.651   1.685  0.00  0.00    +0.008 A 
ATOM     20  C   UNL     1      14.455   4.029  -0.706  0.00  0.00    +0.038 A 
ATOM     21  C   UNL     1      14.456   3.508   1.653  0.00  0.00    +0.038 A 
ATOM     22  C   UNL     1      15.149   3.697   0.458  0.00  0.00    +0.123 A 
ENDBRANCH  14  16
ENDBRANCH   7  14
BRANCH  15  17
ATOM     17  C   UNL     1       8.271   7.435   4.614  0.00  0.00    +0.324 C 
BRANCH  17   5
ATOM      5  O   UNL     1       8.708   7.700   5.925  0.00  0.00    -0.483 OA
BRANCH   5  23
ATOM     23  C   UNL     1       9.082   6.622   6.696  0.00  0.00    +0.121 A 
ATOM     24  C   UNL     1       9.480   5.432   6.086  0.00  0.00    +0.045 A 
ATOM     25  C   UNL     1       9.063   6.720   8.087  0.00  0.00    +0.045 A 
ATOM     26  C   UNL     1       9.858   4.340   6.867  0.00  0.00    +0.004 A 
ATOM     27  C   UNL     1       9.441   5.628   8.869  0.00  0.00    +0.004 A 
ATOM     28  C   UNL     1       9.839   4.438   8.259  0.00  0.00    +0.000 A 
ENDBRANCH   5  23
ENDBRANCH  17   5
ENDBRANCH  15  17
TORSDOF 5
ENDMDL
MODEL 5
REMARK VINA RESULT:      -6.4     27.401     29.757
REMARK  Name = 56775278
REMARK  5 active torsions:
REMARK  status: ('A' for Active; 'I' for Inactive)
REMARK    1  A    between atoms: O_5  and  C_17
REMARK    2  A    between atoms: O_5  and  C_23
REMARK    3  A    between atoms: N_7  and  C_14
REMARK    4  A    between atoms: C_14  and  C_16
REMARK    5  A    between atoms: C_15  and  C_17
REMARK                            x       y       z     vdW  Elec       q    Type
REMARK                         _______ _______ _______ _____ _____    ______ ____
ROOT
ATOM      2  O   UNL     1      -4.787 -11.897  18.363  0.00  0.00    -0.364 OA
ATOM      3  O   UNL     1      -8.228 -12.794  18.501  0.00  0.00    -0.273 OA
ATOM      4  O   UNL     1      -1.568 -11.355  14.907  0.00  0.00    -0.272 OA
ATOM      6  N   UNL     1      -3.771 -11.332  15.604  0.00  0.00    -0.294 N 
ATOM      7  N   UNL     1      -7.145 -11.413  16.974  0.00  0.00    -0.288 N 
ATOM      8  C   UNL     1      -5.893 -10.825  16.515  0.00  0.00    +0.124 C 
ATOM      9  C   UNL     1      -4.835 -10.690  17.607  0.00  0.00    +0.158 C 
ATOM     10  C   UNL     1      -5.182 -11.679  15.461  0.00  0.00    +0.133 C 
ATOM     11  C   UNL     1      -3.537 -10.562  16.820  0.00  0.00    +0.141 C 
ATOM     12  C   UNL     1      -7.230 -12.168  18.140  0.00  0.00    +0.242 C 
ATOM     13  C   UNL     1      -6.006 -12.114  19.038  0.00  0.00    +0.256 C 
ATOM     15  C   UNL     1      -2.746 -11.673  14.740  0.00  0.00    +0.253 C 
ENDROOT
BRANCH   7  14
ATOM     14  C   UNL     1      -8.287 -11.319  16.075  0.00  0.00    +0.143 C 
BRANCH  14  16
ATOM      1  F   UNL     1     -10.808  -6.293  16.381  0.00  0.00    -0.205 F 
ATOM     16  C   UNL     1      -8.958  -9.978  16.158  0.00  0.00    -0.030 A 
ATOM     18  C   UNL     1      -9.083  -9.334  17.388  0.00  0.00    +0.008 A 
ATOM     19  C   UNL     1      -9.459  -9.378  15.002  0.00  0.00    +0.008 A 
ATOM     20  C   UNL     1      -9.707  -8.089  17.464  0.00  0.00    +0.038 A 
ATOM     21  C   UNL     1     -10.084  -8.133  15.078  0.00  0.00    +0.038 A 
ATOM     22  C   UNL     1     -10.208  -7.488  16.308  0.00  0.00    +0.123 A 
ENDBRANCH  14  16
ENDBRANCH   7  14
BRANCH  15  17
ATOM     17  C   UNL     1      -3.155 -12.479  13.532  0.00  0.00    +0.324 C 
BRANCH  17   5
ATOM      5  O   UNL     1      -2.300 -12.094  12.483  0.00  0.00    -0.483 OA
BRANCH   5  23
ATOM     23  C   UNL     1      -2.829 -11.291  11.499  0.00  0.00    +0.121 A 
ATOM     24  C   UNL     1      -3.834 -11.779  10.664  0.00  0.00    +0.045 A 
ATOM     25  C   UNL     1      -2.361  -9.987  11.336  0.00  0.00    +0.045 A 
ATOM     26  C   UNL     1      -4.371 -10.965   9.667  0.00  0.00    +0.004 A 
ATOM     27  C   UNL     1      -2.897  -9.172  10.339  0.00  0.00    +0.004 A 
ATOM     28  C   UNL     1      -3.902  -9.661   9.504  0.00  0.00    +0.000 A 
ENDBRANCH   5  23
ENDBRANCH  17   5
ENDBRANCH  15  17
TORSDOF 5
ENDMDL
MODEL 6
REMARK VINA RESULT:      -6.3      5.751      8.695
REMARK  Name = 56775278
REMARK  5 active torsions:
REMARK  status: ('A' for Active; 'I' for Inactive)
REMARK    1  A    between atoms: O_5  and  C_17
REMARK    2  A    between atoms: O_5  and  C_23
REMARK    3  A    between atoms: N_7  and  C_14
REMARK    4  A    between atoms: C_14  and  C_16
REMARK    5  A    between atoms: C_15  and  C_17
REMARK                            x       y       z     vdW  Elec       q    Type
REMARK                         _______ _______ _______ _____ _____    ______ ____
ROOT
ATOM      2  O   UNL     1      21.937   7.838  21.609  0.00  0.00    -0.364 OA
ATOM      3  O   UNL     1      24.069   5.377  20.171  0.00  0.00    -0.273 OA
ATOM      4  O   UNL     1      17.246   8.600  21.723  0.00  0.00    -0.272 OA
ATOM      6  N   UNL     1      19.026   7.138  21.538  0.00  0.00    -0.294 N 
ATOM      7  N   UNL     1      22.019   5.085  21.233  0.00  0.00    -0.288 N 
ATOM      8  C   UNL     1      20.869   5.699  21.885  0.00  0.00    +0.124 C 
ATOM      9  C   UNL     1      21.168   7.056  22.519  0.00  0.00    +0.158 C 
ATOM     10  C   UNL     1      19.733   6.025  20.911  0.00  0.00    +0.133 C 
ATOM     11  C   UNL     1      19.789   7.688  22.653  0.00  0.00    +0.141 C 
ATOM     12  C   UNL     1      23.134   5.821  20.840  0.00  0.00    +0.242 C 
ATOM     13  C   UNL     1      23.193   7.242  21.374  0.00  0.00    +0.256 C 
ATOM     15  C   UNL     1      17.801   7.655  21.159  0.00  0.00    +0.253 C 
ENDROOT
BRANCH   7  14
ATOM     14  C   UNL     1      21.893   3.685  20.854  0.00  0.00    +0.143 C 
BRANCH  14  16
ATOM      1  F   UNL     1      25.295   0.369  23.877  0.00  0.00    -0.205 F 
ATOM     16  C   UNL     1      22.799   2.800  21.661  0.00  0.00    -0.030 A 
ATOM     18  C   UNL     1      22.740   2.825  23.054  0.00  0.00    +0.008 A 
ATOM     19  C   UNL     1      23.702   1.954  21.016  0.00  0.00    +0.008 A 
ATOM     20  C   UNL     1      23.583   2.003  23.803  0.00  0.00    +0.038 A 
ATOM     21  C   UNL     1      24.545   1.132  21.765  0.00  0.00    +0.038 A 
ATOM     22  C   UNL     1      24.485   1.156  23.158  0.00  0.00    +0.123 A 
ENDBRANCH  14  16
ENDBRANCH   7  14
BRANCH  15  17
ATOM     17  C   UNL     1      17.146   6.979  19.980  0.00  0.00    +0.324 C 
BRANCH  17   5
ATOM      5  O   UNL     1      15.904   6.496  20.432  0.00  0.00    -0.483 OA
BRANCH   5  23
ATOM     23  C   UNL     1      14.784   6.880  19.730  0.00  0.00    +0.121 A 
ATOM     24  C   UNL     1      14.909   7.383  18.435  0.00  0.00    +0.045 A 
ATOM     25  C   UNL     1      13.522   6.767  20.314  0.00  0.00    +0.045 A 
ATOM     26  C   UNL     1      13.774   7.772  17.724  0.00  0.00    +0.004 A 
ATOM     27  C   UNL     1      12.386   7.157  19.604  0.00  0.00    +0.004 A 
ATOM     28  C   UNL     1      12.513   7.659  18.308  0.00  0.00    +0.000 A 
ENDBRANCH   5  23
ENDBRANCH  17   5
ENDBRANCH  15  17
TORSDOF 5
ENDMDL
MODEL 7
REMARK VINA RESULT:      -6.3     27.217     29.581
REMARK  Name = 56775278
REMARK  5 active torsions:
REMARK  status: ('A' for Active; 'I' for Inactive)
REMARK    1  A    between atoms: O_5  and  C_17
REMARK    2  A    between atoms: O_5  and  C_23
REMARK    3  A    between atoms: N_7  and  C_14
REMARK    4  A    between atoms: C_14  and  C_16
REMARK    5  A    between atoms: C_15  and  C_17
REMARK                            x       y       z     vdW  Elec       q    Type
REMARK                         _______ _______ _______ _____ _____    ______ ____
ROOT
ATOM      2  O   UNL     1      -8.871 -11.769  13.615  0.00  0.00    -0.364 OA
ATOM      3  O   UNL     1      -9.206  -9.056  15.893  0.00  0.00    -0.273 OA
ATOM      4  O   UNL     1      -5.512 -13.259  10.601  0.00  0.00    -0.272 OA
ATOM      6  N   UNL     1      -6.105 -12.127  12.525  0.00  0.00    -0.294 N 
ATOM      7  N   UNL     1      -7.339 -10.379  15.472  0.00  0.00    -0.288 N 
ATOM      8  C   UNL     1      -6.745 -11.464  14.702  0.00  0.00    +0.124 C 
ATOM      9  C   UNL     1      -7.761 -12.472  14.167  0.00  0.00    +0.158 C 
ATOM     10  C   UNL     1      -6.047 -10.981  13.427  0.00  0.00    +0.133 C 
ATOM     11  C   UNL     1      -7.008 -13.154  13.032  0.00  0.00    +0.141 C 
ATOM     12  C   UNL     1      -8.686 -10.041  15.368  0.00  0.00    +0.242 C 
ATOM     13  C   UNL     1      -9.548 -11.040  14.614  0.00  0.00    +0.256 C 
ATOM     15  C   UNL     1      -5.427 -12.269  11.327  0.00  0.00    +0.253 C 
ENDROOT
BRANCH   7  14
ATOM     14  C   UNL     1      -6.430  -9.543  16.244  0.00  0.00    +0.143 C 
BRANCH  14  16
ATOM      1  F   UNL     1      -3.375 -12.560  19.887  0.00  0.00    -0.205 F 
ATOM     16  C   UNL     1      -5.614 -10.347  17.215  0.00  0.00    -0.030 A 
ATOM     18  C   UNL     1      -4.286 -10.655  16.923  0.00  0.00    +0.008 A 
ATOM     19  C   UNL     1      -6.187 -10.786  18.409  0.00  0.00    +0.008 A 
ATOM     20  C   UNL     1      -3.529 -11.402  17.826  0.00  0.00    +0.038 A 
ATOM     21  C   UNL     1      -5.430 -11.533  19.312  0.00  0.00    +0.038 A 
ATOM     22  C   UNL     1      -4.101 -11.841  19.021  0.00  0.00    +0.123 A 
ENDBRANCH  14  16
ENDBRANCH   7  14
BRANCH  15  17
ATOM     17  C   UNL     1      -4.539 -11.112  10.942  0.00  0.00    +0.324 C 
BRANCH  17   5
ATOM      5  O   UNL     1      -3.214 -11.578  11.021  0.00  0.00    -0.483 OA
BRANCH   5  23
ATOM     23  C   UNL     1      -2.618 -11.579  12.261  0.00  0.00    +0.121 A 
ATOM     24  C   UNL     1      -2.224 -12.783  12.846  0.00  0.00    +0.045 A 
ATOM     25  C   UNL     1      -2.407 -10.376  12.935  0.00  0.00    +0.045 A 
ATOM     26  C   UNL     1      -1.621 -12.784  14.104  0.00  0.00    +0.004 A 
ATOM     27  C   UNL     1      -1.803 -10.376  14.193  0.00  0.00    +0.004 A 
ATOM     28  C   UNL     1      -1.410 -11.580  14.777  0.00  0.00    +0.000 A 
ENDBRANCH   5  23
ENDBRANCH  17   5
ENDBRANCH  15  17
TORSDOF 5
ENDMDL
MODEL 8
REMARK VINA RESULT:      -6.1     27.582     29.773
REMARK  Name = 56775278
REMARK  5 active torsions:
REMARK  status: ('A' for Active; 'I' for Inactive)
REMARK    1  A    between atoms: O_5  and  C_17
REMARK    2  A    between atoms: O_5  and  C_23
REMARK    3  A    between atoms: N_7  and  C_14
REMARK    4  A    between atoms: C_14  and  C_16
REMARK    5  A    between atoms: C_15  and  C_17
REMARK                            x       y       z     vdW  Elec       q    Type
REMARK                         _______ _______ _______ _____ _____    ______ ____
ROOT
ATOM      2  O   UNL     1      19.201 -13.225  -1.600  0.00  0.00    -0.364 OA
ATOM      3  O   UNL     1      16.174 -14.728  -0.488  0.00  0.00    -0.273 OA
ATOM      4  O   UNL     1      20.414  -9.001  -3.412  0.00  0.00    -0.272 OA
ATOM      6  N   UNL     1      19.000 -10.281  -2.108  0.00  0.00    -0.294 N 
ATOM      7  N   UNL     1      16.922 -12.550  -0.159  0.00  0.00    -0.288 N 
ATOM      8  C   UNL     1      17.950 -11.548  -0.411  0.00  0.00    +0.124 C 
ATOM      9  C   UNL     1      19.332 -12.135  -0.691  0.00  0.00    +0.158 C 
ATOM     10  C   UNL     1      17.678 -10.714  -1.666  0.00  0.00    +0.133 C 
ATOM     11  C   UNL     1      20.055 -10.998  -1.401  0.00  0.00    +0.141 C 
ATOM     12  C   UNL     1      17.061 -13.877  -0.558  0.00  0.00    +0.242 C 
ATOM     13  C   UNL     1      18.453 -14.271  -1.023  0.00  0.00    +0.256 C 
ATOM     15  C   UNL     1      19.276  -9.330  -3.075  0.00  0.00    +0.253 C 
ENDROOT
BRANCH   7  14
ATOM     14  C   UNL     1      15.658 -12.076   0.386  0.00  0.00    +0.143 C 
BRANCH  14  16
ATOM      1  F   UNL     1      15.481 -12.531   5.996  0.00  0.00    -0.205 F 
ATOM     16  C   UNL     1      15.611 -12.196   1.883  0.00  0.00    -0.030 A 
ATOM     18  C   UNL     1      16.117 -11.171   2.681  0.00  0.00    +0.008 A 
ATOM     19  C   UNL     1      15.061 -13.334   2.472  0.00  0.00    +0.008 A 
ATOM     20  C   UNL     1      16.073 -11.284   4.071  0.00  0.00    +0.038 A 
ATOM     21  C   UNL     1      15.017 -13.447   3.862  0.00  0.00    +0.038 A 
ATOM     22  C   UNL     1      15.523 -12.422   4.662  0.00  0.00    +0.123 A 
ENDBRANCH  14  16
ENDBRANCH   7  14
BRANCH  15  17
ATOM     17  C   UNL     1      18.073  -8.687  -3.717  0.00  0.00    +0.324 C 
BRANCH  17   5
ATOM      5  O   UNL     1      17.698  -7.615  -2.886  0.00  0.00    -0.483 OA
BRANCH   5  23
ATOM     23  C   UNL     1      16.505  -6.988  -3.165  0.00  0.00    +0.121 A 
ATOM     24  C   UNL     1      15.335  -7.737  -3.287  0.00  0.00    +0.045 A 
ATOM     25  C   UNL     1      16.465  -5.603  -3.324  0.00  0.00    +0.045 A 
ATOM     26  C   UNL     1      14.125  -7.101  -3.569  0.00  0.00    +0.004 A 
ATOM     27  C   UNL     1      15.256  -4.966  -3.606  0.00  0.00    +0.004 A 
ATOM     28  C   UNL     1      14.086  -5.716  -3.729  0.00  0.00    +0.000 A 
ENDBRANCH   5  23
ENDBRANCH  17   5
ENDBRANCH  15  17
TORSDOF 5
ENDMDL
MODEL 9
REMARK VINA RESULT:      -5.9     27.531     29.629
REMARK  Name = 56775278
REMARK  5 active torsions:
REMARK  status: ('A' for Active; 'I' for Inactive)
REMARK    1  A    between atoms: O_5  and  C_17
REMARK    2  A    between atoms: O_5  and  C_23
REMARK    3  A    between atoms: N_7  and  C_14
REMARK    4  A    between atoms: C_14  and  C_16
REMARK    5  A    between atoms: C_15  and  C_17
REMARK                            x       y       z     vdW  Elec       q    Type
REMARK                         _______ _______ _______ _____ _____    ______ ____
ROOT
ATOM      2  O   UNL     1      -4.220 -14.891  14.940  0.00  0.00    -0.364 OA
ATOM      3  O   UNL     1      -1.320 -13.088  13.938  0.00  0.00    -0.273 OA
ATOM      4  O   UNL     1      -7.845 -14.088  17.908  0.00  0.00    -0.272 OA
ATOM      6  N   UNL     1      -6.191 -13.277  16.514  0.00  0.00    -0.294 N 
ATOM      7  N   UNL     1      -3.477 -12.291  14.293  0.00  0.00    -0.288 N 
ATOM      8  C   UNL     1      -4.847 -12.580  14.698  0.00  0.00    +0.124 C 
ATOM      9  C   UNL     1      -5.263 -14.034  14.483  0.00  0.00    +0.158 C 
ATOM     10  C   UNL     1      -5.083 -12.381  16.198  0.00  0.00    +0.133 C 
ATOM     11  C   UNL     1      -6.460 -14.193  15.411  0.00  0.00    +0.141 C 
ATOM     12  C   UNL     1      -2.517 -13.290  14.148  0.00  0.00    +0.242 C 
ATOM     13  C   UNL     1      -3.052 -14.712  14.171  0.00  0.00    +0.256 C 
ATOM     15  C   UNL     1      -6.917 -13.308  17.691  0.00  0.00    +0.253 C 
ENDROOT
BRANCH   7  14
ATOM     14  C   UNL     1      -3.097 -10.889  14.203  0.00  0.00    +0.143 C 
BRANCH  14  16
ATOM      1  F   UNL     1      -3.720  -8.865   8.986  0.00  0.00    -0.205 F 
ATOM     16  C   UNL     1      -3.263 -10.350  12.811  0.00  0.00    -0.030 A 
ATOM     18  C   UNL     1      -2.141 -10.106  12.019  0.00  0.00    +0.008 A 
ATOM     19  C   UNL     1      -4.539 -10.092  12.312  0.00  0.00    +0.008 A 
ATOM     20  C   UNL     1      -2.295  -9.605  10.726  0.00  0.00    +0.038 A 
ATOM     21  C   UNL     1      -4.694  -9.590  11.019  0.00  0.00    +0.038 A 
ATOM     22  C   UNL     1      -3.572  -9.347  10.226  0.00  0.00    +0.123 A 
ENDBRANCH  14  16
ENDBRANCH   7  14
BRANCH  15  17
ATOM     17  C   UNL     1      -6.506 -12.300  18.735  0.00  0.00    +0.324 C 
BRANCH  17   5
ATOM      5  O   UNL     1      -7.694 -11.814  19.313  0.00  0.00    -0.483 OA
BRANCH   5  23
ATOM     23  C   UNL     1      -8.332 -10.778  18.669  0.00  0.00    +0.121 A 
ATOM     24  C   UNL     1      -9.705 -10.595  18.832  0.00  0.00    +0.045 A 
ATOM     25  C   UNL     1      -7.605  -9.912  17.853  0.00  0.00    +0.045 A 
ATOM     26  C   UNL     1     -10.352  -9.545  18.179  0.00  0.00    +0.004 A 
ATOM     27  C   UNL     1      -8.251  -8.862  17.199  0.00  0.00    +0.004 A 
ATOM     28  C   UNL     1      -9.624  -8.679  17.362  0.00  0.00    +0.000 A 
ENDBRANCH   5  23
ENDBRANCH  17   5
ENDBRANCH  15  17
TORSDOF 5
ENDMDL
MODEL 10
REMARK VINA RESULT:      -5.9      3.147      6.455
REMARK  Name = 56775278
REMARK  5 active torsions:
REMARK  status: ('A' for Active; 'I' for Inactive)
REMARK    1  A    between atoms: O_5  and  C_17
REMARK    2  A    between atoms: O_5  and  C_23
REMARK    3  A    between atoms: N_7  and  C_14
REMARK    4  A    between atoms: C_14  and  C_16
REMARK    5  A    between atoms: C_15  and  C_17
REMARK                            x       y       z     vdW  Elec       q    Type
REMARK                         _______ _______ _______ _____ _____    ______ ____
ROOT
ATOM      2  O   UNL     1      12.801  13.557  22.622  0.00  0.00    -0.364 OA
ATOM      3  O   UNL     1      10.474  11.455  24.304  0.00  0.00    -0.273 OA
ATOM      4  O   UNL     1      17.262  13.087  21.048  0.00  0.00    -0.272 OA
ATOM      6  N   UNL     1      15.230  12.135  21.600  0.00  0.00    -0.294 N 
ATOM      7  N   UNL     1      11.942  10.913  22.582  0.00  0.00    -0.288 N 
ATOM      8  C   UNL     1      13.001  11.351  21.681  0.00  0.00    +0.124 C 
ATOM      9  C   UNL     1      12.993  12.852  21.398  0.00  0.00    +0.158 C 
ATOM     10  C   UNL     1      14.404  11.123  22.252  0.00  0.00    +0.133 C 
ATOM     11  C   UNL     1      14.409  13.119  20.904  0.00  0.00    +0.141 C 
ATOM     12  C   UNL     1      11.279  11.792  23.434  0.00  0.00    +0.242 C 
ATOM     13  C   UNL     1      11.536  13.267  23.173  0.00  0.00    +0.256 C 
ATOM     15  C   UNL     1      16.611  12.209  21.617  0.00  0.00    +0.253 C 
ENDROOT
BRANCH   7  14
ATOM     14  C   UNL     1      11.709   9.480  22.680  0.00  0.00    +0.143 C 
BRANCH  14  16
ATOM      1  F   UNL     1      12.624   6.852  17.784  0.00  0.00    -0.205 F 
ATOM     16  C   UNL     1      11.953   8.780  21.373  0.00  0.00    -0.030 A 
ATOM     18  C   UNL     1      11.208   9.126  20.247  0.00  0.00    +0.008 A 
ATOM     19  C   UNL     1      12.925   7.782  21.289  0.00  0.00    +0.008 A 
ATOM     20  C   UNL     1      11.435   8.475  19.033  0.00  0.00    +0.038 A 
ATOM     21  C   UNL     1      13.151   7.131  20.076  0.00  0.00    +0.038 A 
ATOM     22  C   UNL     1      12.407   7.478  18.948  0.00  0.00    +0.123 A 
ENDBRANCH  14  16
ENDBRANCH   7  14
BRANCH  15  17
ATOM     17  C   UNL     1      17.311  11.118  22.389  0.00  0.00    +0.324 C 
BRANCH  17   5
ATOM      5  O   UNL     1      18.225  10.520  21.501  0.00  0.00    -0.483 OA
BRANCH   5  23
ATOM     23  C   UNL     1      18.100   9.167  21.283  0.00  0.00    +0.121 A 
ATOM     24  C   UNL     1      19.180   8.318  21.520  0.00  0.00    +0.045 A 
ATOM     25  C   UNL     1      16.891   8.644  20.823  0.00  0.00    +0.045 A 
ATOM     26  C   UNL     1      19.053   6.946  21.298  0.00  0.00    +0.004 A 
ATOM     27  C   UNL     1      16.762   7.273  20.600  0.00  0.00    +0.004 A 
ATOM     28  C   UNL     1      17.844   6.424  20.838  0.00  0.00    +0.000 A 
ENDBRANCH   5  23
ENDBRANCH  17   5
ENDBRANCH  15  17
TORSDOF 5
ENDMDL
