MODEL 1
REMARK VINA RESULT:      -6.5      0.000      0.000
REMARK  Name = 45361326
REMARK  10 active torsions:
REMARK  status: ('A' for Active; 'I' for Inactive)
REMARK    1  A    between atoms: O_2  and  C_10
REMARK    2  A    between atoms: N_6  and  C_28
REMARK    3  A    between atoms: N_6  and  C_29
REMARK    4  A    between atoms: C_8  and  C_16
REMARK    5  A    between atoms: C_11  and  C_17
REMARK    6  A    between atoms: C_13  and  C_20
REMARK    7  A    between atoms: C_17  and  C_21
REMARK    8  A    between atoms: C_17  and  C_22
REMARK    9  A    between atoms: C_24  and  C_27
REMARK   10  A    between atoms: C_28  and  C_30
REMARK                            x       y       z     vdW  Elec       q    Type
REMARK                         _______ _______ _______ _____ _____    ______ ____
ROOT
ATOM      1  S   UNL     1      -5.956 -10.076   6.510  0.00  0.00    -0.057 S 
ATOM      4  O   UNL     1      -9.455  -6.964   6.792  0.00  0.00    -0.275 OA
ATOM      5  N   UNL     1      -7.320  -8.623   8.158  0.00  0.00    -0.229 NA
ATOM      7  N   UNL     1      -7.915  -8.472   5.828  0.00  0.00    -0.264 N 
ATOM      8  C   UNL     1      -4.037 -10.472  10.126  0.00  0.00    -0.022 C 
ATOM      9  C   UNL     1      -5.321 -10.249  11.017  0.00  0.00    +0.033 C 
ATOM     10  C   UNL     1      -4.941  -9.968  12.499  0.00  0.00    +0.123 C 
ATOM     11  C   UNL     1      -3.981 -11.027  13.082  0.00  0.00    +0.029 C 
ATOM     12  C   UNL     1      -3.142 -11.560  10.765  0.00  0.00    +0.008 C 
ATOM     13  C   UNL     1      -6.291  -9.163  10.397  0.00  0.00    +0.042 C 
ATOM     14  C   UNL     1      -2.750 -11.247  12.202  0.00  0.00    +0.007 C 
ATOM     15  C   UNL     1      -4.457 -10.983   8.712  0.00  0.00    +0.051 C 
ATOM     16  C   UNL     1      -3.208  -9.172   9.964  0.00  0.00    +0.012 C 
ATOM     18  C   UNL     1      -6.395  -9.336   8.901  0.00  0.00    +0.057 A 
ATOM     19  C   UNL     1      -5.559 -10.149   8.163  0.00  0.00    +0.015 A 
ATOM     20  C   UNL     1      -7.694  -9.172  11.024  0.00  0.00    +0.014 C 
ATOM     23  C   UNL     1      -7.189  -8.941   6.889  0.00  0.00    +0.165 A 
ATOM     27  C   UNL     1      -8.976  -7.539   5.823  0.00  0.00    +0.222 C 
ATOM     33  H   UNL     1      -7.634  -8.855   4.928  0.00  0.00    +0.157 HD
ENDROOT
BRANCH  27  24
ATOM     24  C   UNL     1      -9.550  -7.251   4.470  0.00  0.00    +0.075 C 
ATOM     25  C   UNL     1      -8.732  -7.558   3.250  0.00  0.00    +0.013 C 
ATOM     26  C   UNL     1      -9.932  -8.396   3.580  0.00  0.00    +0.013 C 
ENDBRANCH  27  24
BRANCH  10   2
ATOM      2  O   UNL     1      -6.122  -9.979  13.301  0.00  0.00    -0.391 OA
ATOM     32  H   UNL     1      -6.562 -10.836  13.176  0.00  0.00    +0.210 HD
ENDBRANCH  10   2
BRANCH  11  17
ATOM     17  C   UNL     1      -3.537 -10.672  14.506  0.00  0.00    +0.078 C 
ATOM     21  C   UNL     1      -2.033 -10.389  14.515  0.00  0.00    +0.017 C 
BRANCH  17  22
ATOM      3  O   UNL     1      -3.619 -12.980  15.136  0.00  0.00    -0.275 OA
ATOM      6  N   UNL     1      -4.524 -11.494  16.662  0.00  0.00    -0.293 N 
ATOM     22  C   UNL     1      -3.887 -11.817  15.459  0.00  0.00    +0.219 C 
ATOM     29  C   UNL     1      -4.891 -12.564  17.583  0.00  0.00    +0.133 C 
BRANCH   6  28
ATOM     28  C   UNL     1      -4.844 -10.147  17.133  0.00  0.00    +0.196 C 
BRANCH  28  30
ATOM     30  C   UNL     1      -6.245  -9.819  16.877  0.00  0.00    -0.086 C 
ATOM     31  C   UNL     1      -7.396  -9.547  16.671  0.00  0.00    +0.005 C 
ENDBRANCH  28  30
ENDBRANCH   6  28
ENDBRANCH  17  22
ENDBRANCH  11  17
TORSDOF 6
ENDMDL
MODEL 2
REMARK VINA RESULT:      -5.9      6.387     11.078
REMARK  Name = 45361326
REMARK  10 active torsions:
REMARK  status: ('A' for Active; 'I' for Inactive)
REMARK    1  A    between atoms: O_2  and  C_10
REMARK    2  A    between atoms: N_6  and  C_28
REMARK    3  A    between atoms: N_6  and  C_29
REMARK    4  A    between atoms: C_8  and  C_16
REMARK    5  A    between atoms: C_11  and  C_17
REMARK    6  A    between atoms: C_13  and  C_20
REMARK    7  A    between atoms: C_17  and  C_21
REMARK    8  A    between atoms: C_17  and  C_22
REMARK    9  A    between atoms: C_24  and  C_27
REMARK   10  A    between atoms: C_28  and  C_30
REMARK                            x       y       z     vdW  Elec       q    Type
REMARK                         _______ _______ _______ _____ _____    ______ ____
ROOT
ATOM      1  S   UNL     1     -10.451 -10.635  19.824  0.00  0.00    -0.057 S 
ATOM      4  O   UNL     1     -11.182 -14.904  21.626  0.00  0.00    -0.275 OA
ATOM      5  N   UNL     1      -9.525 -13.048  19.897  0.00  0.00    -0.229 NA
ATOM      7  N   UNL     1     -11.524 -12.613  21.170  0.00  0.00    -0.264 N 
ATOM      8  C   UNL     1      -6.828 -10.449  17.888  0.00  0.00    -0.022 C 
ATOM      9  C   UNL     1      -6.844 -11.939  17.368  0.00  0.00    +0.033 C 
ATOM     10  C   UNL     1      -5.438 -12.382  16.870  0.00  0.00    +0.123 C 
ATOM     11  C   UNL     1      -4.827 -11.395  15.851  0.00  0.00    +0.029 C 
ATOM     12  C   UNL     1      -6.224  -9.525  16.804  0.00  0.00    +0.008 C 
ATOM     13  C   UNL     1      -7.478 -12.930  18.428  0.00  0.00    +0.042 C 
ATOM     14  C   UNL     1      -4.833  -9.953  16.358  0.00  0.00    +0.007 C 
ATOM     15  C   UNL     1      -8.288  -9.965  18.153  0.00  0.00    +0.051 C 
ATOM     16  C   UNL     1      -6.004 -10.297  19.193  0.00  0.00    +0.012 C 
ATOM     18  C   UNL     1      -8.695 -12.310  19.072  0.00  0.00    +0.057 A 
ATOM     19  C   UNL     1      -9.036 -10.979  18.944  0.00  0.00    +0.015 A 
ATOM     20  C   UNL     1      -7.839 -14.301  17.838  0.00  0.00    +0.014 C 
ATOM     23  C   UNL     1     -10.491 -12.272  20.340  0.00  0.00    +0.165 A 
ATOM     27  C   UNL     1     -11.815 -13.865  21.757  0.00  0.00    +0.222 C 
ATOM     33  H   UNL     1     -12.155 -11.844  21.388  0.00  0.00    +0.157 HD
ENDROOT
BRANCH  27  24
ATOM     24  C   UNL     1     -13.037 -13.881  22.621  0.00  0.00    +0.075 C 
ATOM     25  C   UNL     1     -12.881 -13.756  24.109  0.00  0.00    +0.013 C 
ATOM     26  C   UNL     1     -13.457 -12.620  23.316  0.00  0.00    +0.013 C 
ENDBRANCH  27  24
BRANCH  10   2
ATOM      2  O   UNL     1      -5.542 -13.649  16.222  0.00  0.00    -0.391 OA
ATOM     32  H   UNL     1      -6.084 -13.535  15.424  0.00  0.00    +0.210 HD
ENDBRANCH  10   2
BRANCH  11  17
ATOM     17  C   UNL     1      -3.400 -11.795  15.456  0.00  0.00    +0.078 C 
ATOM     21  C   UNL     1      -2.404 -10.829  16.099  0.00  0.00    +0.017 C 
BRANCH  17  22
ATOM      3  O   UNL     1      -3.350 -10.723  13.315  0.00  0.00    -0.275 OA
ATOM      6  N   UNL     1      -3.069 -13.020  13.291  0.00  0.00    -0.293 N 
ATOM     22  C   UNL     1      -3.265 -11.792  13.931  0.00  0.00    +0.219 C 
ATOM     29  C   UNL     1      -2.957 -13.054  11.836  0.00  0.00    +0.133 C 
BRANCH   6  28
ATOM     28  C   UNL     1      -2.923 -14.320  13.945  0.00  0.00    +0.196 C 
BRANCH  28  30
ATOM     30  C   UNL     1      -1.627 -14.922  13.635  0.00  0.00    -0.086 C 
ATOM     31  C   UNL     1      -0.565 -15.419  13.377  0.00  0.00    +0.005 C 
ENDBRANCH  28  30
ENDBRANCH   6  28
ENDBRANCH  17  22
ENDBRANCH  11  17
TORSDOF 6
ENDMDL
MODEL 3
REMARK VINA RESULT:      -5.9      4.634      8.069
REMARK  Name = 45361326
REMARK  10 active torsions:
REMARK  status: ('A' for Active; 'I' for Inactive)
REMARK    1  A    between atoms: O_2  and  C_10
REMARK    2  A    between atoms: N_6  and  C_28
REMARK    3  A    between atoms: N_6  and  C_29
REMARK    4  A    between atoms: C_8  and  C_16
REMARK    5  A    between atoms: C_11  and  C_17
REMARK    6  A    between atoms: C_13  and  C_20
REMARK    7  A    between atoms: C_17  and  C_21
REMARK    8  A    between atoms: C_17  and  C_22
REMARK    9  A    between atoms: C_24  and  C_27
REMARK   10  A    between atoms: C_28  and  C_30
REMARK                            x       y       z     vdW  Elec       q    Type
REMARK                         _______ _______ _______ _____ _____    ______ ____
ROOT
ATOM      1  S   UNL     1     -10.124  -9.208  17.841  0.00  0.00    -0.057 S 
ATOM      4  O   UNL     1     -13.388  -9.811  14.525  0.00  0.00    -0.275 OA
ATOM      5  N   UNL     1     -10.479  -9.879  15.368  0.00  0.00    -0.229 NA
ATOM      7  N   UNL     1     -12.449  -9.302  16.631  0.00  0.00    -0.264 N 
ATOM      8  C   UNL     1      -6.449 -10.531  16.553  0.00  0.00    -0.022 C 
ATOM      9  C   UNL     1      -6.652 -10.129  15.039  0.00  0.00    +0.033 C 
ATOM     10  C   UNL     1      -5.589 -10.803  14.126  0.00  0.00    +0.123 C 
ATOM     11  C   UNL     1      -4.144 -10.574  14.620  0.00  0.00    +0.029 C 
ATOM     12  C   UNL     1      -4.987 -10.250  16.974  0.00  0.00    +0.008 C 
ATOM     13  C   UNL     1      -8.141 -10.369  14.558  0.00  0.00    +0.042 C 
ATOM     14  C   UNL     1      -3.964 -10.950  16.091  0.00  0.00    +0.007 C 
ATOM     15  C   UNL     1      -7.372  -9.658  17.460  0.00  0.00    +0.051 C 
ATOM     16  C   UNL     1      -6.766 -12.028  16.805  0.00  0.00    +0.012 C 
ATOM     18  C   UNL     1      -9.120  -9.936  15.623  0.00  0.00    +0.057 A 
ATOM     19  C   UNL     1      -8.758  -9.631  16.919  0.00  0.00    +0.015 A 
ATOM     20  C   UNL     1      -8.470  -9.671  13.229  0.00  0.00    +0.014 C 
ATOM     23  C   UNL     1     -11.105  -9.495  16.460  0.00  0.00    +0.165 A 
ATOM     27  C   UNL     1     -13.494  -9.462  15.694  0.00  0.00    +0.222 C 
ATOM     33  H   UNL     1     -12.712  -9.008  17.569  0.00  0.00    +0.157 HD
ENDROOT
BRANCH  27  24
ATOM     24  C   UNL     1     -14.861  -9.162  16.225  0.00  0.00    +0.075 C 
ATOM     25  C   UNL     1     -15.002  -8.624  17.618  0.00  0.00    +0.013 C 
ATOM     26  C   UNL     1     -15.264  -7.733  16.440  0.00  0.00    +0.013 C 
ENDBRANCH  27  24
BRANCH  10   2
ATOM      2  O   UNL     1      -5.678 -10.256  12.811  0.00  0.00    -0.391 OA
ATOM     32  H   UNL     1      -4.785 -10.246  12.428  0.00  0.00    +0.210 HD
ENDBRANCH  10   2
BRANCH  11  17
ATOM     17  C   UNL     1      -3.122 -11.335  13.767  0.00  0.00    +0.078 C 
ATOM     21  C   UNL     1      -2.500 -12.458  14.598  0.00  0.00    +0.017 C 
BRANCH  17  22
ATOM      3  O   UNL     1      -1.290  -9.823  14.065  0.00  0.00    -0.275 OA
ATOM      6  N   UNL     1      -1.992 -10.125  11.881  0.00  0.00    -0.293 N 
ATOM     22  C   UNL     1      -2.051 -10.368  13.257  0.00  0.00    +0.219 C 
ATOM     29  C   UNL     1      -0.996  -9.192  11.365  0.00  0.00    +0.133 C 
BRANCH   6  28
ATOM     28  C   UNL     1      -2.829 -10.752  10.859  0.00  0.00    +0.196 C 
BRANCH  28  30
ATOM     30  C   UNL     1      -3.496  -9.746  10.034  0.00  0.00    -0.086 C 
ATOM     31  C   UNL     1      -4.048  -8.922   9.357  0.00  0.00    +0.005 C 
ENDBRANCH  28  30
ENDBRANCH   6  28
ENDBRANCH  17  22
ENDBRANCH  11  17
TORSDOF 6
ENDMDL
MODEL 4
REMARK VINA RESULT:      -5.9     23.956     26.646
REMARK  Name = 45361326
REMARK  10 active torsions:
REMARK  status: ('A' for Active; 'I' for Inactive)
REMARK    1  A    between atoms: O_2  and  C_10
REMARK    2  A    between atoms: N_6  and  C_28
REMARK    3  A    between atoms: N_6  and  C_29
REMARK    4  A    between atoms: C_8  and  C_16
REMARK    5  A    between atoms: C_11  and  C_17
REMARK    6  A    between atoms: C_13  and  C_20
REMARK    7  A    between atoms: C_17  and  C_21
REMARK    8  A    between atoms: C_17  and  C_22
REMARK    9  A    between atoms: C_24  and  C_27
REMARK   10  A    between atoms: C_28  and  C_30
REMARK                            x       y       z     vdW  Elec       q    Type
REMARK                         _______ _______ _______ _____ _____    ______ ____
ROOT
ATOM      1  S   UNL     1       9.351   7.833   8.051  0.00  0.00    -0.057 S 
ATOM      4  O   UNL     1      11.137  12.170   8.168  0.00  0.00    -0.275 OA
ATOM      5  N   UNL     1      10.925   9.469   6.811  0.00  0.00    -0.229 NA
ATOM      7  N   UNL     1       9.874  10.284   8.821  0.00  0.00    -0.264 N 
ATOM      8  C   UNL     1      10.307   5.937   4.529  0.00  0.00    -0.022 C 
ATOM      9  C   UNL     1      11.724   6.612   4.359  0.00  0.00    +0.033 C 
ATOM     10  C   UNL     1      12.277   6.415   2.919  0.00  0.00    +0.123 C 
ATOM     11  C   UNL     1      12.256   4.938   2.467  0.00  0.00    +0.029 C 
ATOM     12  C   UNL     1      10.376   4.459   4.078  0.00  0.00    +0.008 C 
ATOM     13  C   UNL     1      11.720   8.123   4.832  0.00  0.00    +0.042 C 
ATOM     14  C   UNL     1      10.884   4.290   2.652  0.00  0.00    +0.007 C 
ATOM     15  C   UNL     1       9.893   5.947   6.034  0.00  0.00    +0.051 C 
ATOM     16  C   UNL     1       9.213   6.663   3.703  0.00  0.00    +0.012 C 
ATOM     18  C   UNL     1      10.924   8.279   6.106  0.00  0.00    +0.057 A 
ATOM     19  C   UNL     1      10.105   7.296   6.623  0.00  0.00    +0.015 A 
ATOM     20  C   UNL     1      13.130   8.703   5.021  0.00  0.00    +0.014 C 
ATOM     23  C   UNL     1      10.141   9.346   7.861  0.00  0.00    +0.165 A 
ATOM     27  C   UNL     1      10.363  11.606   8.930  0.00  0.00    +0.222 C 
ATOM     33  H   UNL     1       9.229   9.970   9.543  0.00  0.00    +0.157 HD
ENDROOT
BRANCH  27  24
ATOM     24  C   UNL     1       9.859  12.363  10.119  0.00  0.00    +0.075 C 
ATOM     25  C   UNL     1       8.714  11.802  10.910  0.00  0.00    +0.013 C 
ATOM     26  C   UNL     1      10.096  11.808  11.493  0.00  0.00    +0.013 C 
ENDBRANCH  27  24
BRANCH  10   2
ATOM      2  O   UNL     1      13.634   6.854   2.868  0.00  0.00    -0.391 OA
ATOM     32  H   UNL     1      14.206   6.075   2.974  0.00  0.00    +0.210 HD
ENDBRANCH  10   2
BRANCH  11  17
ATOM     17  C   UNL     1      12.705   4.781   1.010  0.00  0.00    +0.078 C 
ATOM     21  C   UNL     1      11.628   4.035   0.222  0.00  0.00    +0.017 C 
BRANCH  17  22
ATOM      3  O   UNL     1      14.263   3.127   1.764  0.00  0.00    -0.275 OA
ATOM      6  N   UNL     1      14.975   4.439  -0.005  0.00  0.00    -0.293 N 
ATOM     22  C   UNL     1      14.042   4.037   0.956  0.00  0.00    +0.219 C 
ATOM     29  C   UNL     1      16.267   3.763  -0.068  0.00  0.00    +0.133 C 
BRANCH   6  28
ATOM     28  C   UNL     1      14.779   5.478  -1.015  0.00  0.00    +0.196 C 
BRANCH  28  30
ATOM     30  C   UNL     1      14.309   4.904  -2.275  0.00  0.00    -0.086 C 
ATOM     31  C   UNL     1      13.923   4.428  -3.308  0.00  0.00    +0.005 C 
ENDBRANCH  28  30
ENDBRANCH   6  28
ENDBRANCH  17  22
ENDBRANCH  11  17
TORSDOF 6
ENDMDL
MODEL 5
REMARK VINA RESULT:      -5.8     20.505     23.191
REMARK  Name = 45361326
REMARK  10 active torsions:
REMARK  status: ('A' for Active; 'I' for Inactive)
REMARK    1  A    between atoms: O_2  and  C_10
REMARK    2  A    between atoms: N_6  and  C_28
REMARK    3  A    between atoms: N_6  and  C_29
REMARK    4  A    between atoms: C_8  and  C_16
REMARK    5  A    between atoms: C_11  and  C_17
REMARK    6  A    between atoms: C_13  and  C_20
REMARK    7  A    between atoms: C_17  and  C_21
REMARK    8  A    between atoms: C_17  and  C_22
REMARK    9  A    between atoms: C_24  and  C_27
REMARK   10  A    between atoms: C_28  and  C_30
REMARK                            x       y       z     vdW  Elec       q    Type
REMARK                         _______ _______ _______ _____ _____    ______ ____
ROOT
ATOM      1  S   UNL     1     -13.835   5.602  22.223  0.00  0.00    -0.057 S 
ATOM      4  O   UNL     1     -18.209   4.859  20.697  0.00  0.00    -0.275 OA
ATOM      5  N   UNL     1     -15.579   6.345  20.464  0.00  0.00    -0.229 NA
ATOM      7  N   UNL     1     -16.260   4.627  22.010  0.00  0.00    -0.264 N 
ATOM      8  C   UNL     1     -11.792   8.113  19.685  0.00  0.00    -0.022 C 
ATOM      9  C   UNL     1     -13.043   8.987  19.280  0.00  0.00    +0.033 C 
ATOM     10  C   UNL     1     -12.744   9.856  18.024  0.00  0.00    +0.123 C 
ATOM     11  C   UNL     1     -11.450  10.685  18.165  0.00  0.00    +0.029 C 
ATOM     12  C   UNL     1     -10.547   9.019  19.828  0.00  0.00    +0.008 C 
ATOM     13  C   UNL     1     -14.357   8.115  19.146  0.00  0.00    +0.042 C 
ATOM     14  C   UNL     1     -10.250   9.832  18.575  0.00  0.00    +0.007 C 
ATOM     15  C   UNL     1     -12.044   7.443  21.072  0.00  0.00    +0.051 C 
ATOM     16  C   UNL     1     -11.492   7.007  18.640  0.00  0.00    +0.012 C 
ATOM     18  C   UNL     1     -14.438   7.101  20.261  0.00  0.00    +0.057 A 
ATOM     19  C   UNL     1     -13.388   6.807  21.108  0.00  0.00    +0.015 A 
ATOM     20  C   UNL     1     -15.643   8.955  19.108  0.00  0.00    +0.014 C 
ATOM     23  C   UNL     1     -15.381   5.531  21.478  0.00  0.00    +0.165 A 
ATOM     27  C   UNL     1     -17.585   4.338  21.613  0.00  0.00    +0.222 C 
ATOM     33  H   UNL     1     -15.887   4.095  22.794  0.00  0.00    +0.157 HD
ENDROOT
BRANCH  27  24
ATOM     24  C   UNL     1     -18.265   3.280  22.424  0.00  0.00    +0.075 C 
ATOM     25  C   UNL     1     -18.016   1.836  22.097  0.00  0.00    +0.013 C 
ATOM     26  C   UNL     1     -17.445   2.431  23.351  0.00  0.00    +0.013 C 
ENDBRANCH  27  24
BRANCH  10   2
ATOM      2  O   UNL     1     -13.816  10.775  17.818  0.00  0.00    -0.391 OA
ATOM     32  H   UNL     1     -13.437  11.665  17.735  0.00  0.00    +0.210 HD
ENDBRANCH  10   2
BRANCH  11  17
ATOM     17  C   UNL     1     -11.120  11.450  16.878  0.00  0.00    +0.078 C 
ATOM     21  C   UNL     1     -10.401  10.517  15.901  0.00  0.00    +0.017 C 
BRANCH  17  22
ATOM      3  O   UNL     1      -9.027  12.563  17.215  0.00  0.00    -0.275 OA
ATOM      6  N   UNL     1     -10.913  13.870  17.509  0.00  0.00    -0.293 N 
ATOM     22  C   UNL     1     -10.258  12.672  17.207  0.00  0.00    +0.219 C 
ATOM     29  C   UNL     1     -10.122  15.048  17.849  0.00  0.00    +0.133 C 
BRANCH   6  28
ATOM     28  C   UNL     1     -12.359  14.091  17.489  0.00  0.00    +0.196 C 
BRANCH  28  30
ATOM     30  C   UNL     1     -12.919  14.033  18.838  0.00  0.00    -0.086 C 
ATOM     31  C   UNL     1     -13.378  13.980  19.947  0.00  0.00    +0.005 C 
ENDBRANCH  28  30
ENDBRANCH   6  28
ENDBRANCH  17  22
ENDBRANCH  11  17
TORSDOF 6
ENDMDL
MODEL 6
REMARK VINA RESULT:      -5.8     23.483     25.329
REMARK  Name = 45361326
REMARK  10 active torsions:
REMARK  status: ('A' for Active; 'I' for Inactive)
REMARK    1  A    between atoms: O_2  and  C_10
REMARK    2  A    between atoms: N_6  and  C_28
REMARK    3  A    between atoms: N_6  and  C_29
REMARK    4  A    between atoms: C_8  and  C_16
REMARK    5  A    between atoms: C_11  and  C_17
REMARK    6  A    between atoms: C_13  and  C_20
REMARK    7  A    between atoms: C_17  and  C_21
REMARK    8  A    between atoms: C_17  and  C_22
REMARK    9  A    between atoms: C_24  and  C_27
REMARK   10  A    between atoms: C_28  and  C_30
REMARK                            x       y       z     vdW  Elec       q    Type
REMARK                         _______ _______ _______ _____ _____    ______ ____
ROOT
ATOM      1  S   UNL     1      14.163   5.448  -1.100  0.00  0.00    -0.057 S 
ATOM      4  O   UNL     1      10.698   2.551  -2.368  0.00  0.00    -0.275 OA
ATOM      5  N   UNL     1      11.950   4.375  -0.299  0.00  0.00    -0.229 NA
ATOM      7  N   UNL     1      12.700   3.794  -2.514  0.00  0.00    -0.264 N 
ATOM      8  C   UNL     1      13.307   7.299   2.471  0.00  0.00    -0.022 C 
ATOM      9  C   UNL     1      12.524   6.083   3.103  0.00  0.00    +0.033 C 
ATOM     10  C   UNL     1      11.710   6.519   4.355  0.00  0.00    +0.123 C 
ATOM     11  C   UNL     1      12.567   7.284   5.387  0.00  0.00    +0.029 C 
ATOM     12  C   UNL     1      14.155   7.996   3.562  0.00  0.00    +0.008 C 
ATOM     13  C   UNL     1      11.657   5.312   2.024  0.00  0.00    +0.042 C 
ATOM     14  C   UNL     1      13.334   8.449   4.761  0.00  0.00    +0.007 C 
ATOM     15  C   UNL     1      14.289   6.784   1.374  0.00  0.00    +0.051 C 
ATOM     16  C   UNL     1      12.349   8.342   1.838  0.00  0.00    +0.012 C 
ATOM     18  C   UNL     1      12.424   5.166   0.732  0.00  0.00    +0.057 A 
ATOM     19  C   UNL     1      13.596   5.840   0.456  0.00  0.00    +0.015 A 
ATOM     20  C   UNL     1      11.173   3.936   2.504  0.00  0.00    +0.014 C 
ATOM     23  C   UNL     1      12.790   4.437  -1.309  0.00  0.00    +0.165 A 
ATOM     27  C   UNL     1      11.696   2.913  -2.976  0.00  0.00    +0.222 C 
ATOM     33  H   UNL     1      13.466   3.995  -3.153  0.00  0.00    +0.157 HD
ENDROOT
BRANCH  27  24
ATOM     24  C   UNL     1      11.915   2.387  -4.361  0.00  0.00    +0.075 C 
ATOM     25  C   UNL     1      11.416   3.182  -5.531  0.00  0.00    +0.013 C 
ATOM     26  C   UNL     1      12.889   3.087  -5.262  0.00  0.00    +0.013 C 
ENDBRANCH  27  24
BRANCH  10   2
ATOM      2  O   UNL     1      11.191   5.362   5.009  0.00  0.00    -0.391 OA
ATOM     32  H   UNL     1      11.823   4.635   4.881  0.00  0.00    +0.210 HD
ENDBRANCH  10   2
BRANCH  11  17
ATOM     17  C   UNL     1      11.723   7.797   6.560  0.00  0.00    +0.078 C 
ATOM     21  C   UNL     1      12.446   8.961   7.238  0.00  0.00    +0.017 C 
BRANCH  17  22
ATOM      3  O   UNL     1      12.405   5.936   7.903  0.00  0.00    -0.275 OA
ATOM      6  N   UNL     1      10.156   6.468   8.001  0.00  0.00    -0.293 N 
ATOM     22  C   UNL     1      11.466   6.657   7.550  0.00  0.00    +0.219 C 
ATOM     29  C   UNL     1       9.873   5.378   8.929  0.00  0.00    +0.133 C 
BRANCH   6  28
ATOM     28  C   UNL     1       8.999   7.295   7.661  0.00  0.00    +0.196 C 
BRANCH  28  30
ATOM     30  C   UNL     1       8.455   6.926   6.354  0.00  0.00    -0.086 C 
ATOM     31  C   UNL     1       8.013   6.622   5.280  0.00  0.00    +0.005 C 
ENDBRANCH  28  30
ENDBRANCH   6  28
ENDBRANCH  17  22
ENDBRANCH  11  17
TORSDOF 6
ENDMDL
MODEL 7
REMARK VINA RESULT:      -5.5     24.722     26.799
REMARK  Name = 45361326
REMARK  10 active torsions:
REMARK  status: ('A' for Active; 'I' for Inactive)
REMARK    1  A    between atoms: O_2  and  C_10
REMARK    2  A    between atoms: N_6  and  C_28
REMARK    3  A    between atoms: N_6  and  C_29
REMARK    4  A    between atoms: C_8  and  C_16
REMARK    5  A    between atoms: C_11  and  C_17
REMARK    6  A    between atoms: C_13  and  C_20
REMARK    7  A    between atoms: C_17  and  C_21
REMARK    8  A    between atoms: C_17  and  C_22
REMARK    9  A    between atoms: C_24  and  C_27
REMARK   10  A    between atoms: C_28  and  C_30
REMARK                            x       y       z     vdW  Elec       q    Type
REMARK                         _______ _______ _______ _____ _____    ______ ____
ROOT
ATOM      1  S   UNL     1      14.157   4.485  -2.835  0.00  0.00    -0.057 S 
ATOM      4  O   UNL     1      18.726   5.228  -2.073  0.00  0.00    -0.275 OA
ATOM      5  N   UNL     1      15.888   5.115  -1.019  0.00  0.00    -0.229 NA
ATOM      7  N   UNL     1      16.737   4.720  -3.239  0.00  0.00    -0.264 N 
ATOM      8  C   UNL     1      12.053   4.473   0.699  0.00  0.00    -0.022 C 
ATOM      9  C   UNL     1      12.946   5.554   1.425  0.00  0.00    +0.033 C 
ATOM     10  C   UNL     1      12.680   5.575   2.957  0.00  0.00    +0.123 C 
ATOM     11  C   UNL     1      11.180   5.704   3.301  0.00  0.00    +0.029 C 
ATOM     12  C   UNL     1      10.568   4.685   1.077  0.00  0.00    +0.008 C 
ATOM     13  C   UNL     1      14.478   5.403   1.052  0.00  0.00    +0.042 C 
ATOM     14  C   UNL     1      10.323   4.664   2.580  0.00  0.00    +0.007 C 
ATOM     15  C   UNL     1      12.170   4.642  -0.848  0.00  0.00    +0.051 C 
ATOM     16  C   UNL     1      12.466   3.027   1.078  0.00  0.00    +0.012 C 
ATOM     18  C   UNL     1      14.641   5.111  -0.420  0.00  0.00    +0.057 A 
ATOM     19  C   UNL     1      13.596   4.763  -1.252  0.00  0.00    +0.015 A 
ATOM     20  C   UNL     1      15.321   6.628   1.439  0.00  0.00    +0.014 C 
ATOM     23  C   UNL     1      15.754   4.812  -2.292  0.00  0.00    +0.165 A 
ATOM     27  C   UNL     1      18.128   4.923  -3.096  0.00  0.00    +0.222 C 
ATOM     33  H   UNL     1      16.402   4.463  -4.166  0.00  0.00    +0.157 HD
ENDROOT
BRANCH  27  24
ATOM     24  C   UNL     1      18.920   4.737  -4.353  0.00  0.00    +0.075 C 
ATOM     25  C   UNL     1      19.420   3.367  -4.706  0.00  0.00    +0.013 C 
ATOM     26  C   UNL     1      18.307   3.986  -5.498  0.00  0.00    +0.013 C 
ENDBRANCH  27  24
BRANCH  10   2
ATOM      2  O   UNL     1      13.346   6.695   3.538  0.00  0.00    -0.391 OA
ATOM     32  H   UNL     1      14.003   7.018   2.900  0.00  0.00    +0.210 HD
ENDBRANCH  10   2
BRANCH  11  17
ATOM     17  C   UNL     1      10.932   5.615   4.811  0.00  0.00    +0.078 C 
ATOM     21  C   UNL     1       9.901   4.522   5.095  0.00  0.00    +0.017 C 
BRANCH  17  22
ATOM      3  O   UNL     1       9.906   7.765   4.567  0.00  0.00    -0.275 OA
ATOM      6  N   UNL     1      10.688   7.265   6.687  0.00  0.00    -0.293 N 
ATOM     22  C   UNL     1      10.456   6.971   5.339  0.00  0.00    +0.219 C 
ATOM     29  C   UNL     1      10.266   8.557   7.216  0.00  0.00    +0.133 C 
BRANCH   6  28
ATOM     28  C   UNL     1      11.298   6.372   7.671  0.00  0.00    +0.196 C 
BRANCH  28  30
ATOM     30  C   UNL     1      10.280   5.724   8.497  0.00  0.00    -0.086 C 
ATOM     31  C   UNL     1       9.445   5.195   9.179  0.00  0.00    +0.005 C 
ENDBRANCH  28  30
ENDBRANCH   6  28
ENDBRANCH  17  22
ENDBRANCH  11  17
TORSDOF 6
ENDMDL
MODEL 8
REMARK VINA RESULT:      -5.5     25.983     28.606
REMARK  Name = 45361326
REMARK  10 active torsions:
REMARK  status: ('A' for Active; 'I' for Inactive)
REMARK    1  A    between atoms: O_2  and  C_10
REMARK    2  A    between atoms: N_6  and  C_28
REMARK    3  A    between atoms: N_6  and  C_29
REMARK    4  A    between atoms: C_8  and  C_16
REMARK    5  A    between atoms: C_11  and  C_17
REMARK    6  A    between atoms: C_13  and  C_20
REMARK    7  A    between atoms: C_17  and  C_21
REMARK    8  A    between atoms: C_17  and  C_22
REMARK    9  A    between atoms: C_24  and  C_27
REMARK   10  A    between atoms: C_28  and  C_30
REMARK                            x       y       z     vdW  Elec       q    Type
REMARK                         _______ _______ _______ _____ _____    ______ ____
ROOT
ATOM      1  S   UNL     1      10.917   4.154   2.764  0.00  0.00    -0.057 S 
ATOM      4  O   UNL     1      10.995   7.571   5.978  0.00  0.00    -0.275 OA
ATOM      5  N   UNL     1      12.218   6.250   3.540  0.00  0.00    -0.229 NA
ATOM      7  N   UNL     1      10.270   5.643   4.824  0.00  0.00    -0.264 N 
ATOM      8  C   UNL     1      13.718   4.824  -0.172  0.00  0.00    -0.022 C 
ATOM      9  C   UNL     1      14.786   5.502   0.773  0.00  0.00    +0.033 C 
ATOM     10  C   UNL     1      15.883   6.239  -0.048  0.00  0.00    +0.123 C 
ATOM     11  C   UNL     1      16.521   5.343  -1.131  0.00  0.00    +0.029 C 
ATOM     12  C   UNL     1      14.435   3.929  -1.210  0.00  0.00    +0.008 C 
ATOM     13  C   UNL     1      14.107   6.412   1.877  0.00  0.00    +0.042 C 
ATOM     14  C   UNL     1      15.478   4.678  -2.029  0.00  0.00    +0.007 C 
ATOM     15  C   UNL     1      12.778   3.903   0.668  0.00  0.00    +0.051 C 
ATOM     16  C   UNL     1      12.855   5.871  -0.922  0.00  0.00    +0.012 C 
ATOM     18  C   UNL     1      12.878   5.737   2.438  0.00  0.00    +0.057 A 
ATOM     19  C   UNL     1      12.293   4.620   1.878  0.00  0.00    +0.015 A 
ATOM     20  C   UNL     1      15.061   6.796   3.018  0.00  0.00    +0.014 C 
ATOM     23  C   UNL     1      11.177   5.492   3.810  0.00  0.00    +0.165 A 
ATOM     27  C   UNL     1      10.218   6.638   5.826  0.00  0.00    +0.222 C 
ATOM     33  H   UNL     1       9.538   4.936   4.837  0.00  0.00    +0.157 HD
ENDROOT
BRANCH  27  24
ATOM     24  C   UNL     1       9.077   6.499   6.785  0.00  0.00    +0.075 C 
ATOM     25  C   UNL     1       9.354   6.040   8.187  0.00  0.00    +0.013 C 
ATOM     26  C   UNL     1       8.962   7.466   7.928  0.00  0.00    +0.013 C 
ENDBRANCH  27  24
BRANCH  10   2
ATOM      2  O   UNL     1      16.930   6.656   0.828  0.00  0.00    -0.391 OA
ATOM     32  H   UNL     1      16.616   7.431   1.323  0.00  0.00    +0.210 HD
ENDBRANCH  10   2
BRANCH  11  17
ATOM     17  C   UNL     1      17.522   6.119  -1.996  0.00  0.00    +0.078 C 
ATOM     21  C   UNL     1      16.946   6.301  -3.402  0.00  0.00    +0.017 C 
BRANCH  17  22
ATOM      3  O   UNL     1      18.875   4.178  -2.357  0.00  0.00    -0.275 OA
ATOM      6  N   UNL     1      20.013   6.081  -1.695  0.00  0.00    -0.293 N 
ATOM     22  C   UNL     1      18.857   5.372  -2.041  0.00  0.00    +0.219 C 
ATOM     29  C   UNL     1      21.299   5.392  -1.706  0.00  0.00    +0.133 C 
BRANCH   6  28
ATOM     28  C   UNL     1      20.082   7.499  -1.344  0.00  0.00    +0.196 C 
BRANCH  28  30
ATOM     30  C   UNL     1      20.213   7.677   0.102  0.00  0.00    -0.086 C 
ATOM     31  C   UNL     1      20.316   7.819   1.289  0.00  0.00    +0.005 C 
ENDBRANCH  28  30
ENDBRANCH   6  28
ENDBRANCH  17  22
ENDBRANCH  11  17
TORSDOF 6
ENDMDL
MODEL 9
REMARK VINA RESULT:      -5.5     20.227     23.036
REMARK  Name = 45361326
REMARK  10 active torsions:
REMARK  status: ('A' for Active; 'I' for Inactive)
REMARK    1  A    between atoms: O_2  and  C_10
REMARK    2  A    between atoms: N_6  and  C_28
REMARK    3  A    between atoms: N_6  and  C_29
REMARK    4  A    between atoms: C_8  and  C_16
REMARK    5  A    between atoms: C_11  and  C_17
REMARK    6  A    between atoms: C_13  and  C_20
REMARK    7  A    between atoms: C_17  and  C_21
REMARK    8  A    between atoms: C_17  and  C_22
REMARK    9  A    between atoms: C_24  and  C_27
REMARK   10  A    between atoms: C_28  and  C_30
REMARK                            x       y       z     vdW  Elec       q    Type
REMARK                         _______ _______ _______ _____ _____    ______ ____
ROOT
ATOM      1  S   UNL     1     -13.129   5.140  22.076  0.00  0.00    -0.057 S 
ATOM      4  O   UNL     1     -17.819   5.016  22.101  0.00  0.00    -0.275 OA
ATOM      5  N   UNL     1     -15.248   6.447  21.376  0.00  0.00    -0.229 NA
ATOM      7  N   UNL     1     -15.591   4.333  22.482  0.00  0.00    -0.264 N 
ATOM      8  C   UNL     1     -11.747   8.299  19.834  0.00  0.00    -0.022 C 
ATOM      9  C   UNL     1     -12.931   9.281  20.188  0.00  0.00    +0.033 C 
ATOM     10  C   UNL     1     -12.960  10.504  19.227  0.00  0.00    +0.123 C 
ATOM     11  C   UNL     1     -11.595  11.218  19.126  0.00  0.00    +0.029 C 
ATOM     12  C   UNL     1     -10.417   9.085  19.774  0.00  0.00    +0.008 C 
ATOM     13  C   UNL     1     -14.318   8.525  20.290  0.00  0.00    +0.042 C 
ATOM     14  C   UNL     1     -10.455  10.254  18.800  0.00  0.00    +0.007 C 
ATOM     15  C   UNL     1     -11.602   7.220  20.952  0.00  0.00    +0.051 C 
ATOM     16  C   UNL     1     -11.970   7.585  18.475  0.00  0.00    +0.012 C 
ATOM     18  C   UNL     1     -14.152   7.205  21.006  0.00  0.00    +0.057 A 
ATOM     19  C   UNL     1     -12.928   6.633  21.285  0.00  0.00    +0.015 A 
ATOM     20  C   UNL     1     -15.415   9.356  20.973  0.00  0.00    +0.014 C 
ATOM     23  C   UNL     1     -14.831   5.344  21.960  0.00  0.00    +0.165 A 
ATOM     27  C   UNL     1     -16.998   4.215  22.529  0.00  0.00    +0.222 C 
ATOM     33  H   UNL     1     -15.051   3.569  22.883  0.00  0.00    +0.157 HD
ENDROOT
BRANCH  27  24
ATOM     24  C   UNL     1     -17.500   2.964  23.180  0.00  0.00    +0.075 C 
ATOM     25  C   UNL     1     -18.976   2.695  23.207  0.00  0.00    +0.013 C 
ATOM     26  C   UNL     1     -18.081   1.877  22.323  0.00  0.00    +0.013 C 
ENDBRANCH  27  24
BRANCH  10   2
ATOM      2  O   UNL     1     -13.905  11.460  19.707  0.00  0.00    -0.391 OA
ATOM     32  H   UNL     1     -13.981  12.166  19.043  0.00  0.00    +0.210 HD
ENDBRANCH  10   2
BRANCH  11  17
ATOM     17  C   UNL     1     -11.620  12.352  18.094  0.00  0.00    +0.078 C 
ATOM     21  C   UNL     1     -11.944  13.672  18.796  0.00  0.00    +0.017 C 
BRANCH  17  22
ATOM      3  O   UNL     1     -13.828  12.378  17.169  0.00  0.00    -0.275 OA
ATOM      6  N   UNL     1     -12.210  11.357  15.867  0.00  0.00    -0.293 N 
ATOM     22  C   UNL     1     -12.651  12.040  17.006  0.00  0.00    +0.219 C 
ATOM     29  C   UNL     1     -13.172  11.025  14.821  0.00  0.00    +0.133 C 
BRANCH   6  28
ATOM     28  C   UNL     1     -10.834  10.953  15.583  0.00  0.00    +0.196 C 
BRANCH  28  30
ATOM     30  C   UNL     1     -10.745   9.511  15.358  0.00  0.00    -0.086 C 
ATOM     31  C   UNL     1     -10.674   8.327  15.169  0.00  0.00    +0.005 C 
ENDBRANCH  28  30
ENDBRANCH   6  28
ENDBRANCH  17  22
ENDBRANCH  11  17
TORSDOF 6
ENDMDL
MODEL 10
REMARK VINA RESULT:      -5.4      1.619      2.050
REMARK  Name = 45361326
REMARK  10 active torsions:
REMARK  status: ('A' for Active; 'I' for Inactive)
REMARK    1  A    between atoms: O_2  and  C_10
REMARK    2  A    between atoms: N_6  and  C_28
REMARK    3  A    between atoms: N_6  and  C_29
REMARK    4  A    between atoms: C_8  and  C_16
REMARK    5  A    between atoms: C_11  and  C_17
REMARK    6  A    between atoms: C_13  and  C_20
REMARK    7  A    between atoms: C_17  and  C_21
REMARK    8  A    between atoms: C_17  and  C_22
REMARK    9  A    between atoms: C_24  and  C_27
REMARK   10  A    between atoms: C_28  and  C_30
REMARK                            x       y       z     vdW  Elec       q    Type
REMARK                         _______ _______ _______ _____ _____    ______ ____
ROOT
ATOM      1  S   UNL     1      -5.060 -11.949   7.878  0.00  0.00    -0.057 S 
ATOM      4  O   UNL     1      -7.367  -8.086   6.551  0.00  0.00    -0.275 OA
ATOM      5  N   UNL     1      -6.109  -9.751   8.748  0.00  0.00    -0.229 NA
ATOM      7  N   UNL     1      -6.272 -10.170   6.380  0.00  0.00    -0.264 N 
ATOM      8  C   UNL     1      -3.931 -11.712  11.826  0.00  0.00    -0.022 C 
ATOM      9  C   UNL     1      -5.191 -10.892  12.307  0.00  0.00    +0.033 C 
ATOM     10  C   UNL     1      -4.964 -10.281  13.719  0.00  0.00    +0.123 C 
ATOM     11  C   UNL     1      -4.496 -11.326  14.755  0.00  0.00    +0.029 C 
ATOM     12  C   UNL     1      -3.541 -12.749  12.905  0.00  0.00    +0.008 C 
ATOM     13  C   UNL     1      -5.655  -9.831  11.227  0.00  0.00    +0.042 C 
ATOM     14  C   UNL     1      -3.286 -12.126  14.271  0.00  0.00    +0.007 C 
ATOM     15  C   UNL     1      -4.279 -12.501  10.525  0.00  0.00    +0.051 C 
ATOM     16  C   UNL     1      -2.712 -10.796  11.546  0.00  0.00    +0.012 C 
ATOM     18  C   UNL     1      -5.586 -10.421   9.839  0.00  0.00    +0.057 A 
ATOM     19  C   UNL     1      -4.958 -11.613   9.543  0.00  0.00    +0.015 A 
ATOM     20  C   UNL     1      -7.061  -9.272  11.489  0.00  0.00    +0.014 C 
ATOM     23  C   UNL     1      -5.901 -10.467   7.664  0.00  0.00    +0.165 A 
ATOM     27  C   UNL     1      -6.961  -9.036   5.895  0.00  0.00    +0.222 C 
ATOM     33  H   UNL     1      -6.000 -10.872   5.695  0.00  0.00    +0.157 HD
ENDROOT
BRANCH  27  24
ATOM     24  C   UNL     1      -7.203  -9.035   4.418  0.00  0.00    +0.075 C 
ATOM     25  C   UNL     1      -8.128 -10.060   3.829  0.00  0.00    +0.013 C 
ATOM     26  C   UNL     1      -8.549  -8.621   3.899  0.00  0.00    +0.013 C 
ENDBRANCH  27  24
BRANCH  10   2
ATOM      2  O   UNL     1      -6.190  -9.729  14.199  0.00  0.00    -0.391 OA
ATOM     32  H   UNL     1      -5.975  -9.031  14.840  0.00  0.00    +0.210 HD
ENDBRANCH  10   2
BRANCH  11  17
ATOM     17  C   UNL     1      -4.177 -10.683  16.110  0.00  0.00    +0.078 C 
ATOM     21  C   UNL     1      -2.662 -10.657  16.318  0.00  0.00    +0.017 C 
BRANCH  17  22
ATOM      3  O   UNL     1      -4.454 -12.580  17.544  0.00  0.00    -0.275 OA
ATOM      6  N   UNL     1      -5.984 -10.869  17.842  0.00  0.00    -0.293 N 
ATOM     22  C   UNL     1      -4.874 -11.460  17.229  0.00  0.00    +0.219 C 
ATOM     29  C   UNL     1      -6.683 -11.593  18.897  0.00  0.00    +0.133 C 
BRANCH   6  28
ATOM     28  C   UNL     1      -6.520  -9.539  17.554  0.00  0.00    +0.196 C 
BRANCH  28  30
ATOM     30  C   UNL     1      -7.943  -9.607  17.224  0.00  0.00    -0.086 C 
ATOM     31  C   UNL     1      -9.112  -9.658  16.950  0.00  0.00    +0.005 C 
ENDBRANCH  28  30
ENDBRANCH   6  28
ENDBRANCH  17  22
ENDBRANCH  11  17
TORSDOF 6
ENDMDL
